32
Energy = -209.47161169 eV
Ti 10.633938183367631 14.278696466582959 9.959834246346533
Ti 7.938206477617023 6.161472710488458 5.307900975194263
Ti 9.567476070955083 8.990593839691032 9.590177900755643
Ti 11.231184233098723 13.169162636634203 12.34488673556791
Ti 9.04875893404409 4.751818790971795 7.1028343055084315
Ti 10.317428524130015 12.27316091879382 8.110785989144446
Ti 11.934774280624191 10.261497008402955 9.205597852789914
Ti 7.570752779247853 10.087926878655601 6.688671462731465
Ti 11.817141320600848 8.010787703018732 10.732634257281182
Ti 12.335615217545275 12.479477895508872 10.083189239259545
Ti 8.290709653539817 13.640060095649616 9.29182597570365
Ti 8.303310396519883 7.409679851686462 7.77299166718527
Ti 8.528691435503752 8.506254414288122 5.19395115040719
Ti 9.143985621710398 11.55550265261318 13.121551371468755
Ti 10.650092220668942 5.789295021961097 8.750374754078443
Ti 10.25379293541775 9.605111168988094 6.879788421877221
Ti 9.753527939044877 8.877224440609732 12.260420613326001
Ti 9.700357768606597 6.540398096821784 10.99556183525483
Ti 7.3779003816150635 7.513838275708584 10.853160337361366
Ti 8.87962405740154 13.99840093622513 11.876020200253611
Ti 7.112363117773654 12.342666119936137 11.315363454461016
Ti 7.532138373766046 9.989878649280636 11.485393655308636
Ti 10.418543029344372 6.8159565807609015 6.138402304484548
Ti 7.9886329164573215 5.227027527980722 9.480838696385517
Ti 6.074653040288336 7.8370381491110885 6.399065921503675
Ti 11.792184062715267 10.61866631546664 11.993393817837694
Ti 9.746985517138537 11.717362943888782 10.644722172335623
Ti 11.709513351176037 7.951913331242146 8.125904461549544
Ti 5.801959355477877 6.810880291902029 8.991357766813246
Ti 6.548013882650416 5.311556381195973 7.220266094452632
Ti 7.864646626816564 11.067538082825253 8.905718461240117
Ti 6.198547750959721 9.206492337432774 8.861816618854858
