39
Energy = -259.3104361 eV
Ti 5.850341410488926 8.567087257653103 2.5610051051599867
Ti 7.922963266039362 6.895337191821983 2.396031686355328
Ti 5.460611494595707 6.1374182139934454 1.8367121791066383
Ti 10.104204587563746 7.681183306296279 3.476107572037604
Ti 8.052647127055314 9.274520293795849 3.8428711970100733
Ti 3.6401402334564446 7.357463907858241 3.221620873799488
Ti 6.929713283811186 4.472071202219683 3.1339405825279663
Ti 9.405666863997398 5.175731377270489 3.948391095679005
Ti 10.11272809167367 9.129728742631233 5.575622135255047
Ti 5.650926114841239 9.300594319110612 5.094546072283922
Ti 11.003316234762652 6.696669892544086 5.6521937371023965
Ti 5.830996293068573 6.5850195673235214 4.484093123049431
Ti 4.132188363472768 4.590726078129177 3.5245036773546947
Ti 7.6932002326353945 9.563040722441587 6.62072270371941
Ti 8.316555036447443 7.096251274507947 5.509626188161621
Ti 2.563577316768678 5.975369571608747 4.995987112796441
Ti 7.4432327997807315 4.3606226978960265 6.010977317040071
Ti 3.457449465723317 8.278597088184227 5.891491251784149
Ti 5.616518416439691 3.0981053648351002 5.037956036169347
Ti 5.670836181982436 7.707248494760342 7.54544685708532
Ti 9.619300072472159 4.835027852368472 6.6840652960456435
Ti 3.1174956414311175 3.5759753318512484 6.057540339055537
Ti 5.062904939896275 10.158711243920258 7.6372240619847025
Ti 9.670724491620781 7.789836822831477 7.820908576575388
Ti 4.893125348463729 5.235853789183713 6.7613078746769215
Ti 3.129570070769524 8.488831967109324 8.403500080436785
Ti 2.433361865339709 6.125886645759101 7.43751562588884
Ti 5.363289615302571 2.7380040374424275 7.525801719472086
Ti 8.120383037709315 3.4004747022734074 8.531102421350711
Ti 7.6615397679780095 6.048202918042118 8.345388089615572
Ti 5.005832701304094 8.931762906095047 9.919108082202424
Ti 10.13143450547704 5.344204290082392 9.08871834993856
Ti 7.49783467713204 9.056120828806634 9.227141093108932
Ti 3.3906430657452655 3.9933603095714845 8.646283689392916
Ti 4.027997923246312 6.3732226561770835 9.633737905010415
Ti 9.041624538657917 7.269879514476217 10.376594386250103
Ti 5.823929261898568 4.34752069437166 9.609226813989293
Ti 8.175843300569035 4.88842079484435 10.727323703539186
Ti 6.475352360381776 6.955916129910576 10.707665387987953
