37
Energy = -244.82247717 eV
Ti 5.543954655541917 2.841279488791077 5.620178028370621
Ti 4.01572571137819 4.684002588953818 7.116912071799052
Ti 7.690279694056882 2.595115376872882 7.171180864626037
Ti 5.977734064698498 3.637081658460696 8.61099931552889
Ti 2.0509264488859147 6.58277680121291 5.757861194604379
Ti 8.075873057883099 3.0258585024281315 4.853177610726344
Ti 2.473886386096612 6.509978084724909 8.420077374816263
Ti 3.8574315047184333 7.426881626347202 3.806534297710643
Ti 6.440892614512688 4.430962614598854 3.4806586824565264
Ti 6.860129906071463 5.014801611954655 10.658919675475774
Ti 8.743051766258846 4.060146201641055 9.010701367196669
Ti 4.8554955989991475 6.111180776702574 9.30501679181586
Ti 4.313865636115869 5.1626908471536375 4.759608588778634
Ti 2.0367814265561894 8.773599098555387 7.419313607852118
Ti 6.706003116848365 5.077467525841375 6.098079110380736
Ti 9.753864984502417 4.299831501953684 6.462084528101383
Ti 4.329505779895391 7.4396631003087155 6.632166305079452
Ti 2.597910303190893 9.165609387172989 5.135941246513967
Ti 6.578424740767195 8.59499554181921 6.236571036447901
Ti 3.830936500224629 8.614221928608046 9.199759170206768
Ti 9.084794248849317 5.1306864282479525 4.015931368685918
Ti 6.61297802700336 7.1226285916693115 4.084474251468749
Ti 5.006622921423734 9.558009290922191 4.403058278621521
Ti 6.772272622039595 7.627735197825114 10.595513954239422
Ti 8.83184730187776 7.3475450475805815 6.0328340578226785
Ti 7.37255887825447 6.303370602656448 8.35728522540784
Ti 4.3250558004377275 10.184778459550277 6.9967080154821595
Ti 10.40091319615204 6.160634465525228 8.206464670985122
Ti 9.07424337569082 6.265602711647444 10.465813330716804
Ti 6.356803800206009 9.010966793402963 8.52527775106315
Ti 9.277860797774318 7.466642558396556 3.3642044094824697
Ti 8.058793351948191 9.488772456582288 4.291966705388673
Ti 11.107056391552076 6.474601013351558 5.377430011889687
Ti 8.938982179138138 8.49926174039586 8.979083231433213
Ti 10.93324425603935 8.474392857627612 7.281627438206768
Ti 8.878123252442798 10.076552398559656 6.732439189223959
Ti 10.582434978442382 9.106934398432307 4.881406517868986
