33
Energy = -217.95332352 eV
Ti 2.512635108768931 5.837227128299546 6.2375133719380775
Ti 3.8846854539913322 3.747986656058127 5.295089458222121
Ti 3.5605454932711074 5.652659410976718 3.5711459677700197
Ti 3.5232862499015725 3.897315689072073 7.770336624936199
Ti 2.532370811844215 7.951265560550348 4.610659711638199
Ti 3.7054965854912556 6.376446001861057 8.742275345285979
Ti 4.149760863573907 8.278062620319417 2.786721646638544
Ti 3.272620248810256 8.239738161650722 6.939366133196172
Ti 5.537335797697546 4.310071244389118 9.325822329990274
Ti 5.818511602279758 6.382325869440364 2.4216439473491485
Ti 5.2881181724302655 5.564926822578516 6.8686173010554
Ti 6.086110504581912 4.447610932355808 4.217380973274143
Ti 5.915752617895001 3.0566438095469826 6.827722707993018
Ti 5.1515922609228415 7.236761417996072 4.9270596141788
Ti 6.094205601493182 7.043084959747176 9.923040303996574
Ti 4.5935272963904845 9.709120378269471 5.058783389248683
Ti 8.069866989487604 3.3736247319241963 8.394231367951651
Ti 7.566862519038683 4.924295238966909 10.627846296864144
Ti 5.5823065103472524 8.443673570231114 7.589310211934002
Ti 8.252964185634976 4.35858089637433 5.605553935264061
Ti 6.7153941068759515 8.78887073401242 3.3011341136009555
Ti 7.648246066741569 7.35341215458795 5.90155231821881
Ti 7.2714554961487305 9.934551155217374 5.771986857413779
Ti 7.8176086594437875 5.951318398953312 8.170256894414244
Ti 8.125045324020984 6.309004488507787 3.501661273862096
Ti 9.102691144426315 8.728766985617197 4.200975511297576
Ti 7.9672950669609275 8.831834902457514 8.499241031562924
Ti 8.726247575613202 7.2061988001293695 10.381605003422573
Ti 9.88474042753451 4.9909601803086225 9.615304270269403
Ti 10.071144973988174 4.679695321050148 7.18168882680419
Ti 9.667570979259564 9.083232681285786 6.563711045749525
Ti 10.134085197623593 6.59407402656767 5.4714470869481335
Ti 10.271331254547603 7.218070217734965 8.20072627474757
