35
Energy = -231.54706994 eV
Ti 9.67832347096427 9.230214132082624 7.708595817666624
Ti 9.3503578168545 6.968741083127913 8.95575578704433
Ti 10.4673559060748 6.977582377300553 6.485576879472469
Ti 7.649304286209141 9.246542790373908 9.215176399909154
Ti 9.426055340534846 9.158903757965426 5.256998292333485
Ti 7.333642446740745 10.106754588365854 6.609073177832823
Ti 7.189754909574957 6.818902945083668 10.228745904732014
Ti 9.38254057233437 4.604005290409922 7.430134916967041
Ti 5.538837254558693 8.612402105058207 10.57169552534017
Ti 7.8191376790556655 7.522662583749111 6.85973626039107
Ti 6.9371115303998865 5.208787757819493 8.3880374691907
Ti 9.406855474861883 6.9916306950113 3.8939689874687486
Ti 10.476547521288134 4.894453685713418 5.0056523454137825
Ti 5.105242459834235 10.117715204826156 8.33877554855373
Ti 7.098361731147279 8.572672635646308 4.306693126733003
Ti 5.318585936661894 7.535698965322416 8.039810010232724
Ti 3.3426756627585634 8.413145225502513 9.641877339193975
Ti 9.122497180703945 2.8837268499046553 5.442704823666999
Ti 4.632365131331429 6.070310575685427 10.100990695145876
Ti 7.731638443290965 5.19718778953913 5.2462165399608205
Ti 8.686099193930316 4.256200458902085 3.1042117660576403
Ti 6.966246750477766 3.072608690320862 6.978847904166069
Ti 4.908780993250983 9.129350113419262 5.600172036955435
Ti 7.242788239664192 6.525087143155316 2.7289706269415066
Ti 3.031307182878197 8.921861936244056 7.255496607030499
Ti 5.1429785785413875 5.785582123639763 5.855555553261456
Ti 4.4760983515880115 4.151938786812767 8.040054978569977
Ti 2.7678196322031736 6.33206843058985 8.126852738956702
Ti 6.968029243450417 2.6243533835009383 4.354282127741881
Ti 4.840096237289988 7.144229768908563 3.5309435374420195
Ti 5.781410837182812 4.527803268775325 3.103539338319116
Ti 2.8724952995550077 7.158418560976564 5.442142717578465
Ti 4.70677616051483 3.1617263362787593 5.425146177291738
Ti 2.7083100892651384 4.594459424011762 6.293200462682732
Ti 3.404849371887695 4.993547452836378 3.9456444966150483
