35
Energy = -230.79430366 eV
Ti 3.5925779318600917 5.549619767593387 8.090751543469429
Ti 9.2984588318119 11.272487237380057 12.175743557340443
Ti 3.7862296068203594 8.10945597969857 8.8217065828583
Ti 8.87926425526775 7.1398973539132315 6.618692915910989
Ti 11.953380893589571 7.816535735664829 11.232553583072185
Ti 9.681696984908307 8.6197079399298 12.036323410584885
Ti 7.540246472346197 5.022111103771862 6.4611502845972915
Ti 5.85547161418547 4.1730868242778865 8.276963430999649
Ti 12.4386150198429 9.052512453980142 8.943427899211075
Ti 5.292741970696996 10.379877540094581 9.430165895770315
Ti 7.206175326874164 11.246523947554092 7.786143874127484
Ti 10.397454955190106 5.278541150928789 8.071775799379603
Ti 12.346858862636196 6.427080910719775 9.234083914886892
Ti 3.8614445828731263 7.424495313876458 6.268871492572855
Ti 8.093987026143834 5.494596504332941 9.09357578331197
Ti 7.699129370716137 9.480267209447636 5.902122096351466
Ti 7.475954368213972 8.791812066130957 8.616083080641964
Ti 5.350090585996812 8.318295046563614 10.826965303549187
Ti 5.223325793818341 9.52234214242693 6.796383239595754
Ti 10.438593500183785 12.764464048653224 10.422089489529242
Ti 6.2911178468266336 7.42154547471717 5.273377682356029
Ti 9.443652599095682 12.531527173115915 8.012854530301642
Ti 5.02117652217838 5.136096133639503 5.961749131619874
Ti 7.782816212801262 12.302700970556746 10.173047470040986
Ti 10.258878676158034 5.755927808109224 10.849156058505342
Ti 5.982698009548659 6.794746078457859 7.849292693346179
Ti 11.704915824511339 11.511837146008652 8.532651658698457
Ti 11.477131457465136 7.451475784816463 6.982191295403712
Ti 9.856927192833327 9.6930469796138 7.195102423322502
Ti 7.626776819553639 7.104180777237079 11.015620528621755
Ti 9.96880154919272 7.705132335718153 9.255821599184682
Ti 9.573945563516038 10.399552837570512 9.67802321190282
Ti 7.296084521215748 9.837773064985894 11.293074901445317
Ti 11.721217676357602 10.461301761504348 11.151149032967606
Ti 5.129447010613851 5.895787854253639 10.194982299521168
