30
Energy = -193.01971037 eV
Ti 6.051668339711243 7.719429259931293 1.0549577126900227
Ti 4.460741205158962 6.120347726310815 2.5375309154200143
Ti 7.012220117359493 5.011978204553323 2.561809515665519
Ti 7.242147355054623 9.507031674890284 2.2161147767607323
Ti 5.048041932140122 3.3973537390004807 2.810092748266042
Ti 6.871610806112165 7.326919137777892 3.4312136647586553
Ti 4.771977303238693 8.912558994058777 3.0683223900033543
Ti 3.0034282335056117 4.219543305496904 4.494115695416402
Ti 5.371096042624202 4.9803950398179815 4.776092400628771
Ti 7.320205028867284 3.0956756851494953 4.453217764747514
Ti 3.2457403628206474 7.2779668734656395 4.774822732792161
Ti 8.41989928422478 5.5463394367188315 4.999847580846099
Ti 6.639370465649617 9.894166638531184 4.817702134736796
Ti 8.400848673392511 8.27667699166435 5.493454167735291
Ti 4.936909475980259 2.2903044179229273 5.251209754317247
Ti 6.424029916237434 9.052423050670997 7.469695821382191
Ti 8.872154298420108 3.709588165652077 7.106679554466553
Ti 4.376240260157386 9.680240399657048 5.694749795598597
Ti 5.837448149852137 7.35123184824098 5.812375784414988
Ti 3.3447964177439826 5.71679322051572 6.789244601794091
Ti 6.687327087544163 4.352165600455345 6.799210821583314
Ti 6.374066905236209 1.8193229681224865 7.584777365085725
Ti 3.8556295113060144 0.9486224018635144 7.638178420503256
Ti 7.985386642617085 6.586707490062219 7.477337115162669
Ti 3.7621882303619043 8.037946269420349 7.406454955897663
Ti 4.307698860642319 3.48734514497932 7.520036754827118
Ti 6.430762871405895 3.9119780929447168 9.361077914660111
Ti 5.507401944067547 6.314759485068236 8.399019799504236
Ti 3.785715021110923 4.668893367413923 9.655768123371544
Ti 4.798839441183585 1.9308855533695217 9.690479400689874
