35
Energy = -229.54238009 eV
Ti 12.261282780534504 11.431951161441912 4.365970536417279
Ti 12.0129736285409 7.978811600371793 8.78841832868816
Ti 5.690444248639907 10.163214934471437 6.463015279415704
Ti 10.040975321367931 11.250852757025731 6.2618880726301525
Ti 8.269783887192293 9.653719644368083 10.938081366468984
Ti 8.271246381756312 5.879130166197814 7.335270082885043
Ti 7.977200248515387 9.808897727824549 5.173046897503078
Ti 9.011943759553532 11.524969581831064 8.998259627830715
Ti 7.750378650734658 12.31388759175715 11.042213871919609
Ti 10.259962552799845 11.27877749234224 11.57508264519768
Ti 8.181462328097975 10.965252240208823 13.215671883404601
Ti 7.54826223500278 9.175861399013462 8.013194903443909
Ti 6.576543094200589 7.602657576476661 6.173980167075742
Ti 4.927084590962936 8.574135748919293 8.165756299829303
Ti 10.64734008657837 9.292164955156537 4.561054052811696
Ti 10.584302592887948 5.959093057830864 7.763661398157685
Ti 11.403014621582907 8.587976474244787 11.362318839472813
Ti 11.30420229494274 6.023933837252979 10.46603519576742
Ti 10.005629110410371 8.668718459930739 7.062520422895937
Ti 7.055603247587301 6.467311340803915 11.317491697414507
Ti 12.37356261419128 9.936833805299976 6.541148471480134
Ti 5.7114097351236754 8.439804556656947 10.574773663632508
Ti 10.951082546008045 10.187965547395898 9.185703929080523
Ti 9.23159650551581 7.054785199852502 5.2601161913499945
Ti 6.486645641961223 6.500593728609872 8.783649278739325
Ti 12.0241569959473 7.450006375772454 5.817112222549403
Ti 7.513727444571789 11.756658104560964 6.916559794163127
Ti 6.0998232296713075 10.976695525989586 9.22375272059635
Ti 13.253870916601361 9.410884648368505 4.10426339615517
Ti 9.415327587881825 6.727849065180028 12.256309894374533
Ti 5.949912251980271 10.628742846257923 11.935567262142266
Ti 9.360738953080025 7.608904855205783 9.684275519250926
Ti 8.839007588948887 5.159396929061929 9.93066878717096
Ti 7.195400934302653 8.463244279929661 13.042352265649074
Ti 9.81630587424862 9.10333763685365 13.20401404959098
