30
Energy = -191.07940992 eV
Ti 3.3133588042813327 9.769754657195376 9.848685624858039
Ti 8.369638186549157 5.382220566314262 9.262454479229561
Ti 9.485867541969439 9.30578175229222 4.4305095192504
Ti 8.058526039048791 2.9650483163310497 7.962282302333028
Ti 6.651570542760255 5.017460878090961 2.6932854448008654
Ti 4.850151189059046 5.249810092586213 4.821452681251373
Ti 4.76344063716668 3.0161689781710135 3.6055206431347995
Ti 8.89260722411178 4.970871263886583 6.546486450460007
Ti 5.005140936653371 8.455460574629932 11.118152803120024
Ti 8.285691939768412 7.3807158843327425 2.693458920233398
Ti 4.570106518085711 3.022738517404355 6.127190054809783
Ti 9.10183232279896 5.052440961626595 3.750574564578298
Ti 10.536288528397636 4.260391049885084 8.248677474660065
Ti 7.158740255668851 7.005718862974072 7.463101547439715
Ti 2.936610922829402 7.094391686385155 4.9075073853080475
Ti 6.220566256518666 4.671433734490048 7.287138319303449
Ti 4.026698520106187 6.251752514024177 7.282478495928462
Ti 5.235031345756091 8.675274234050914 8.50249076487121
Ti 3.2348131487500087 7.259791174799604 9.647685152997603
Ti 9.769806964109703 7.174116156400113 8.050995833753536
Ti 8.081639881203234 9.165246839075559 6.789846703059886
Ti 5.456074743121009 7.427424600678056 3.0965724425704524
Ti 7.160029923971061 6.415250288977444 4.862007854179539
Ti 7.021209197483987 9.11984660215173 4.2806898161861
Ti 4.975591729898153 8.246930157635619 5.683877787798251
Ti 2.789087817284101 8.587496267578212 7.410166686982498
Ti 5.667917313025461 6.257226444341601 9.737458702260332
Ti 7.021611293678839 3.5296307367099553 4.943860327439644
Ti 9.715650898684093 7.216677547342827 5.239040015441304
Ti 7.6414651764364745 8.049694458814153 9.703117000935942
