31
Energy = -201.08052817 eV
Ti 9.60468956002975 8.393284377441653 9.501703443091374
Ti 7.395415148472338 8.717939645061627 10.621490923798646
Ti 10.273919690557326 6.255571866493315 8.024530880911662
Ti 8.065186986974199 10.535073437530473 8.728140269033771
Ti 5.480198390853301 9.736094806148769 9.364802281584083
Ti 8.09225002168918 6.2861822259831595 9.9292914160834
Ti 9.906751111922313 8.816381617476193 7.013296433984444
Ti 10.563333435265497 6.717147498339924 5.420934039596881
Ti 5.433681305453971 7.085141609028335 9.858194604438163
Ti 9.511375194201838 4.325722697197012 5.762570769301874
Ti 7.195399160412728 8.214671696407327 7.980325195017351
Ti 8.814828620691477 4.295727108445619 8.39190672085539
Ti 5.80204873799546 10.409649296772958 7.022017238767064
Ti 4.352610107215008 8.076111656753376 7.559046013285441
Ti 8.04129085770618 10.35908021923718 6.073633636775353
Ti 6.090964279258917 5.02337496052191 8.464383077511906
Ti 3.588743815461264 5.501241668185733 8.273057157445136
Ti 8.066746504005721 6.245722050341926 6.497538787387445
Ti 9.077107997723092 8.507633135004394 4.560592669915474
Ti 6.550251832441514 8.395659682315475 5.182963202182495
Ti 7.186282466845622 3.2903788963455107 6.874538996343603
Ti 5.23627846329232 6.08246405661539 5.949574693080937
Ti 4.054750204855474 8.426573092378648 5.036421337416654
Ti 4.571739684577011 3.5797321069634975 6.597189796775904
Ti 2.6065854347575095 6.0334893767794116 6.248635850536003
Ti 8.487764773841803 6.148764775650766 3.8622688044552005
Ti 6.826191902238657 4.363385089648718 4.544659763582189
Ti 4.169053245007935 4.343847905316602 4.091057562671577
Ti 5.911058918885753 2.065434312125793 4.736405754474674
Ti 5.525297299355094 6.632032391079993 3.3548290439216277
Ti 2.9645930232928666 6.535596475888383 3.8974085594426784
