30
Energy = -193.04506266 eV
Ti 5.901112660539941 8.88708621449098 2.6259277330942306
Ti 7.362689827540026 6.092354498348307 3.3799920540062174
Ti 5.966107844159671 4.025260312904015 4.732562142102893
Ti 5.065433686358958 6.886278755531843 4.382005040514579
Ti 6.842316353993519 10.872021649215176 4.017594551278067
Ti 9.75274683465599 6.672583737619788 4.711829501010031
Ti 8.712435052685695 4.245347678965234 4.709093375203976
Ti 4.904655298948639 9.524343423748247 4.952818833512351
Ti 7.408935797204489 8.474618441794103 4.542342590999166
Ti 9.611208094138238 9.49865501343427 5.594414852084436
Ti 6.936869593135416 5.7433447395505475 5.9978231538078015
Ti 8.364005116556871 7.671089084012812 6.896217662683309
Ti 4.219411146802049 5.613698682946944 6.945363343840636
Ti 5.3966994494980955 3.2824260517035935 7.307113055847574
Ti 5.3902517136730275 7.982808121499033 7.0680480783383635
Ti 7.039062197818724 10.123558559775784 6.756302213973635
Ti 10.91883602234704 7.5252209537925685 7.0209200007148045
Ti 3.847617876663683 9.980621793841582 7.680336238449726
Ti 9.778132598863232 5.14080129823495 6.9158470183346115
Ti 9.571407432882241 9.41896790606565 8.282306718422735
Ti 6.743446340449331 5.570109326539183 8.634267106769297
Ti 4.384530119841078 4.257758260600908 9.293818044890662
Ti 9.435591210989656 6.770970078254179 9.133401900780505
Ti 7.726205772865918 3.197181674083325 6.818823425160012
Ti 4.614572975012379 7.063311636326521 9.419963159673301
Ti 6.832651651613521 3.2167861243865326 9.525620887809563
Ti 7.283191428343294 8.32143529762981 9.15824498678168
Ti 5.420588628377088 9.810987712429755 9.238350035880577
Ti 5.6261930034756045 5.137662774106692 11.120830157636464
Ti 6.890999719322904 6.9406156469227795 11.085727585154181
