36
Energy = -238.39364535 eV
Ti 9.543651912326196 4.415707483525194 8.570454186909503
Ti 10.309689422816511 4.756100888590205 6.221079073276008
Ti 10.15970400232482 6.887289875238031 7.864612928850347
Ti 8.250787388417072 3.160798004770276 6.599288921953949
Ti 7.270099971507849 3.6886136152259485 9.31167476682621
Ti 9.949624143182936 6.934175736539322 4.986519439184398
Ti 8.013922189620088 6.363209622769434 9.595943971036986
Ti 9.901422329197331 9.08692429203301 6.607264164898239
Ti 7.967430344948884 8.745852984971778 8.295321087032754
Ti 7.973873153212483 5.926491119397052 6.869009938652511
Ti 8.489337421890163 4.696330242196928 4.307814367874039
Ti 6.162305603740108 2.019441490005684 7.650988090918294
Ti 5.68522961625961 5.423293662143399 10.248687221900184
Ti 7.347816503431906 8.569284681029762 5.494818138716662
Ti 9.623087995884783 9.408790264582606 4.1935573795611045
Ti 4.389644023178699 3.259276525014424 9.301731357726144
Ti 5.650964885161564 7.9380710031305215 9.643543695045206
Ti 8.156837985792995 10.946397315999432 5.887970539317202
Ti 5.390371034447587 4.635209976156648 7.475435695475529
Ti 5.8208426479265984 9.974747307833654 7.43829820892809
Ti 3.988932220990002 2.47825741506615 6.716406533131744
Ti 7.584848807703248 10.098403017929204 3.2931446369141315
Ti 3.511773797291596 6.182882220996767 9.167829657831927
Ti 8.00367379392369 7.303276142593572 3.13611913300968
Ti 5.760985908747326 10.71918630208124 4.848045269534335
Ti 6.127407126451726 6.064719411894221 4.94464129960752
Ti 5.406516432953579 7.289010562478626 7.129117853460583
Ti 6.073728321015121 3.2076692619635407 5.110518125034451
Ti 3.5048682831794755 8.68234917044538 8.14131218308364
Ti 2.6181473533160537 4.342393916935927 7.538936164548366
Ti 5.585155713409414 8.326529050790668 3.272907003327283
Ti 5.591521517030932 5.4038036999906165 2.9655657058123857
Ti 3.7571963929237047 4.488428896885801 5.031567557838364
Ti 2.7844909166294047 6.6560115913077 6.52711837335307
Ti 4.035534009097349 9.023112284032786 5.525375689905796
Ti 3.6030289864450578 6.892413119830839 4.081833795899698
