36
Energy = -232.79190163 eV
Ti 11.333143722782411 6.2033042942402625 3.8562969045557463
Ti 10.1494238453457 4.9707450607081105 5.599983836198108
Ti 8.821476656722798 3.4194350738296433 7.6444704269873505
Ti 7.792910474227513 2.0360325686150857 9.35928356734005
Ti 8.784059241334367 5.722715442264883 3.2518519104355175
Ti 7.524137734774911 4.084524379545931 5.247883462939337
Ti 6.1561174511862475 2.646683956458327 7.323935491073419
Ti 6.082931888654862 5.481792640182173 3.420681578577671
Ti 4.815020878742883 4.003238262533311 5.374044808336217
Ti 3.54421021653312 5.4114800358031045 3.6723640422168793
Ti 10.688215573526131 7.6948205072436755 5.979525157095926
Ti 8.052928969928365 4.618455588495404 10.044026342759453
Ti 9.473588141037304 6.1161828528282305 8.048003769725401
Ti 9.745140204551573 8.136131200846123 3.580330512807966
Ti 7.2062822739050905 8.078719880517509 3.4368795451587055
Ti 5.741344386515733 3.44447502927401 9.771726413029779
Ti 8.111654503531872 6.8343648801964365 5.658642317971093
Ti 6.7840751648742295 5.286358941067906 7.7083026563940455
Ti 9.297386208397006 8.828335517490677 8.033269666271929
Ti 5.288496948066035 6.643619629326123 5.730176740534853
Ti 8.566044798847296 9.484709589259388 5.389940616351056
Ti 4.204209143526673 4.5659448571358325 8.077498051653283
Ti 8.029530302861463 7.346139611360582 9.988470551366918
Ti 4.486433089837693 7.828429941965774 3.403828526845436
Ti 6.704305177251961 8.111657632455954 7.758133518728939
Ti 5.561086471136869 5.974628045735954 10.021387776902907
Ti 2.724169724950654 5.774923559818981 6.12456283005952
Ti 5.848552087879874 9.399348975376332 5.3798329284611235
Ti 1.9478264113996937 7.322792799257071 4.089094860558888
Ti 4.025678030778256 7.269735111393581 8.193430050152365
Ti 7.847835344596624 9.883372990486201 9.847255970474484
Ti 7.303153145331719 10.758057725147543 7.446595677169404
Ti 3.232370073372916 8.493104162032308 5.806103188208369
Ti 5.539319577975141 8.698767728122718 10.160663572075803
Ti 4.653530268508458 9.969577481527365 7.839704322731537
Ti 5.771784609719234 11.290810865845016 9.568620638458452
