34
Energy = -222.59253508 eV
Ti 10.421226757737966 6.504046282436006 7.817873235140506
Ti 9.617555730453525 7.700766536948863 5.805405217747107
Ti 9.659942772814283 3.892128455840665 8.101055859812112
Ti 9.312344819796715 5.995687043370782 9.873122448034488
Ti 8.929257531515935 9.648741809545816 4.1878682505934925
Ti 8.876233044998177 1.7173899560443826 8.805638259727868
Ti 9.505224736032806 5.1758135902690485 5.396400699782919
Ti 8.560283116325463 7.033504758576841 3.5254653833605065
Ti 8.09904469317093 3.178479212203508 6.006618196977474
Ti 7.590559912091821 3.9918991648894373 10.054460430846024
Ti 7.29906032757058 4.291717888536198 3.6639984629123226
Ti 8.158488597862524 8.200444190243733 8.338969746015819
Ti 8.906523989608191 10.119729911837759 6.773612789007811
Ti 6.1460294321001525 9.08991586235836 9.993599190088457
Ti 7.725836719155757 5.564367349663949 7.763809475598126
Ti 6.986151567467682 8.525630261827883 5.754050134985525
Ti 6.779262481491616 2.9050186009947985 8.094775909090412
Ti 6.434273075511903 9.19986270202876 3.2796604069374244
Ti 6.254618780833478 6.569831343084206 2.7153142346573014
Ti 6.66302819741492 5.957139952024474 5.379438603573071
Ti 5.455005052910564 7.554107898729233 7.881323265741292
Ti 5.546168571595319 3.5406413775842105 5.775215594488768
Ti 5.029105157373543 5.031735701937718 8.658979280595519
Ti 6.705239430068462 6.545309658459892 10.198768064001758
Ti 7.070967170269373 11.097530459596197 5.159062225107619
Ti 6.2415346736474335 10.357433684603464 7.650942811515591
Ti 3.7872250319837413 9.450272181825786 8.772430980259935
Ti 4.7152034627590025 4.98464013059137 3.818441189305155
Ti 4.801924948381756 10.164169483849054 5.245811019443012
Ti 4.250305757137952 7.331181502832821 10.318409326498859
Ti 4.38160771850721 7.656391189255949 4.220901572766129
Ti 3.294103560131125 8.38951811449632 6.38020578740646
Ti 3.825409022036473 5.7386867016116225 6.206258692388583
Ti 2.891581109216539 6.9321817283214076 8.38832963173464
