34
Energy = -218.64777966 eV
Ti 9.434775805253913 2.926701650951501 9.578604816363866
Ti 9.60619147099052 5.502660313991443 9.151098978241476
Ti 7.795524868951546 4.358317134995305 10.686906973654693
Ti 9.348228399539583 3.8558425551951703 7.077288200028501
Ti 7.12809646106703 3.2356966374148186 8.391894224587007
Ti 9.402737424552287 6.428640436049938 6.484215291697109
Ti 8.87222594098718 8.127462335998347 8.63790703974369
Ti 7.4817273561582756 6.929761316614491 10.591872309071885
Ti 9.109337929612245 5.072326718440066 4.226487330294342
Ti 7.063166874151493 6.02698189276158 8.07759355012293
Ti 8.074574080797005 9.537796512739202 10.670907762283141
Ti 5.396922697485495 5.00120747078656 9.950734615990962
Ti 7.101042894793953 4.324571532793948 5.769526088112861
Ti 9.884559574516349 7.610572326189789 4.160376488814938
Ti 10.072606415547178 9.103545768334683 6.2119014637488075
Ti 4.81682105338172 4.43802415553473 7.399955058168798
Ti 7.443513111578155 8.523079803796215 6.34404657179339
Ti 4.634029953357546 4.099242405570745 4.579872346508781
Ti 5.2501896609518415 6.506903336952364 5.666835662543632
Ti 6.319321466565674 8.714961110902923 8.918667210236801
Ti 8.051646322381796 10.606360442766047 8.17391026451764
Ti 8.830469964281685 11.207576947356884 5.8191641868230475
Ti 4.285084610222207 6.845972123891088 8.317408440039173
Ti 2.877255749168493 4.768845581973778 9.050853572037367
Ti 8.201312252648957 9.71978889790236 4.018308550755538
Ti 2.807142924633735 5.635987001215315 3.9915879183756027
Ti 7.3918691297605 7.075586458884376 3.8621341051796367
Ti 6.669818646959634 4.732680137941556 3.1787838259998358
Ti 4.646475392175499 9.081837462792477 6.761701155898375
Ti 6.381375151454381 10.989033074128631 5.9550828251426235
Ti 2.670375763999881 5.727678761386354 6.518423035685105
Ti 4.790465968130868 6.668397184541949 2.9721239086500155
Ti 5.448814537099675 9.035921954217125 4.359429805456601
Ti 3.089634327682336 7.950132655205006 4.845180749343782
