30
Energy = -196.04523086 eV
Ti 5.6859843191347945 5.394485437412908 2.4316624782444656
Ti 7.367665754597337 7.483582149328834 2.044622504602071
Ti 5.772648975865718 9.711736416956319 2.7859270374036478
Ti 8.12626162757457 5.16945030119248 3.696307147480459
Ti 4.607983887053993 7.766275296449878 2.0474568888335902
Ti 4.999171621923481 4.4825940342269766 4.817409209301626
Ti 8.076763695222768 9.446061590685662 3.797133686730273
Ti 6.01984425536761 7.512077047515286 4.324835325934964
Ti 6.80781292630559 3.110381389670505 4.079228713050657
Ti 6.083452297525359 10.107067856268 5.279773132312318
Ti 3.107574112356749 3.9153010253859484 6.254995660512969
Ti 8.990773671513354 7.270572695713949 4.2901172642571614
Ti 3.8087423033199626 8.869507253835566 4.451463473036015
Ti 5.257576032344259 2.202371140411914 6.353394201293742
Ti 7.765021051057535 3.2294044615395663 6.422414730058749
Ti 3.507646306577833 6.296160405293169 3.741476801954254
Ti 8.0380338761171 8.584642226691935 6.376160604599147
Ti 9.295923998230286 6.007447155293909 6.541235119999735
Ti 6.919899796801957 5.9046107933533785 6.155436312983905
Ti 3.879666033234917 6.581800533260493 6.401279950624386
Ti 5.378656247987189 4.585986629902439 7.782443896381458
Ti 6.390889224844513 2.556291780579045 8.931947275107323
Ti 3.6740230946547356 2.640863862723682 8.431212527547249
Ti 8.299936157309205 4.488267467242913 8.410161995898896
Ti 5.543569630002213 8.305714282297275 7.088099094473931
Ti 2.8192935111303985 5.173013402641824 8.480219259041837
Ti 7.486416507207562 7.0150565356245655 8.60539434310017
Ti 4.843427881065725 6.722160152422043 9.310833041121375
Ti 4.465706497546327 4.211552601086418 10.241536995569342
Ti 6.75179151471058 5.027720883577189 10.197978137127446
