39
Energy = -258.82635657 eV
Ti 2.4359772246289175 8.050319197337307 3.440688392470569
Ti 2.3823372598796695 5.668457535056759 4.66115826690275
Ti 3.719373930566962 6.102055554606845 2.301224486977292
Ti 4.644485665114393 8.55324928834745 2.270641189857033
Ti 2.2513055837979206 8.118006562001918 6.073397684127262
Ti 1.9786385061462406 5.7351481636546096 7.313804893334922
Ti 4.16624137121819 9.747958700041654 4.683966278662187
Ti 4.693691564972988 7.138229543516367 4.486612374916308
Ti 3.652566678475956 4.113197404479679 6.350510015639555
Ti 6.411419504115174 6.537730264263622 2.5281590621576706
Ti 4.966029118816913 4.507784471979928 4.023174930547395
Ti 2.772442253137882 7.6409862925007115 8.71576681602745
Ti 4.512068243580207 6.737145909282218 6.974039375066729
Ti 6.740815484418234 9.210970418270046 3.684678713609745
Ti 4.242573730777993 9.473555557532368 7.437718043319412
Ti 4.330732735710596 5.259541733312468 8.931913246001676
Ti 7.978333651060948 3.3079507585286887 5.151491255832943
Ti 7.296040289440284 5.815338791803662 4.892295501086406
Ti 6.071057017871841 4.259114404648205 6.6481404096134105
Ti 8.865714842611581 7.740055524696949 3.8747202184488603
Ti 9.930584662955528 5.087513602104547 4.4804604163785084
Ti 8.300960135334138 2.7127015530715273 7.9750828279472215
Ti 8.922932297291979 5.104550200571487 6.963405165723594
Ti 10.343035111295475 3.0113441567244212 6.185489944365388
Ti 6.263680355139505 3.561157102557414 9.274495241568845
Ti 7.059595896056899 6.112468011862349 8.480901286475921
Ti 6.2502419982342 10.555053931487647 6.005727730108956
Ti 6.939984796795256 7.9800130173098704 6.248850574254467
Ti 5.228301029609962 7.777794590164909 9.526588367161711
Ti 10.065625852273921 7.426695655602323 6.0971205721931625
Ti 10.650683734382953 3.8111285134620743 8.579967125032544
Ti 8.663890153551582 9.75291188874168 5.6600547002968735
Ti 6.275176972759194 5.56496560592657 10.899864129007016
Ti 11.5513423297222 5.275552054299503 6.650972156522565
Ti 8.636240660869465 4.519089238339762 10.101042149403565
Ti 10.334965698082009 6.3854446183407285 8.957131045763212
Ti 6.861338313494076 9.43301259287678 8.40189072422764
Ti 8.151470204540471 7.3616146550522314 10.453831343307897
Ti 9.03037513218373 8.422462926558298 8.185293336575489
