32
Energy = -207.83692117 eV
Ti 5.161997744787109 10.673968648056727 7.47351848227845
Ti 7.044096304150337 8.14789826345217 10.818396175924343
Ti 10.392903381846175 4.113881196266342 10.433898145772185
Ti 5.887340958200658 4.033575306062814 8.14802545930963
Ti 8.849675946350978 10.182710885866575 5.23861095622399
Ti 9.175341575558429 6.506316720079799 10.907478144209628
Ti 10.81902112967227 3.820049240579779 7.8447102510400315
Ti 6.801070545840805 6.008741721177832 6.654183945063992
Ti 2.9450812359306933 6.983022062995211 4.785072409563145
Ti 9.578837052280457 5.7677247045228 6.357966996036127
Ti 7.962523088987901 3.5934701219359337 6.36518570789448
Ti 5.5610285422986045 6.9243030899755 4.649161956988051
Ti 5.175195838447497 9.012852591113933 9.254023478188339
Ti 7.953565870446976 7.057536314342059 8.672076230537467
Ti 7.268929823145309 9.045062494660588 7.161282333463801
Ti 8.258416669089723 7.739301966169827 4.805538330672468
Ti 4.076042695692903 5.543179218419014 6.887636454571393
Ti 4.506786150630035 8.146751763783595 6.774546379588386
Ti 9.485054334071902 8.92578929937917 9.64097227148369
Ti 10.688044931024232 6.330640440566133 8.867717474466048
Ti 7.279219327944685 10.659874036215639 9.311977694980754
Ti 7.727132639333226 5.2365414999951 4.2778922646880755
Ti 9.464860207255846 10.652731153276434 7.731535994541475
Ti 6.914534244151281 5.326199522460529 10.580773529673667
Ti 7.356386648192142 11.665377542797131 6.746624382732479
Ti 5.156805124395882 6.524184951331474 9.18212417879519
Ti 6.142721448978946 9.80884430704441 4.941668574578224
Ti 6.364949506184892 8.26575613983407 2.7421909897686705
Ti 5.551257453262952 4.15608012321471 5.332375065990392
Ti 10.071130236118627 8.33183266486419 6.820659139282104
Ti 8.61404687327289 4.458416044086597 8.733470391520665
Ti 3.8286092308295547 8.935511186373581 4.196981784441217
