33
Energy = -215.01266467 eV
Ti 11.432723021760456 7.261433121299987 6.9799387692108645
Ti 10.762461893312283 7.4969734287142655 9.422861744251303
Ti 10.696826278361248 9.565668761143728 7.774937508547942
Ti 10.210614857057347 5.927816092887935 5.254064529751729
Ti 9.033437306811884 9.359924684999426 9.711937046202674
Ti 9.934718525940427 5.290442918906452 8.05529211139233
Ti 8.998182819331054 3.7601652861417425 6.092699170617588
Ti 9.781221101263586 8.785958390328702 5.379741053059924
Ti 8.09373984722987 4.634983939511259 3.6747380755412817
Ti 8.8039433019969 7.65712432284119 7.593607711199511
Ti 8.245672977028319 6.7056578451124045 10.02926543255492
Ti 8.177721064260627 10.222495127081558 7.2512680015729485
Ti 7.511721454644316 6.065016623599336 5.678225147800854
Ti 6.6019056859613485 9.166925161219753 9.352088404068382
Ti 6.746335624370174 3.291288357153777 5.676869702453354
Ti 8.60367979084913 7.254035959508391 3.5442198534448464
Ti 5.64897692586988 6.9234419832746195 10.232071075314098
Ti 7.1127287124094885 4.875481067904511 8.060438984962712
Ti 5.224371347983275 3.1497192765457096 8.23666148800181
Ti 6.010470664935045 6.803588417949238 3.546843063075829
Ti 6.358889431120181 4.41407544846867 10.355123836148996
Ti 7.156079624937346 8.934747139427602 5.048080827999593
Ti 5.463605274863371 4.297387242781665 3.845250733206382
Ti 5.4067986836254045 9.90261366313077 7.092938367624779
Ti 6.072737534576977 7.388060403976499 7.428737786875275
Ti 4.7926481387136475 5.137395315906392 6.2764381799204605
Ti 3.898823299308037 8.173909879813976 8.45643210318443
Ti 4.2896244687667355 5.366543560456424 8.97335314988458
Ti 4.487210346498949 8.135266494897326 5.3689569620438915
Ti 3.302451033554438 5.895535755818075 4.231558265986181
Ti 2.511570039158684 9.387100052885595 6.441124007001897
Ti 2.5779761757967665 6.742723102878529 6.621666784507527
Ti 2.0725278114367724 8.057223608610707 4.433214534034431
