39
Energy = -259.17225455 eV
Ti 8.89686388883383 2.728071162518023 5.737781645969213
Ti 10.372531305266227 5.019274884011703 7.465196870851123
Ti 9.515993265789435 5.539962189786289 4.126500096881575
Ti 7.608661442367034 3.9136471747846557 3.501375377359358
Ti 10.594783211491022 7.349159011657914 8.695624269090663
Ti 9.507195494197035 5.302439467368721 10.238699540670417
Ti 8.751331834256344 3.354394557400919 8.45678698538116
Ti 8.936411628125832 8.113272996077084 3.4521305775899322
Ti 9.59353535603201 7.467805119270264 6.200598309110372
Ti 7.120028278622296 6.188997074301363 2.3894785386090205
Ti 6.1754475901018315 2.7099743442515862 4.971076900780429
Ti 7.982779891757212 4.74854802321687 6.214076902794328
Ti 8.147408349002033 6.384537422128628 8.484668029752093
Ti 8.951714910801611 7.961836113345334 10.509031928759615
Ti 7.37663465082103 6.906128113336721 4.9352851567527205
Ti 8.589930128722216 9.212523705234856 8.159334105983135
Ti 5.340805706836578 5.407678013153475 4.750013624261817
Ti 6.273460274500703 8.767022988085508 3.143545136187982
Ti 7.758339926059296 9.614944348360087 5.461986936306868
Ti 4.856623325579252 4.195528314986104 2.908424566162738
Ti 4.540174295658756 6.967587755240814 2.623078459953844
Ti 5.462588027210744 10.551145339511137 4.845824376272318
Ti 7.085906847602808 6.37864656125056 11.0443331381967
Ti 6.348663311346035 2.5404456890347826 7.52785526011169
Ti 6.42039651134349 7.799324926957264 7.285854612399721
Ti 5.720019575757412 5.177518186454501 7.337771077978831
Ti 4.639103216468458 7.9962736932031735 5.530615076031798
Ti 5.808280040950243 10.277494822177111 7.463490493422077
Ti 6.714929390437405 4.116968892007566 9.789732703413167
Ti 3.9760832810611135 3.5289905954847933 6.102049014734757
Ti 6.474866788508502 8.660464675870497 9.786012295160521
Ti 2.7962459090428946 6.308140896025455 4.326250103164609
Ti 3.31322675286135 9.130702125324216 3.783339369913154
Ti 3.4197040874023723 10.28760414289824 6.2683389696507925
Ti 4.945973930734789 6.317159894965011 9.674815179704831
Ti 4.185056414389125 3.835701056915079 8.767589688424351
Ti 3.2512986071583905 5.9995755660011705 7.120588878935274
Ti 3.8529402729015967 8.460246928903032 8.22387949144383
Ti 2.0838782487114673 8.170079197209413 6.086782280543583
