39
Energy = -256.01074826 eV
Ti 7.256988705760844 8.960315887384658 9.796150933838499
Ti 7.172167863848074 8.576916192183916 12.437313936941788
Ti 8.832665022355643 7.0495509197586 10.590024981922578
Ti 10.075109803465354 5.724022333998249 8.833850393379674
Ti 9.45214891769329 8.235244919174864 7.997828601005863
Ti 9.774798207829642 5.8697440860717744 6.307874502283616
Ti 6.5152040123701624 9.199357147532137 7.005810427740297
Ti 5.160011100936478 9.019653730315564 11.550898698603982
Ti 10.81512681322025 8.305531527629224 5.821542733073888
Ti 4.860524141434117 8.105361521092297 8.99581848903182
Ti 8.045147689868113 4.552201003854363 10.024683452299545
Ti 6.190319138701435 6.649391073033602 10.810376948488283
Ti 8.893809339713401 10.284417266323308 6.282632180301689
Ti 9.081738176389209 3.7961057246183523 4.908436533384813
Ti 9.114720582835313 3.5588693254840478 7.809582539506762
Ti 9.71407418273363 9.507173035635873 3.869678267553124
Ti 7.432439185626608 6.584840747949288 8.359082560576137
Ti 5.774842261727842 11.414563914573911 6.246275236583259
Ti 5.2831971907472415 10.642599253520217 8.815344716751417
Ti 4.867073568868315 5.335143124571026 8.397223880711628
Ti 6.478595305757883 2.9782871242502647 8.462526234135598
Ti 8.208616697917664 7.818574188042744 5.349315581893547
Ti 3.6768314308252754 9.60489200251264 6.886958603286033
Ti 7.160067192802584 10.109778004812545 4.236693223812907
Ti 7.768849869559062 2.0293223435497527 6.33144340118944
Ti 10.080844131895567 6.828708319364265 3.7374855476978897
Ti 7.134630226938388 4.810653104916214 6.374596636318321
Ti 5.191848009281319 6.974620669145585 6.233151027723981
Ti 4.699083060851909 9.7036491460084 4.6637597129222454
Ti 8.117077557212427 8.019562466136055 2.599236068224904
Ti 2.804567615618721 7.134692206943344 7.6139222646992994
Ti 3.065838721432807 5.290820230110925 6.15490208337486
Ti 7.517486354743999 5.6496885252613644 3.6705648206528694
Ti 4.860071809435317 3.516391877083403 6.361860511075772
Ti 5.5460533340872775 1.2270872366190821 6.344567456633612
Ti 5.691869751114184 7.698856164441697 3.4969406104776395
Ti 6.581197693377526 3.1299848915465867 4.295557438907258
Ti 4.734703515346048 5.269704395140874 4.1532625755394355
Ti 3.118852163842273 7.5795969608204485 4.923648779710182
