32
Energy = -210.19417806 eV
Ti 6.56199835309442 11.303252193979867 12.797442619117016
Ti 9.578369351223781 11.242920991819727 8.483187604585073
Ti 11.032682897858974 9.599853937849922 6.933234555087653
Ti 7.358163983229494 12.626224100970456 8.832088313068443
Ti 12.003899235813089 10.1390357458167 9.27605844071209
Ti 11.28007178628976 5.380090793642566 8.055850441169708
Ti 8.557748343072493 12.204175216010517 11.260725303186547
Ti 10.187399246518133 7.715248815087809 8.960612658158114
Ti 7.054191090298869 10.248672374567358 10.209851658684254
Ti 6.537011549598541 11.261500380771214 6.918754881056195
Ti 11.281588452076635 7.13011661225269 6.371858534016137
Ti 5.272288352783854 8.801234790010291 7.329865142076691
Ti 7.7722731132025995 7.611238966848907 10.723621941909776
Ti 8.575435224331123 9.742169194091185 12.544617124038902
Ti 7.957314052041738 9.017399254897882 7.74506236792194
Ti 9.158740658518333 8.135751188202285 5.38878666698477
Ti 9.005995087823962 10.863967733878638 5.930561938704066
Ti 11.754596785567035 5.916698361400688 10.353249621493791
Ti 5.032155566363477 8.389421694387304 9.934500512021078
Ti 9.909645056412195 7.111662512798251 11.702229388794345
Ti 4.822796613596432 10.99816595354734 8.891077471986042
Ti 12.80035693692437 7.646866941672894 8.492912999707885
Ti 12.111691167267567 8.33831497149862 11.022580759349786
Ti 6.734382106869922 6.614214430787539 8.534413936442377
Ti 6.826608022936647 7.083745892468098 6.0895910760454655
Ti 9.12930773058546 5.380985360200404 9.703676650668157
Ti 4.570097191020274 10.474042664677492 11.366815769738972
Ti 5.921196269387635 12.664302147909957 10.765795278659704
Ti 8.9645521945036 5.933202445966994 7.011549655078085
Ti 9.822686491073467 9.778849777612454 10.582392426886196
Ti 6.897996601964127 9.488928473084206 5.2833435449433885
Ti 6.160438749528366 8.72278557637639 12.417299429683656
