39
Energy = -258.37776432 eV
Ti 9.38724968893986 10.56766932328757 4.526240008198689
Ti 7.225021890239936 11.666350571597864 5.571086882382022
Ti 9.713874385281818 11.432135702462539 7.0317800471785095
Ti 7.270530561249734 9.63215222628739 3.7357283782512045
Ti 7.278642351267158 11.276901440320184 8.370628128277339
Ti 11.14832183399849 9.540556780791505 5.7761695869184875
Ti 5.22948441132153 9.651517754887658 5.194026589691334
Ti 7.802072333008068 9.405364733916397 6.3486369074892615
Ti 9.322735637382042 10.798147702049278 9.575997855550137
Ti 11.670986816392366 9.617893228514335 8.454817448235737
Ti 5.988342717415031 7.365234426020167 4.0244714904946095
Ti 9.720285725377376 8.631362677162 7.9073974304116526
Ti 9.235268809862381 7.674619300963417 4.722187232098812
Ti 3.922232943367151 7.49176314953438 5.6850687268397735
Ti 7.163796054434411 9.997995464066703 10.806203765475544
Ti 5.441762124656653 9.496863093212092 7.843443928740463
Ti 11.679077089524851 7.230154042289582 6.631728740728212
Ti 7.480752501734137 8.185414024358982 9.02923144356881
Ti 6.7177682622297255 7.067009913029614 6.430145678436313
Ti 9.71802221129731 8.660688318587788 10.78016980245006
Ti 2.775828236557197 5.955824071275583 7.299232697021594
Ti 10.531815517257558 5.3829816185777775 4.957253147975296
Ti 3.0680624103173972 8.511810096238625 8.050937068856628
Ti 11.477378756721677 4.636961577928986 7.232370707789257
Ti 4.734750395357795 8.550073534136418 10.3477778045917
Ti 9.148875127335335 6.030362892037614 7.232696400139491
Ti 7.819826273207576 5.238236879549565 4.943982277307974
Ti 5.182710993080635 6.713283294637014 8.339950918471272
Ti 9.19158370778541 6.2188543463437265 10.515747334409692
Ti 11.22894653229847 6.613581107511685 9.124410851961677
Ti 7.071843701710486 7.448143307990443 11.471671091930485
Ti 4.884433790168545 5.080345335488721 5.943682386713977
Ti 2.941847437305421 6.526448481441083 9.749871529546034
Ti 9.575281277498986 4.040602109519038 8.941100944781818
Ti 9.358053217554424 3.5173178297609535 6.322927693642664
Ti 7.122057004358637 5.154841481429579 9.68699254506385
Ti 6.976260711856035 4.27963813851575 7.310378585754307
Ti 4.352982057802096 4.358133142184669 8.772792582401939
Ti 4.976450210648017 5.8568534033152115 10.952519004371927
