33
Energy = -218.25090085 eV
Ti 7.315663013796275 10.394062977964762 7.506734170769042
Ti 8.090332269478441 8.70315525476865 9.439780581140978
Ti 8.032463222090152 9.581690372580251 5.038081432219336
Ti 5.512052558198815 9.042467267379456 8.718701850540231
Ti 9.581799299710365 9.480771896809227 7.303035931297078
Ti 5.454162818111936 9.795795190331015 5.790308771225974
Ti 7.626450427363976 7.683838732620267 7.149197398571703
Ti 3.696155780932097 8.403053523617274 4.446261884863246
Ti 3.2493846503306556 8.360050026707428 6.900842970855628
Ti 6.006959458871557 8.716748452654448 3.185521850869063
Ti 6.055531311922257 6.696103862261752 9.948658911641706
Ti 9.8599065711257 7.501382374195782 5.568688057414117
Ti 3.6445095035890245 7.5318580872502565 9.416286574922038
Ti 8.34405357533182 5.556067602382693 9.103696569954211
Ti 6.1091738286844315 7.1937488591697 5.014975998099094
Ti 10.028455839450029 7.264327321076174 8.363923419005681
Ti 8.408749415152803 7.550268255421994 3.457273530994418
Ti 3.917876544163909 5.025495044395703 9.542122662153275
Ti 2.3475635293350825 6.034243622672083 7.805800969679095
Ti 5.010799649269592 6.325295588833232 7.410018234214567
Ti 9.96160730861224 5.070619817601049 6.889978651765308
Ti 4.354577427866084 6.465893476012006 3.0650167136311004
Ti 7.288055017603288 4.972757046954578 6.253556827616066
Ti 3.068582599290445 5.973058125510211 5.367335267394193
Ti 9.133696712654501 5.1648238750803195 4.254135095436223
Ti 8.424441677933965 3.23501274847586 8.05775440667959
Ti 6.08870188326645 4.019927214287328 8.83138049779948
Ti 6.770588182238549 5.683008931291613 2.871324039075024
Ti 3.8970908202771466 3.932703450476567 7.057427193861813
Ti 4.898628709631212 4.273696429251446 4.588513749687061
Ti 8.897707843967023 2.9281628353324685 5.67545657933757
Ti 7.126852686177897 3.3596464088430666 3.997405284439433
Ti 6.29742586357168 2.580265327790297 6.48080392284546
