31
Energy = -202.58536169 eV
Ti 8.379603312469724 4.431667359117377 6.001069139999018
Ti 6.754918854507061 5.079974601084109 10.300895175342445
Ti 6.130422883353474 6.1772174037646925 5.334965866299087
Ti 10.168537144360602 6.993489098260674 6.316883809426437
Ti 10.321742565659976 4.840455256069092 7.855067082645495
Ti 5.91875048566178 3.47513129699018 5.595567034871092
Ti 6.980838175234538 4.761569618819962 3.3251711467230978
Ti 5.183185457232213 6.878947933256676 2.8354037587947696
Ti 8.071402147430884 6.09180452580187 8.229836611155696
Ti 3.660181467148426 7.2303068913425115 4.869111169110806
Ti 5.993314019789721 9.02157628495598 4.3451412489871934
Ti 3.756586019264839 4.827274148409797 6.132486902033283
Ti 4.367973287037521 4.723771207815528 3.817318758140634
Ti 4.093655619336419 6.917282275222962 7.440946044916408
Ti 7.471511378725171 7.3748871023967615 2.9676957701571443
Ti 4.754938427695221 9.31350070463736 6.7037311792041
Ti 3.772434141487233 9.161875817026079 9.320605432940193
Ti 7.384684355852438 10.483799874029323 6.465593566875235
Ti 8.755504978072215 8.871314923615941 4.705389872472279
Ti 9.039144285531524 6.176019391663962 4.314323870521926
Ti 5.836843548496131 10.413061335891301 8.639571067623253
Ti 7.318078874546736 8.079948586180576 6.797218689631666
Ti 8.077012069274495 3.5066421520286415 8.551311190292095
Ti 5.756405000472115 7.506420030925591 9.168163650514261
Ti 5.697522410835092 4.749817674553676 7.894476640362582
Ti 9.721920965269698 9.371620803085571 7.10154027428622
Ti 8.118404829299159 9.435457816074655 9.199726556484787
Ti 8.059143803069444 7.284462444335435 10.695732740994735
Ti 5.88228872283618 9.279021366345994 10.890726542637884
Ti 10.184121611432747 7.45253127811458 8.952048878351027
Ti 9.401099404386393 5.080435608967965 10.255919270623236
