34
Energy = -224.78020323 eV
Ti 10.534686312497627 5.35428245427047 5.866087715203637
Ti 9.290605730496717 4.500782878794171 8.045371563462949
Ti 10.02409001421039 7.867943155508872 4.949118271647831
Ti 9.274751305628643 10.252436564952172 6.696719706917293
Ti 10.128213075922499 7.474600990854588 7.465088927739012
Ti 8.406645062983625 3.7237160929750033 5.593109868424486
Ti 9.173015252689224 5.534376762074189 3.7813556961055235
Ti 8.833176876651123 10.00617248692915 4.01874034372555
Ti 9.526038164254597 6.503162219339728 9.63906590060694
Ti 6.878661785427579 3.450386885140895 7.850138346818214
Ti 8.057077891307419 6.2103289354857205 6.183523760664129
Ti 7.665270277011728 4.646094029709945 10.400476033498546
Ti 7.841061632623735 7.674527239760866 3.307274280227885
Ti 8.215173896305906 8.898376334232529 8.833979867274655
Ti 7.233131713985786 11.432408982228743 5.30506943965154
Ti 6.921545225133636 6.44958298347283 8.772298835634924
Ti 7.791409744326638 7.326574717593678 11.110465429221447
Ti 7.357469818517022 8.750717211198431 5.897887085130759
Ti 6.263905015696605 9.783045901909945 3.557831927714029
Ti 5.5394717455956615 6.179752683295388 11.106282115764417
Ti 5.798088023397066 8.60491304523189 10.050272988239348
Ti 5.337513635099015 5.661143663642354 6.64871529677669
Ti 6.536310691121766 5.3373235311780665 3.9157936003977785
Ti 5.8469794165275895 3.3190003882939454 5.1928607290590945
Ti 5.2139500103216925 8.495517968404723 7.54654590470791
Ti 4.9721788419806305 4.379448386168537 9.253016727614856
Ti 3.958490247564079 6.8476416722682485 9.006682198006581
Ti 6.73907241412936 10.774758633701245 7.658935666178452
Ti 4.967361158430992 10.11678983255822 5.720814475278807
Ti 3.1644101826231044 7.241147329105479 6.303376859200195
Ti 5.169393167197331 7.542683528958661 4.5618903583499675
Ti 2.834430240771252 4.9756616163754925 7.491797464202654
Ti 3.6755850780738304 4.955347948612929 4.895967029502228
Ti 4.265196397241216 3.1568643960101217 6.871726655358801
