37
Energy = -243.37361312 eV
Ti 7.1379333506238885 5.32271470553035 1.644788479478515
Ti 8.351463925960392 7.606258209096643 2.7740708439488926
Ti 7.672094136668807 5.344088332539366 3.978028883829671
Ti 5.899976407069286 7.25872713633495 2.879999155604982
Ti 8.656824520534261 9.934355507300843 5.017663222907941
Ti 5.892331516782773 3.1594247369258905 4.398446228154031
Ti 4.874596261117963 4.937086171781123 3.085982177515784
Ti 9.999176961272651 7.727051882262369 4.943708618914932
Ti 7.227391040230176 7.643884074994718 5.308203276348648
Ti 9.115016424537583 5.729074835003985 6.450703256840293
Ti 5.7535186747001985 5.430579467061589 5.724833682610369
Ti 3.723943820054366 6.875307789849516 4.357172084439161
Ti 5.236352246123433 2.9140076839604623 6.902083718613107
Ti 10.938916730691012 9.687259695413307 6.4583372937515025
Ti 9.143108363481712 11.024724095884096 7.50698939237277
Ti 7.6741537892925145 3.2492540938095837 6.520201726182885
Ti 3.5035715820778783 4.349767803512944 5.4676564502364675
Ti 3.7938956799675303 6.905545526912477 6.879486879282254
Ti 11.219903978324659 7.330449916024829 7.368765369729851
Ti 4.313226496493678 9.615018155160136 8.145233278493276
Ti 8.700391340488409 8.352972143162692 7.374829212133684
Ti 2.454065426033451 8.957910733996542 6.298270094673821
Ti 9.154262179254527 3.92426261034926 8.55922990715957
Ti 4.309186386890758 4.802676726655247 8.411279665426285
Ti 6.724250308305654 10.32972398321032 6.92382851775581
Ti 7.125942767237833 5.503824191002969 8.143885445739073
Ti 6.069250952105352 7.783098278624891 8.198253564820114
Ti 6.513912163879792 3.3186899405583827 9.215736905041693
Ti 10.409380009376004 9.2587418364282 9.094589692767675
Ti 4.919180722586843 8.986511283802551 5.49719359903689
Ti 3.5873895694344 7.311364682226231 9.367872783357885
Ti 9.58283463325335 6.52268595139208 9.181423824934136
Ti 5.3722662635412375 8.5670961314165 10.632885661399024
Ti 7.530186118844345 9.90713136232504 9.331344017293436
Ti 8.01514969200401 4.949208864699861 10.669771761975866
Ti 7.683934306262327 7.538109724163948 10.601292393358607
Ti 5.557901892899802 5.810847750523152 10.54656662126826
