32
Energy = -210.26194928 eV
Ti 8.574009368326786 10.306492744418978 8.612655440571181
Ti 9.371703655252947 7.982832305111664 10.436613756016852
Ti 6.049032487730541 10.548398679585166 7.532012988004649
Ti 7.05967030814368 6.860975170550404 11.11601214426612
Ti 6.293938491879062 8.613197796218982 9.258950192651996
Ti 4.714415029970403 6.406045094195752 10.466107541425568
Ti 10.190261133446512 9.925550133312097 6.415746000841577
Ti 8.979256042186725 5.345704241514051 10.777952582027243
Ti 3.5766553403268753 7.595332132621242 8.741286736942545
Ti 3.2324132956256273 6.524517051887413 6.468485849703192
Ti 4.770026399727661 8.54601859220571 6.473108396144166
Ti 6.182453162712686 10.157664557449891 4.90723407929615
Ti 6.483629376832164 4.486725517869973 10.004453228560806
Ti 10.55468748530975 8.49774221060889 8.307134486728021
Ti 8.101832463209227 11.291523468007268 6.106352593946597
Ti 8.271611519918327 6.733536395979158 8.493818239013965
Ti 4.005603386057589 4.796005007791931 8.37018305392215
Ti 7.804425257299268 8.678933325403081 6.63383910757328
Ti 10.6034201121766 5.938413353694924 8.7396169054471
Ti 8.714336738986635 4.021558486014832 8.622982902034355
Ti 10.237158972619337 7.38892248398674 5.877439641168894
Ti 5.806972469665092 6.337523503743454 8.033092017667572
Ti 8.819593045282533 9.249924747193665 4.264884456862129
Ti 4.242421432169593 7.192461178015701 4.159872843965366
Ti 8.589852516571977 6.406131479372918 3.793566984293404
Ti 4.713308302306551 4.7175191448270475 5.394961721727777
Ti 8.952725020442646 5.173727938521537 6.307479506894916
Ti 6.648146715214102 6.611201144643689 5.522582825385771
Ti 6.600320221181298 8.179796325493491 3.3284051906740837
Ti 6.560344740817872 3.8565449822017874 7.204120193460085
Ti 7.252980826499405 4.134953369252071 4.653153374691992
Ti 5.998101970360907 5.6993056103809 3.1320565627635912
