32
Energy = -210.64388078 eV
Ti 4.570607855289628 5.275768641960849 8.874103290422457
Ti 6.486977938273386 3.527486860068062 7.738953664927613
Ti 3.937482155075028 7.677103509341384 9.177114066920064
Ti 3.304698311229015 6.803868473845133 6.780268086035822
Ti 5.916584948842575 7.239247741128808 10.886699565434482
Ti 4.355406582437362 4.352836094391454 6.468334155324959
Ti 3.5125570780823923 9.360171382663152 7.439990560418988
Ti 6.655832913834165 4.611328570015086 10.222150725763099
Ti 6.896751493062248 6.827011418752126 8.713481785355553
Ti 4.077474238729117 8.80249374551296 4.899131053888056
Ti 6.842361908490484 5.7118132807440025 6.251026910128714
Ti 4.434198315613893 6.043368925223888 4.605527117773867
Ti 5.65646456120711 9.539508666525991 9.163704603107027
Ti 5.353672981025237 10.65438264794069 6.525623483381473
Ti 8.40041362275646 6.318850955019064 10.817318719436338
Ti 5.737191301306772 8.03271107705508 6.551939789532692
Ti 8.82947675895527 4.646176691221473 8.702059044325893
Ti 8.203552491427034 8.821269548507649 9.991835506286714
Ti 8.6055295885646 3.711384822617508 6.216610595236901
Ti 6.3606700257064475 6.899214522903715 3.765982391761146
Ti 7.688571366852883 10.153079916496292 7.619838128843273
Ti 6.357690442600734 3.9674286608272413 4.785482829135312
Ti 8.75162521101751 7.665487266405308 6.787667809681763
Ti 6.861727150903379 9.836365983374286 4.788590308830779
Ti 8.369882395314711 8.159103287276533 4.018692207052115
Ti 10.197033832797068 6.981827774293081 9.087882063434988
Ti 8.846409894620296 5.502530288559802 4.3273022931622585
Ti 10.436300322890142 5.548875007553465 6.62178242872255
Ti 10.056828339500738 9.570705199417043 8.315672196818204
Ti 9.79019508436508 9.804585685222376 5.679930052533434
Ti 10.61017486095621 7.45490135999909 4.720984830383613
Ti 11.420250884580632 8.024849710956504 6.976317375216304
