31
Energy = -204.4756689 eV
Ti 9.182090515246959 5.5053673346552 8.693833264611978
Ti 9.529516767773442 3.875416726408919 6.545791538176368
Ti 7.368645773225475 3.072445885362784 8.131777092634811
Ti 6.992811062975791 5.32276806386432 9.77114248245931
Ti 9.899644436931313 7.971166350474142 8.067685846111418
Ti 7.989612676422509 7.881457378381814 10.01236434281875
Ti 9.827011829362197 6.4695382147411635 6.062165340436292
Ti 7.472193203547846 2.8236954086481676 5.389880106748434
Ti 7.154968986827316 4.994124560479085 6.866782981658167
Ti 8.6156871784756 4.899534290654065 4.213977022744711
Ti 4.826031947137532 4.4679148118761205 8.639111108758172
Ti 7.219471117653957 7.485314123393697 7.6994646895952075
Ti 8.26861612584812 9.88658661272925 8.170873025956814
Ti 5.142027765868853 7.085085347925983 9.559416978926146
Ti 5.031718991719071 3.2199697613436866 6.310679256675671
Ti 6.011234833467777 9.506310025599685 9.076520905923259
Ti 2.9346728820250307 6.587388781397727 8.300522126778077
Ti 9.144872155574129 7.438367767808678 3.6939780453867685
Ti 6.872021206025062 7.234590654246437 5.029580658037982
Ti 4.810089256628828 6.249673399028185 6.348964663890566
Ti 2.8198033878502757 4.566884637189515 6.903136826390055
Ti 8.868351688289104 9.108083624052968 5.712120794629909
Ti 5.955989870154138 4.422063544430303 3.9277515117953343
Ti 4.1386115128870635 8.753148502647935 7.469312842940192
Ti 3.5085787474019696 4.695905666400381 4.4887170875674505
Ti 6.385590357152919 9.885619915381012 6.284152969718149
Ti 7.090050199086712 6.381391292975081 2.5428560783630085
Ti 2.548999010648086 6.969557687694628 5.628272890694215
Ti 6.888445766231377 9.001486308538071 3.537810319769196
Ti 4.431566939441178 8.857625608046694 4.925568054603324
Ti 4.573779139290825 6.884223044794049 3.498494476370152
