35
Energy = -232.00484114 eV
Ti 3.6662479885314956 8.137399278486589 7.470250392017559
Ti 8.01171311421868 10.413108020868757 7.871785555100784
Ti 6.907085594881293 9.57752472595901 9.994256581308937
Ti 9.555429216570465 6.40601060594833 4.094723994233487
Ti 4.906531067661153 2.9020370485122013 5.502633780035566
Ti 2.382654616766613 5.793565718209256 7.288370542666392
Ti 3.505353866636758 3.6913358641455467 7.455311310478077
Ti 6.532034285743051 7.433695294808505 5.026778388349762
Ti 4.7738903560968025 5.686575638390548 9.021660632198449
Ti 8.927964112768535 8.418310381408102 6.252429212821603
Ti 5.257664057062961 10.389686007229304 8.022406326135325
Ti 6.484518179247146 8.288362293548598 7.631248540570409
Ti 7.58206809274147 5.132910721801565 5.565972455672043
Ti 4.824835553032784 5.696125176475878 6.272275664466733
Ti 4.55826460166058 6.649731045460077 3.318684777964312
Ti 9.87768349661001 4.02260832599907 5.247213975509004
Ti 7.523028495541733 2.6419965489281365 5.156175413228545
Ti 4.540859599783786 9.20903904369689 5.356482144646202
Ti 7.062253990842341 4.284930623682974 10.01307268791175
Ti 8.752000918232897 3.787474981345633 7.758361557398248
Ti 6.177911172876173 3.37936333288438 7.675940949911777
Ti 3.0097303057113676 4.563444815104309 4.861216751416848
Ti 9.0179833063879 8.229092531830592 9.099548358071612
Ti 8.419432563832382 8.689241181565857 3.5682945022447563
Ti 7.059103142267111 6.97318241566474 10.553378766857431
Ti 8.362596381713658 4.178628738698944 3.1917769074107483
Ti 7.296187414490963 5.980712023215499 8.0937659751829
Ti 5.708829729991759 4.348135479818982 3.5560560148919733
Ti 4.771562599587211 8.279267832553833 9.749507460310566
Ti 9.821420486475986 6.102522039729473 6.981563345898315
Ti 7.271225343162483 6.477521302259921 2.583903297570175
Ti 5.9436044879325935 8.88432712904725 2.9935408745876644
Ti 2.815465422024234 7.1855196732370965 5.1716293890114535
Ti 9.263312425758135 5.650362595310115 9.688052043991073
Ti 6.936823567383971 10.023521118401117 5.419000984155995
