32
Energy = -210.73211251 eV
Ti 6.470493946075936 7.438246497852049 1.9652755291550943
Ti 6.158478133731719 9.54671845681544 3.3832539006545583
Ti 4.125636890831237 8.07410673398648 2.6347110126444444
Ti 8.436042789648923 7.980438134436616 3.7845831419064604
Ti 4.7945588719212955 5.404778843285703 2.837777536923513
Ti 7.618766473871126 5.588434760898543 2.8719772822285154
Ti 6.955271343678868 9.251887557364778 5.854112583403098
Ti 4.230908443360996 9.27507585719004 5.01085047535263
Ti 5.738049572423671 7.014719817209639 4.55920009447033
Ti 9.585100795720294 5.495503081451158 4.720247917312271
Ti 3.081557499842519 6.864483522316265 4.64281408254924
Ti 9.538163949378562 8.085461379676513 6.448896277286003
Ti 7.789485425482814 6.127857291393195 5.906267283908568
Ti 4.260359060175321 4.682164498925225 5.612349701158942
Ti 6.856974404101377 4.006128193217388 4.468758243989138
Ti 4.4558582486738505 7.539780186665105 6.9068375736208685
Ti 5.552679100706562 9.677564634491622 8.124164969636896
Ti 8.215096421176822 9.825770084080007 8.051544745022621
Ti 5.964903577849478 2.561864008009518 6.304448968489164
Ti 6.071498397602031 4.989946658080749 7.485870785831531
Ti 3.4837266424969693 5.616290302092461 8.177083122331156
Ti 9.936956642210367 5.723412347488634 7.438885363064353
Ti 8.480181559344912 3.5365133740094787 6.767734011242693
Ti 4.26742775422763 3.242696007112537 8.062321738021653
Ti 7.017710841567734 7.450283574353909 8.096815829930714
Ti 4.831905489802916 7.463747883223592 9.700319709163157
Ti 9.286121940589116 7.586831296348432 9.271620297899686
Ti 7.079648336954202 8.985363369056083 10.188851767945868
Ti 6.784088786684669 2.7633955025025654 8.750666678956682
Ti 5.379677832854426 4.769844143610959 10.00842640603391
Ti 8.34987037783725 4.851899897613101 9.242032409943155
Ti 7.192776622794261 6.568768278860079 10.711276733540627
