33
Energy = -213.74057845 eV
Ti 5.235930881836675 5.672104996311925 3.197259551472728
Ti 2.627576951942421 6.663827430416931 3.2096331758520567
Ti 4.537996120430749 8.131478937541747 2.984773751252014
Ti 7.900425204018014 5.086773421101111 3.708008301388403
Ti 7.182347353338679 7.644947857157306 3.1314680185125203
Ti 10.351463392205648 4.8407719044649555 4.429716955360016
Ti 9.75026446825404 7.064538096639645 3.6575273972268145
Ti 5.9902637145910145 4.346611045889621 5.584907342341173
Ti 3.5477066042027015 5.601889487568608 5.320000825024734
Ti 8.667095228331855 3.7459567709597925 6.025820636700824
Ti 3.403456760718783 8.247253452720635 5.337299776581351
Ti 5.9499833309513095 7.087614827268924 5.395077305229101
Ti 5.584636356293966 9.700676013998695 4.836305421913005
Ti 8.684357624861997 6.589725439872055 5.990940656737896
Ti 8.254871616111158 9.113207190899328 5.079278216435807
Ti 4.371954681908643 4.161222555849148 7.816030568692384
Ti 10.784485836739337 5.258335975632295 6.781338049462761
Ti 8.999274411608836 4.468620438493797 8.625485093410191
Ti 7.0697059863136715 8.338864241983167 7.536097687850126
Ti 7.00843599227642 10.902590415387737 6.53140360679093
Ti 6.794636831811117 2.9442141410729423 7.909998141660228
Ti 6.7689918711393116 5.655960070175981 7.8715063162535674
Ti 4.941046991015022 5.559902743163197 9.992229337378799
Ti 4.7274412790383025 9.719924500966497 7.462348054979113
Ti 4.297654286475948 6.923636539994834 7.634991728159023
Ti 4.837222327335707 2.7986245782253256 9.900591878256686
Ti 8.158295493198022 8.895309367009755 10.003438707623708
Ti 9.104602495305466 9.829604142811434 7.723516763186427
Ti 9.406238070415336 7.100262656460651 8.559839358707436
Ti 7.40708625520415 6.515593799744306 10.346792644351959
Ti 6.950227325049001 3.9122238410986316 10.28135033750498
Ti 6.77428366445565 10.630544487321087 8.958145636021753
Ti 5.481850156224719 8.402738245666793 9.74337722610076
