32
Energy = -209.65168242 eV
Ti 11.355990534824238 8.570225840650116 12.985053127797617
Ti 7.0983245723012445 7.719684377481307 11.985685912672448
Ti 9.819342659162624 9.43777708962915 8.69451463135265
Ti 9.011847331170625 9.880999639117595 12.628852728827226
Ti 9.857223272447834 7.246179605812048 6.757330549591818
Ti 9.772179366810903 8.032940775332284 11.00999074630867
Ti 8.651797153471705 5.587460906851734 11.495592809904629
Ti 11.139757655482356 6.060254800140591 12.117179936106073
Ti 5.808044505458186 7.048101799778993 5.383386274251809
Ti 5.5441588909086175 8.529241891319096 9.508999011171717
Ti 6.850351130036928 11.163657743745087 5.96641996967071
Ti 7.1978962906628 9.924156182951553 10.803002114926464
Ti 9.045367660655684 9.878829026110774 5.018024562742569
Ti 11.31933861532799 9.886755147116395 6.684448964748403
Ti 11.895518614429513 7.6024910773161505 8.097272315942114
Ti 8.295848711847004 7.280091364340231 4.6591464652859464
Ti 6.553365668053126 9.24226501620743 4.43019419563648
Ti 10.551475736044141 5.89649151898064 9.485203759117066
Ti 6.896525206656926 10.834792536769205 8.551317448408131
Ti 12.71686255168878 9.769979075915733 8.960540408201481
Ti 11.211348423906175 11.70489503586715 8.74678576305279
Ti 7.54127119853466 8.65608860263924 6.841432685552901
Ti 9.116686245165184 11.516126025166933 7.161268929400735
Ti 9.102191245127559 11.558756554830083 10.265685219396351
Ti 6.470321151289483 5.913460948289625 9.975057940100875
Ti 5.028733376318117 9.332194585964174 6.769788146872556
Ti 5.410688516309292 6.811009804957512 7.792890637651731
Ti 9.203130320429759 7.228158462669736 13.461288497565096
Ti 11.437582892720753 10.471725985724255 11.161134534515556
Ti 7.666903173453722 5.783390670634174 6.814039690075607
Ti 12.434650359569059 7.811991290294276 10.655382089361671
Ti 8.063733189071137 7.35645496422708 9.008787079274624
