35
Energy = -228.93204642 eV
Ti 10.716767636872444 6.651295890456171 6.497712636042377
Ti 9.63516042684488 4.315930414720362 6.543869547500643
Ti 9.8798887004663 5.835750646151291 8.84231047214566
Ti 8.580029312931938 3.4893335606572893 8.83501709842518
Ti 9.808060570011719 5.928380126508785 4.131903784373344
Ti 9.76182995907677 8.665991545012359 5.288791668617304
Ti 7.960312147709768 3.867710445703855 4.517386902879063
Ti 8.269133621128214 7.616306380840594 10.264358594608593
Ti 9.66448611254803 8.476764747268964 8.05383554147087
Ti 8.198169692607049 4.979138583831915 10.736879383087164
Ti 8.05587535096083 6.431951658269469 5.705876369573366
Ti 6.9938085998687285 3.3518799510681303 6.969726792596213
Ti 8.289259519566357 10.622480630193078 6.85407780136501
Ti 7.159618355648094 5.891841098666269 8.38763784714543
Ti 8.327859437150039 7.883264745742022 3.241311561941445
Ti 6.814524110340093 5.697902165867618 3.2348341514456953
Ti 5.995064631067719 3.8825260559981505 9.637863137444537
Ti 5.26567286768011 4.054511576675804 5.014302673917795
Ti 6.0830780744711985 6.201052714712652 10.910771619286528
Ti 5.652818734236516 3.4974485476387382 2.5927564924755306
Ti 4.5309913134575845 3.920502679403631 7.475659069554666
Ti 7.79653578269909 9.92955826352619 9.255486426283667
Ti 6.933655667952941 8.44369732412044 7.186080916884296
Ti 7.489516840861541 9.706507141979836 4.61882168142172
Ti 5.712771075938092 8.416743377911486 9.818786565686167
Ti 5.371065147701636 6.491009078333093 6.062658580918158
Ti 4.3004837737406145 5.943505767346968 8.950100430667867
Ti 5.692897807519104 8.061777448075881 3.684681632925255
Ti 4.111595605172047 5.881875750644802 3.7578311406765255
Ti 2.978530809032785 5.8026481035679955 6.421922111953673
Ti 5.579490816309883 10.530274652225039 8.031087062776463
Ti 5.020015533739358 9.87546876915102 5.585607149506233
Ti 4.050651636687139 8.279807839508422 7.674338844037836
Ti 3.3296401507665045 8.084236706522644 5.0214356026337015
Ti 2.721712456904863 10.015787679583447 6.937287636741462
