36
Energy = -238.2016269 eV
Ti 5.031986427506994 3.055488821578274 6.967537551082966
Ti 3.160200478513079 4.779138033655807 7.3816128854767395
Ti 4.326206493531575 3.6609013831264576 9.388215628378799
Ti 7.385325953018949 3.7509227293828524 6.173106573418821
Ti 6.980893219271602 3.3880388610437664 8.944592630830757
Ti 4.933943942296143 5.19676040510795 5.316430484642053
Ti 3.74741680645822 7.412193637384803 7.090701420262779
Ti 3.675233185923232 6.237050183793324 9.523310052096486
Ti 6.897769124619879 4.0398993069282065 3.7483620855967863
Ti 5.744733487709023 5.498860836183079 7.94104036348151
Ti 5.803197723300229 5.244799896358042 10.702356469108851
Ti 8.424044261079013 5.341956820535026 7.295297419939593
Ti 5.582021232819447 6.0285814894453 2.8494219484133323
Ti 8.100897349200178 5.851996759747192 2.401824946777995
Ti 4.59675562478285 7.8778580908159626 4.432283871606473
Ti 4.654290789361629 9.594248513908864 8.51189281481084
Ti 8.285475221815105 5.630456602284133 9.967772257073776
Ti 4.12327119200033 9.869419040404884 6.16228147414301
Ti 9.480267339257278 5.0544578808326674 4.6454669862081985
Ti 7.323527650317421 6.495258637686442 4.9358858900998674
Ti 5.938344157787135 10.171013950366522 4.505586586908806
Ti 10.335335745779426 7.3665634976820265 10.380015127390772
Ti 9.460713747396701 7.553253493312616 3.5396468687544154
Ti 7.9897843043649805 8.122117541264304 11.054627627299311
Ti 5.98265810500022 7.653797119670264 9.59071164643308
Ti 6.951630517271589 8.275730750797774 2.9090531464855203
Ti 10.592375926313688 5.989120955523313 8.185622666216288
Ti 8.52882155117243 7.851765901704707 8.351652744189437
Ti 6.33764795167433 8.4081076776 6.735577907533058
Ti 9.85374796422903 7.5142918752225425 6.032423742139713
Ti 8.316696036808546 9.495594390242347 4.958133173201112
Ti 9.72729507427531 9.803590800173124 9.871079833908388
Ti 7.176717090527225 10.145357205472035 9.279244511787846
Ti 11.1653511784707 8.53287638014138 8.153042288540595
Ti 6.458081081219283 11.041934849152874 6.89788633866757
Ti 9.165099013438763 10.293360731764073 7.404813918977739
