37
Energy = -245.10597697 eV
Ti 10.490127209104104 6.519755623707165 5.83145535489658
Ti 10.10023735501641 9.327428142989003 5.95028197602928
Ti 10.068376954095703 8.024967910327721 8.010327574104753
Ti 10.080922593986367 5.600189620581031 8.311546793183185
Ti 9.334203344665596 8.10582448992306 3.7338912258447485
Ti 7.936354086050167 9.729700096416547 7.807442144284362
Ti 8.043874149180645 4.056670089779086 9.060238299786766
Ti 6.872243809150936 5.359713592836001 11.046210399043002
Ti 7.989472280538261 7.873415215277928 6.196269627156901
Ti 7.85929375929826 10.295016025103994 4.851173612107453
Ti 9.471028209427633 3.773573517585513 6.348523035775115
Ti 8.416349028380571 5.535436891405607 4.226307492613146
Ti 7.895970261627182 7.127876774942892 9.194510852618121
Ti 7.444164271235861 9.248302823721028 2.377715873846482
Ti 7.563741810194869 6.767668565842878 2.210852527348147
Ti 7.882404348805918 5.470910961360512 6.903386460997892
Ti 6.635967795864739 2.9397013714853615 7.17535449881163
Ti 7.15654610828178 3.3741299437261962 4.828843944507093
Ti 5.511094900194249 7.530294579997946 10.421122812358874
Ti 5.122606254806422 7.95142321292697 2.0676844720804173
Ti 5.499225519813422 5.292031339911702 8.766619985803967
Ti 5.723744051099839 7.981988485855635 7.831168902056859
Ti 5.568408090904034 10.279633402403343 3.4670663556930132
Ti 5.453384956099665 3.163254096429656 10.156489409819892
Ti 6.092601887940325 7.743431491755799 4.3971430582212445
Ti 5.868005447410819 5.06550557365302 3.2903467309205063
Ti 4.282072329944638 5.422236622865156 11.164122678646311
Ti 4.426466619641831 3.464899096309729 5.169069159667664
Ti 5.557076397070126 5.493067494029101 6.009346145655802
Ti 5.508836878319137 9.954490160410407 6.077407910731518
Ti 4.181473085179 2.9155848762537824 7.731977636022798
Ti 3.3430526755414376 6.901241802457606 9.017530464311836
Ti 3.6474317750246352 8.984503850688299 4.097316979827268
Ti 3.7621739627197783 6.21537719032724 4.210454867234834
Ti 3.0305188140967165 4.243061693045336 9.408541092138815
Ti 3.7868885403151893 7.712796987701883 6.2656134601256595
Ti 2.923339636726523 5.084575583718351 6.916325383480522
