39
Energy = -258.7857934 eV
Ti 5.2381046876897415 3.8037713252248087 2.371052802706388
Ti 7.742788352178821 4.780621352554093 2.7140384616601034
Ti 5.479999107750781 6.526713190837287 2.6904474192493404
Ti 3.3361040760288407 4.971625862006619 3.677895786771284
Ti 6.726836933347287 2.3836787117473763 3.936456255312045
Ti 6.113999541029347 9.572889816541313 4.422464864657536
Ti 7.768153163324953 7.378484502342646 3.4267600212914777
Ti 5.96249730570043 4.824859908939008 4.647490417976522
Ti 4.295891913867718 2.7746233239754123 4.713419406658737
Ti 8.905544657037428 3.389160677134609 4.691486157224373
Ti 3.626898606604363 7.215310858466829 4.7009950959585245
Ti 8.132198968046554 10.906036171234206 5.751393684388024
Ti 8.713149955343063 8.264072759811492 5.659630756858635
Ti 1.7884083880031445 5.90919841103078 6.161599100383868
Ti 5.646801603367192 11.560892313324937 6.216196187163037
Ti 6.3191527203603775 2.998654989994766 6.667465187960035
Ti 4.040233927024927 9.688313832083958 6.0393786643412435
Ti 6.053300787834126 7.307437395102316 5.585633091161303
Ti 9.794112275059115 5.9625184071010215 4.367007274571014
Ti 3.9791407137487935 4.921369366750933 6.4244254528524385
Ti 8.196830143840034 5.45943940709967 6.418774294551883
Ti 10.591715977704698 4.346614758914708 6.3861903476585935
Ti 6.50746553110267 9.214623662375294 7.287248986034943
Ti 4.573441379046513 3.458533938563585 8.652694290640577
Ti 8.820688122680153 2.867564893842297 7.32660951359742
Ti 3.7369417784673886 7.617559643807298 7.337678822627511
Ti 10.444216285622657 6.855960968009551 7.011903633155628
Ti 7.224919589635978 11.707525939328134 8.130744820990667
Ti 9.147546242830545 9.935835001234171 7.880582682103474
Ti 3.3799597177509253 5.744143332860632 8.945386290263366
Ti 5.993954902254059 5.702063979037886 8.035853126454608
Ti 4.817637396418648 10.507006283047192 8.632467102585148
Ti 8.3514042354554 7.551189589059147 8.477405988134782
Ti 7.2190698253478445 3.662444715345581 9.324480825375101
Ti 9.524249082136715 5.023099754138047 8.764607386101686
Ti 5.405139332554716 7.796811306167407 9.55635177186232
Ti 5.311248514390355 5.179864294594786 10.54893994253952
Ti 7.277297766472339 9.72034509171743 9.785357300309084
Ti 7.513681102613316 6.20986487432392 10.33221139554018
