38
Energy = -251.88249361 eV
Ti 11.22226237728837 6.170365193339771 4.129133028488112
Ti 10.403141311702338 8.598368127691474 4.130308009798229
Ti 11.789032454582454 7.669498994294563 6.143947387285487
Ti 11.068980154341833 5.11970367473289 6.609954880181879
Ti 8.868598158571237 6.575549737601468 3.069061210986345
Ti 9.466751648283891 4.196154599141295 4.3152520794319695
Ti 9.80375536674703 9.392781204764765 6.566507923759559
Ti 9.264181096848077 6.865423029189698 5.894313004193664
Ti 7.7949893139401265 8.78527329891379 4.772400085276473
Ti 7.150300214300375 4.556946057820151 2.9953146275578986
Ti 9.014196727373067 3.4065811544434412 6.642109985735423
Ti 9.187435219927565 5.055519642913654 8.674949438857427
Ti 7.19577287120442 5.342488973622809 5.5131627530944
Ti 6.119945822202494 7.044534995544425 3.4126778830397466
Ti 10.378201960595135 7.332128910009364 8.30321831152431
Ti 6.987479051098182 2.8955438029667366 5.011170115787577
Ti 6.374909415598708 10.336326332931636 6.417777514736912
Ti 6.9148077126825696 3.2509190985193293 7.925588091055992
Ti 5.3512498018922745 9.624574586716871 4.1182064906754325
Ti 6.727756692816117 5.940321638629885 8.038032209904728
Ti 7.820935089235951 8.416871803864767 7.818497138912785
Ti 7.988110871127136 7.132665438406567 10.124936159152078
Ti 3.4975377753708283 7.7297960227302775 4.221856087008502
Ti 5.591159882738963 7.77795236932012 6.001781106469236
Ti 7.055863732409479 4.873679677610988 10.351935403732927
Ti 4.787182127914494 5.2169704700203265 4.367079379362349
Ti 3.7629001513075475 9.756099764069715 6.3410896834836254
Ti 4.728186217077259 3.8670347573978647 6.499583837747654
Ti 5.3839679020040885 9.24692304698016 8.479467509952103
Ti 4.712570273639095 4.377780783093074 9.112324715834637
Ti 3.840309318304238 6.402799149206697 7.344077446768142
Ti 5.113673644127084 6.995462483598537 9.79684286699467
Ti 1.9147679397393982 8.075229794506926 6.093443297841238
Ti 2.2511758336311294 5.455703122474421 5.436144864257989
Ti 2.839913187726259 8.480609480072802 8.671907998431687
Ti 2.6656010836177146 5.991374174617773 9.76604447539263
Ti 2.399442194824904 4.211883367980978 7.818481027475602
Ti 1.1951066909046746 6.464312527955938 7.703573257505754
