38
Energy = -251.54146147 eV
Ti 5.529846180027905 9.312135964314244 10.777717482811305
Ti 8.180111737448822 8.825979666283471 10.134272824292408
Ti 6.438594769469203 6.940823162429707 11.32323756598161
Ti 9.01824461013138 6.3504460495148916 10.553970905170624
Ti 6.6501591292668705 10.77295107334179 8.92373430540077
Ti 4.072955533199173 7.277009972554201 9.714077124605968
Ti 4.1637658098194095 9.870677072710656 8.649603955104986
Ti 9.385304073128296 7.330017808941332 8.135853150105412
Ti 7.05666904568501 5.85884007558788 8.81591054088636
Ti 5.003718569739938 4.841911577312217 10.358451592707892
Ti 6.184959225886872 8.273192192775696 8.447190348596903
Ti 8.330675780879837 9.539918719723936 7.333193987665239
Ti 7.450628428595988 4.4012086578160226 10.957094593048533
Ti 9.01096922982043 4.255898667996238 8.721980000830298
Ti 5.876634170834069 9.867743193373624 6.374268507946735
Ti 2.69009898748114 5.538039691101626 6.360252013233408
Ti 4.7725333207233795 5.249628940578536 7.6724796456020465
Ti 4.00106428233541 7.861764553648418 6.911592223340847
Ti 6.392141815300054 3.2782739034028725 8.782522797559952
Ti 2.6933211757173026 7.514436312439924 4.592057158788494
Ti 7.226033890692654 7.401367875961485 6.232328551989936
Ti 7.1947481464982035 4.1754031772149744 6.50726779236162
Ti 4.962999403679739 6.0942729057796905 4.937393591089031
Ti 9.587147448961987 5.4498935995374245 6.197123833193248
Ti 5.0735053768740555 8.626499888663018 3.8617770573719947
Ti 4.513674262193577 3.592725790391491 5.460119493641563
Ti 2.776671177354596 4.94554654427009 3.86720386315444
Ti 7.640685981757501 5.787861657704024 4.250828900965696
Ti 9.615837662688643 7.634182572473088 4.932669027417991
Ti 9.004178343635928 3.418136551322909 4.475075661576206
Ti 6.699880208373275 3.0717333743762087 4.0520790598226615
Ti 7.572564835767259 8.732062463519089 3.8786188893862956
Ti 3.8633771225061952 6.792390241313941 2.4851715590737506
Ti 5.151398970051599 4.49562088329363 2.630442351619694
Ti 10.213637900028365 5.396161178822763 3.5517442874057337
Ti 6.380592266799737 6.933925890900514 2.0712318390054936
Ti 8.003816373097063 4.500538601003971 2.1034472004770923
Ti 8.952230382218511 7.12615517627362 2.3013919454364866
