31
Energy = -202.93497578 eV
Ti 11.78528122576188 8.858454947155506 13.56437579176782
Ti 9.420049069181106 7.9223562822605675 14.350383184538835
Ti 11.047065558538248 11.12530416230826 7.040229877963439
Ti 5.634250983386406 8.657252265933474 8.699170372003348
Ti 9.651122013168724 10.235746001406401 13.357908145185343
Ti 12.629707094784797 7.603526332297313 11.386632596819972
Ti 6.878374389048962 7.286365761948673 10.638388211513956
Ti 11.38024460992977 6.640713461021964 9.235807107793695
Ti 5.996227902044491 11.149062811135241 7.478297609136908
Ti 9.716130638660017 10.35931192436634 5.155822662384494
Ti 10.908567435277893 8.535145003994801 6.617310726288054
Ti 8.365449431377867 10.002279437169557 7.582386379394672
Ti 8.54683885302471 12.357511905090833 6.6946827226133845
Ti 7.597791481260512 12.26001377646297 9.221735066392176
Ti 6.430602554287163 10.16839405795277 10.11382544449012
Ti 11.275207499453723 6.380710368035725 13.482453533057765
Ti 7.260299041974292 10.50669902344229 5.2062077642584
Ti 10.042491755717718 11.89417823952002 9.020149679752636
Ti 6.041709476872102 8.693750438812195 6.372426966198513
Ti 8.874149452605117 5.733269827520103 9.871965231625671
Ti 8.61611634031595 6.018900701978212 12.705361395294592
Ti 11.403516681744458 9.363189478376162 9.083571511982452
Ti 11.015533748566844 5.346113924696677 11.367361749302251
Ti 8.831737022049543 10.59531208673619 10.927465137286857
Ti 7.150130024704266 6.704234365708768 7.782207931727208
Ti 9.65893532521241 6.456839156848686 7.4198153123038955
Ti 11.44416634171968 10.274119691265378 11.395657815547567
Ti 8.438187763852667 8.033075078375873 5.605185456204062
Ti 8.830319781872328 8.300018546033215 9.247849896749338
Ti 7.595596079038895 8.752193698238038 12.63977602286585
Ti 10.046107961737542 7.9154992250767515 11.664045197389957
