37
Energy = -245.32137777 eV
Ti 6.674267256444588 2.5631534469212154 8.319023426025232
Ti 6.289744385078795 2.3600840494450854 4.092655675716518
Ti 4.945558062982525 2.6627348274639027 6.433312535236587
Ti 3.8804903721723427 3.128391332607899 4.102596483140683
Ti 7.821577418723144 2.8804721445835026 6.077309477667713
Ti 6.718918269514395 4.279839402841493 10.081821104130317
Ti 4.476999272803083 4.113491820986634 8.648021080811867
Ti 8.899200167226107 4.09019757629226 8.36189081699035
Ti 9.84543354729466 4.428131445925169 5.893781211721743
Ti 3.2276237007565745 4.745648541497486 6.087613028114316
Ti 8.28690858363743 4.1220142071827315 3.666141727539777
Ti 5.675806340237936 4.314091050102661 2.400350100582324
Ti 6.644513367323962 5.244843891697425 7.604473295173439
Ti 5.683707409468112 4.910686491563764 4.908044040403208
Ti 3.4024359639470214 5.422623051266598 3.4092501596086997
Ti 5.496346570199406 6.541258829480878 9.67350476725745
Ti 8.258568960785539 6.399412110400375 9.70445358405294
Ti 7.90998292843362 6.271790402569747 5.450343148045022
Ti 7.052684874448211 8.38133296152734 10.814797406866697
Ti 7.601415856563976 6.239894643240557 2.6451195810785486
Ti 9.788915036438672 6.588662759214194 4.377818644362482
Ti 9.682525965874632 6.636601764565849 7.481651728736141
Ti 3.785014223699619 6.994789019738987 7.801852494981368
Ti 5.231402518080591 7.1253643607537915 2.933621492258468
Ti 3.254309378158319 7.30906065799472 5.143055888427816
Ti 5.7186491895098674 7.620580833421305 5.928541103730454
Ti 9.259154722562988 8.944763316939374 9.240398296493005
Ti 7.014561111145742 8.34004237026532 8.109040336894566
Ti 9.034053155212455 8.785183074566099 6.174167688179179
Ti 7.371873973402418 8.52428308872503 3.7433002723074345
Ti 4.770041020565622 9.148706329268864 9.385945890228523
Ti 7.108323257587001 10.566346625596832 9.814706527431754
Ti 3.9716602533114336 9.403871764261927 6.754466924944991
Ti 4.771992304483278 9.368093861622356 4.204280448340283
Ti 8.327982239409703 10.797746738908462 7.655942621870484
Ti 6.87679636293121 10.231260840678933 5.6150952145121105
Ti 5.743127990409559 11.017116376705465 7.764177786961914
