36
Energy = -234.82183948 eV
Ti 6.864342764458859 8.308108001857605 5.223365253173756
Ti 2.618873772649315 7.951672647111961 3.8689102878071155
Ti 9.939953110563463 4.366765184707922 5.950296720999204
Ti 7.058604057504243 5.8997604765794875 12.02562289497951
Ti 4.918276064372403 6.221169033699772 10.717635588839766
Ti 2.9621765148531334 6.022781920846621 5.3059584421786425
Ti 8.138386986551176 5.955796374712538 7.056191624992554
Ti 7.35983487457369 3.6867816151987296 5.87212925994028
Ti 8.577392740148465 3.6404222249324136 8.315033974700086
Ti 7.167967322399959 6.539627039527055 9.440464410384674
Ti 4.368347791110458 6.346466650498936 8.101298362103254
Ti 8.186608803093904 10.51638157052 6.354120133193162
Ti 7.479702436373942 10.425988355392754 3.8436045189575485
Ti 10.439876570842923 5.699155694047925 8.294477446747106
Ti 8.92467774523761 9.975520692171793 11.206849495086374
Ti 5.103610217107028 9.351618547999255 3.51814330837172
Ti 8.163016410865461 6.03400899021201 4.5275673422179725
Ti 9.003081936172148 7.3663994736649 11.885728471871646
Ti 9.286848786569575 8.49373741866406 7.18211081413171
Ti 5.868904222640242 4.133818594098404 7.984641002464248
Ti 5.671927280254088 10.559980679401809 5.961181153983105
Ti 9.475003270928985 8.109502329532782 9.609477797559107
Ti 9.14467371003568 5.006975394491758 10.558113243740042
Ti 10.023284790509235 6.141992899533559 3.2645673315181183
Ti 6.739946865653226 4.015363624190625 10.351901245878668
Ti 10.671388941599131 6.762408944378364 5.795437739384349
Ti 4.182746424550894 8.236446626906545 5.992583501827324
Ti 9.50282779768505 8.669298544908452 4.382113534975613
Ti 9.964711860179827 10.56128430356333 8.80221078490184
Ti 6.447871162197332 8.32426617494903 7.594055056814981
Ti 4.756649577159594 8.543181684725484 9.382637215772588
Ti 7.517201435278883 8.02558017990836 2.727089739902067
Ti 7.450637976659931 10.107845492622465 9.090104584732972
Ti 5.596707715296961 5.803546145182184 5.9698871736652315
Ti 6.629384564364321 8.507000958697379 11.278815331778489
Ti 4.920681435582405 6.815473446587336 3.691803146447951
