44
Energy = -293.18770923 eV
Ti 10.907901673211946 4.11891844570285 5.038764867369436
Ti 11.936634911221756 4.654523259130918 7.338404123266772
Ti 9.713817683555407 2.9655270134824514 7.275630225532685
Ti 8.45539862804047 3.3100175520685213 4.804700504770309
Ti 9.404421130609416 4.6306447224506355 2.488972733243702
Ti 10.307550096302828 4.726169714579331 9.33203927860717
Ti 6.740919366730097 2.5453020076498776 7.044315092638331
Ti 11.491704906877866 6.677442223016375 5.60630354925135
Ti 9.454030411892237 5.525067568466737 6.927081010875876
Ti 9.117630098548908 6.270574315354567 4.3082567937799965
Ti 5.834051576526978 3.044041432761873 4.624337867106314
Ti 11.193248244267272 7.060739261506028 8.256014835932135
Ti 7.667597490095148 4.336327387676028 8.836311656682902
Ti 4.161296167772916 3.104652801754341 6.639988739543407
Ti 6.800373337953087 5.092466001679158 3.2183990141936616
Ti 5.128145274149451 3.274984988608293 9.293384563521554
Ti 6.8133175584617405 5.086123735634657 6.133514471582213
Ti 8.666427160034099 6.873613906117717 9.287737018435598
Ti 7.879212168741378 7.472956393804738 2.2611714664490945
Ti 9.249425373188977 8.154378040376903 6.512691057843207
Ti 4.513173276995494 5.521618396917604 4.619201672482893
Ti 4.744468812278144 5.4752335717848375 7.9237815815510615
Ti 2.6532157859539316 3.9918755004514606 8.601460748933668
Ti 6.640170744970298 7.593781859126046 4.72832614696292
Ti 6.205655509424207 5.85742763343034 10.385789875444544
Ti 2.4417557129287553 5.3732850889028345 6.240345875721434
Ti 6.725657816253745 8.50972476919592 10.240952716181543
Ti 3.7306759668638 5.369924040554245 10.442643775029733
Ti 6.662378681028994 7.650381350695565 7.65061970928533
Ti 8.907928721622035 9.028507042794315 4.031318370244663
Ti 6.476610720193809 9.732740848932174 3.254169422527268
Ti 2.3305049578127828 7.178829265873867 4.165435097774161
Ti 8.397856606969322 9.488844127644393 8.555894419326197
Ti 5.333015124277074 7.17594703219041 2.374803493489935
Ti 3.999070768139854 7.716465456769756 6.342488999822639
Ti 2.394195842577073 6.807537100725726 8.518928081169427
Ti 4.084637712443261 9.012737421110703 3.5328296021026913
Ti 5.701261114493921 10.109864267859676 8.331221278807568
Ti 4.384130029505229 7.995265545809203 9.656140843770913
Ti 1.2542129901868908 7.850439003313684 6.468011145289954
Ti 7.428517772574256 10.09207257335632 6.05273877665108
Ti 2.4157421620033785 9.679155424261033 5.22230083976383
Ti 4.838480875479395 10.395839802814418 5.755569627325494
Ti 2.966590865335244 9.621043932156333 7.830020858208042
