44
Energy = -293.79763407 eV
Ti 9.620650217471198 7.209969479290429 2.627776306333585
Ti 10.951244727838915 5.865927701433093 4.966715969143873
Ti 10.691096880761181 8.570295785021035 4.76637077346438
Ti 9.558220332570484 4.642436767384688 3.3046586613667635
Ti 6.751012136233904 8.176720485351606 2.5085130850885053
Ti 7.069436092315094 5.480111194336075 2.7899946660406285
Ti 8.692816598153748 9.574172771878763 3.5807395215031517
Ti 7.73525415364158 3.1195059958666684 3.7842478473917613
Ti 4.473922913702312 6.2955167997264905 3.2165074535344
Ti 8.458484083196062 7.209128749207918 4.733407216349126
Ti 5.04456011348225 3.510993713212447 3.8438296907685467
Ti 10.20697476217565 7.4841462283187505 7.095379266049555
Ti 9.887105172723272 3.1015506568436986 5.646912659156496
Ti 10.53001120703115 5.058991673586625 7.599142800476874
Ti 8.481541943540696 4.894874299568606 5.896497514363859
Ti 8.479636999554657 9.423588720719275 6.379848730575929
Ti 5.874114599505583 7.670219179698351 5.02141967446237
Ti 4.380432458073135 9.022598049300003 3.4131547296741847
Ti 7.001959947280393 2.506009674740011 6.041305449634844
Ti 6.48094923907047 10.200558136731846 4.530022228029789
Ti 8.54110555244471 3.424534262796873 8.338166470108726
Ti 5.941299815996806 5.01785809944978 5.339185436801761
Ti 4.4054136131421675 2.7965403560086926 6.593965029812205
Ti 7.59519260984502 6.841062074443682 7.385542673425374
Ti 3.122122538399165 7.684598724822139 5.351151556470626
Ti 3.1971244927577276 5.0452737961739365 5.457014223615669
Ti 6.353027736102791 2.0420596081449705 8.522883716128177
Ti 4.212016548555926 10.147588652855244 5.883986732851668
Ti 6.006503738001607 4.656343468622723 8.07681937457487
Ti 6.615934608855019 11.037199092582876 7.699308395367164
Ti 4.40118243219766 6.643391573464067 7.571874957449895
Ti 5.793610810660506 8.759079382601685 7.645845787806014
Ti 8.698426437048163 5.791964581882702 9.442722291585076
Ti 8.15657212476377 8.901227986455664 8.984840403777106
Ti 2.8208306526357703 4.283872809808755 7.985749008073834
Ti 2.6345911136558295 9.062585407003708 7.5964285046915565
Ti 4.3049140933471355 2.9365526935052766 9.381999182149773
Ti 2.0536430702140094 6.6947461154469545 8.14560298449903
Ti 6.6424836607625055 4.030327929917007 10.37222854293256
Ti 4.182086077051483 10.690177948317324 8.625196273304134
Ti 6.240463098911161 6.991663284892397 9.950167849689137
Ti 3.9555920738702857 5.489699337788319 10.02880073914363
Ti 6.0257095469113535 9.752495322549311 10.091504821166627
Ti 3.7652437928504594 8.29635624555216 9.8170856184697
