42
Energy = -278.31651351 eV
Ti 4.1121642572069 3.5172840075436316 5.888647885553035
Ti 2.756221245532818 4.589956131387007 7.701179240694016
Ti 1.852647820813967 7.069366077486208 7.758015457786841
Ti 2.936607079194967 5.780171900984516 5.382304736041622
Ti 4.357027758085404 7.207001574535484 3.7698086046989485
Ti 5.429098821026477 4.544558892496254 7.891976233507762
Ti 3.6873433612219615 5.703923867646233 9.69817658471392
Ti 6.552770211918856 3.2808140310048834 5.581666291331606
Ti 2.9448467150352293 9.468583204879646 8.006856486205004
Ti 4.899413747409315 4.593120786792841 3.656447178416151
Ti 7.506055226872265 4.2595811713497405 3.609640896333115
Ti 6.515923418049348 4.45740447134911 10.231521299004367
Ti 6.173367809714568 6.014548626408062 5.525916762706607
Ti 2.9804378272532537 8.462334838791188 5.592671962765283
Ti 7.91582013917106 3.1438203636181052 8.114938799778015
Ti 3.2991708057516806 7.983453097901881 10.011102269438986
Ti 6.694463097265452 6.583317463175203 2.850143379834073
Ti 4.365920253639921 7.1881561113406 7.379982326236967
Ti 6.075709527459979 7.148271877967037 9.268074519470847
Ti 6.4032019041284665 8.859470009900846 4.469007210913317
Ti 8.92802724711491 4.720943997949749 5.833925027181673
Ti 7.347192493547119 8.301540423723614 7.089650648096587
Ti 8.805065615926198 7.37613667145968 4.995580213936102
Ti 9.381302870237809 5.9408156338576 2.8753134897941703
Ti 5.174702627437297 9.92308967188345 6.766789117101617
Ti 8.037040089684295 5.742601671061199 8.278210964259744
Ti 7.48764404334436 10.839083500214366 6.065972391230675
Ti 5.703766581650592 7.621974155390216 11.451869621811024
Ti 8.3858167241592 8.475809575892425 2.544244443409747
Ti 10.371380202191416 4.420062918915973 7.976174692704928
Ti 5.129547418883038 9.664822947810901 9.497422347263784
Ti 8.120180647226476 6.266469524030359 11.117882336619191
Ti 9.12366896805302 4.062143902322392 10.2242022536071
Ti 8.476695550099642 8.415859897274244 9.68164341665626
Ti 10.792527239037435 8.118271968342285 3.2495940073748617
Ti 9.618208037080162 9.772887098247164 7.25957246943654
Ti 7.3389074778647165 10.562997512611592 8.516113739720659
Ti 11.17953992334329 6.097620963175313 4.948755493955279
Ti 10.309599358402519 6.317153021990344 9.840393751334265
Ti 9.289632635431882 9.994265707196273 4.529969754992841
Ti 10.324506085860413 7.0267125657457745 7.357215785418202
Ti 11.308168063405478 8.60430853791797 5.592299022131422
