41
Energy = -272.47993903 eV
Ti 3.928556320155605 3.9268710710468744 7.222193899077956
Ti 5.876623363430346 3.4715699995500056 8.858022089358174
Ti 6.365228921106642 3.515080949895919 6.115178676881154
Ti 3.0559043955187852 6.420560396609384 7.220696651340108
Ti 4.4137078324959 5.271971734455943 5.0396597036106785
Ti 9.010639518777525 4.106937474151702 10.527304092261765
Ti 4.139705155109341 5.3381358685387905 9.431660964527806
Ti 8.159110974024774 4.214128880605048 8.066174823839246
Ti 9.047923640708657 4.207497939837993 5.7186912103954946
Ti 6.786093274644278 5.563521490670289 10.258173809630959
Ti 7.0793575106418185 5.237843567795488 4.102842196138305
Ti 5.453010278605158 7.044759749952297 3.5243205405022966
Ti 3.2824840817973358 7.874946445037559 4.723020278431437
Ti 5.797834090732937 5.774004662113168 7.422417350079831
Ti 2.9342915897812762 8.989449682884919 7.198269471415293
Ti 9.05313846272934 6.438412633725782 11.701757288292137
Ti 9.309253648270957 6.441772495122989 9.038835676993033
Ti 4.267835956879629 8.002565293571362 9.024653751642614
Ti 10.835257597942624 4.195107710996653 8.557890534980146
Ti 8.033013227389906 6.748482899985156 6.1872959640682295
Ti 11.261656328316073 5.409414917721277 10.89010631734034
Ti 5.449802777264076 8.367825898264442 6.145178190561225
Ti 6.686522559636791 7.8429752863183335 8.901332643261288
Ti 3.7366852765843905 10.40524984552327 5.441980860714145
Ti 9.584673876067155 6.10259897937578 4.161355582325049
Ti 12.06444433820528 6.510267720415627 8.769557134918912
Ti 10.737675992975783 6.085483812730972 6.56016462212703
Ti 7.777467850881099 8.008207751415792 3.743787854100002
Ti 7.935098056729084 9.368268623749012 7.3549227446264505
Ti 8.525487166812736 8.752339358017679 10.385478927824268
Ti 5.3687220553127935 9.529115101369023 3.676448383784885
Ti 5.130755328903938 10.48450423778231 7.883239259613336
Ti 10.93338254328888 8.013381745917822 10.57938887671995
Ti 10.613529963817241 8.618408358900782 7.932761368247395
Ti 9.991373820965906 8.540198445925233 5.242256527415276
Ti 8.093015704417047 10.489217299257602 4.871600489088827
Ti 6.942016870856066 10.572600131739087 9.690971303431645
Ti 5.970602388739073 11.332275907658858 5.5482098229096675
Ti 9.499417503555577 10.836746993797027 9.08730891050399
Ti 10.031823320841491 10.875475608589705 6.6071286084694085
Ti 7.663748918909311 11.920784501589607 7.413719898150135
