47
Energy = -314.59525631 eV
Ti 5.965988344421926 7.47928901661668 1.9407369202122733
Ti 8.696557236160277 7.722614338263509 2.317209020911636
Ti 7.621698538490576 5.34260020409812 1.8111560548553483
Ti 8.96414429755444 10.032865954239728 5.6173303654665085
Ti 5.232974457201942 4.8233717337109585 2.439252365065038
Ti 3.4640576649423984 6.700187046844323 2.371209056094722
Ti 9.862784484645143 5.336831980948661 3.315234973702211
Ti 4.200980305773276 9.060341729203897 3.4271758209053744
Ti 6.901411328612888 9.072195314092388 4.067159351608708
Ti 6.557195235558511 10.683714563900297 6.3361022471792845
Ti 9.748034160095797 7.7511639193340205 4.755396632188929
Ti 5.021198354496219 6.888026058996716 4.544520104482034
Ti 7.545137494197192 6.460388726872731 4.190645776925418
Ti 8.660047098241796 9.926737235619893 8.180799525285687
Ti 5.865730136682378 4.290019681701676 5.0698622182407656
Ti 10.829742404737443 8.695681470478936 7.106227294257628
Ti 7.992500149924743 3.3687605456077137 3.546890752671045
Ti 3.215340378373733 4.721559094439581 4.232657166488938
Ti 4.397642758897852 8.792836086288135 6.403237673362513
Ti 2.471901933790133 7.511871266350399 4.600892419841951
Ti 7.155248618231264 8.175724109145388 6.581591717615862
Ti 8.305932246936282 4.802273088452083 6.0175771553628445
Ti 10.959625796873894 5.815362891354201 5.862708989676323
Ti 10.214080127716194 3.3189118262286517 5.066775975868441
Ti 5.1626404734685165 2.2072944262977674 4.7460769122225654
Ti 11.552523177534038 6.416381859878886 8.47072508366073
Ti 6.072920379062901 9.610937728902647 8.675985720807269
Ti 10.17472820475603 8.259771179854887 9.643483192229558
Ti 9.092871381598796 6.720657695609066 7.714492183254103
Ti 3.573238664777126 9.873464927966968 8.886070218372508
Ti 3.726599103662491 3.633658488578972 6.786739256012115
Ti 2.045671255340418 8.103312645226085 7.813028197800514
Ti 3.1688380507773184 6.108915769857563 6.565644493379859
Ti 7.865864224626042 2.263096187159686 5.929589282169205
Ti 5.838797519955205 5.751991949507855 7.319006513398682
Ti 7.484695508950016 7.687644880875762 9.682569223874042
Ti 5.875110474009603 2.839990411393366 7.435301003239468
Ti 10.058639964702959 4.190242973691277 7.856756392095099
Ti 4.505897052920767 7.394969035106496 8.88837224584552
Ti 9.539178657323008 5.809354261532766 10.138835619047363
Ti 2.377841294684444 8.059524269854293 10.39291027646319
Ti 7.535485979384153 4.668699168239959 8.864963758749148
Ti 4.982514920545732 8.560232488208497 11.100529649006324
Ti 2.2663262430862834 5.717181222081797 9.047810450965747
Ti 4.574998623749263 4.370064794174007 9.396100500707899
Ti 6.136285062112221 6.010783086715151 10.802388256190808
Ti 3.7140655295804166 6.144187965661942 11.215957291403836
