48
Energy = -321.48742728 eV
Ti 10.509144525152863 3.4421548221990017 9.464273127825203
Ti 9.669830995184313 4.99415897278728 11.198948632576117
Ti 10.296534323486423 6.148737489062074 8.83607615428866
Ti 10.410966032238129 4.375144737166307 6.962780272136888
Ti 8.129227678731505 2.7285156581529897 10.757993111838475
Ti 8.856081565430573 2.047713701825278 7.94353785645192
Ti 10.79162039337942 7.442464017691745 6.262646051271555
Ti 8.08738730895223 4.499836163286582 9.09115071844392
Ti 8.45036095348762 7.242246122380768 10.487149864873777
Ti 7.259447223894057 5.183100485640553 11.67938093895526
Ti 9.377258830279786 8.834666972194992 8.355441779863575
Ti 6.445321633467547 2.1709926574446077 8.662207288386638
Ti 8.506387684100053 6.831018504469368 6.75870540304284
Ti 9.340030129996128 2.6359963936034183 5.41543505855086
Ti 9.404254547868286 5.3012005128329776 4.68299630384563
Ti 5.517840755960984 4.086801640131456 10.233284091709749
Ti 9.172784016915125 9.720317796560972 5.775784024433305
Ti 6.841192898265213 1.8739823166201341 6.038794020504393
Ti 9.034550086109137 7.7618871901679425 4.127740932112285
Ti 7.470285284186849 4.289633015110496 6.493654194787369
Ti 6.8223730962101135 9.17006515514911 9.512809826675753
Ti 6.437350717716507 6.509195524062641 8.507460342147091
Ti 6.6348402511555715 8.767960188391031 6.72456975885758
Ti 8.040559426128802 10.895984966763132 7.8018341374277425
Ti 6.778063628278438 9.080154066725338 3.9921804713481857
Ti 7.377007159000682 3.6205480159622114 3.95077086479651
Ti 4.864174765828391 3.9873402256311445 7.697317186554449
Ti 5.588456910335541 7.003081893656144 10.812863058346325
Ti 6.750748203055193 6.2147786859629734 4.718079266423802
Ti 6.684236134434296 11.164009975899104 5.591457042211519
Ti 4.671640929948542 6.488560955864502 6.417031143657244
Ti 3.734348824288685 5.953798797462487 8.953006750591246
Ti 4.35442626226609 9.689401625705772 5.8088638492268
Ti 4.909560078951999 3.807641926892097 5.088903968184059
Ti 5.504640523614837 10.891481626655745 7.908920087200546
Ti 6.658047299922167 6.763363579761202 2.233303829972384
Ti 4.511840549605279 8.40177932859624 8.522610230612612
Ti 5.093954209054582 4.806066847151079 2.8022576462278286
Ti 2.6858987311803677 4.728764277329312 6.545913662995728
Ti 4.479474405422964 10.511851798168214 3.2822021045570606
Ti 4.361205087002126 7.777732281250248 3.774474446881546
Ti 5.474019720818738 8.880451645244156 1.545670443922233
Ti 2.231362115876815 9.593930281489078 4.181468134888259
Ti 2.884127261728898 5.30292343432608 4.059892491428875
Ti 2.3566056804535296 7.4764202432453795 5.8607402459536955
Ti 3.898101545522697 6.610376828965456 1.4642495722015305
Ti 2.9201683150347786 9.011150389361795 1.7698640021497019
Ti 1.7174091803460516 7.27576414526732 3.2384534889298626
