46
Energy = -307.61783522 eV
Ti 7.786952768683559 1.4446388389434621 6.449526219539531
Ti 8.76189601430465 10.056594188250507 6.168852950814317
Ti 9.840169662892082 3.0562891642003573 6.303805147846054
Ti 3.237298495020873 10.325412491479959 4.203975942044134
Ti 2.0413162506713496 7.962775797817457 5.02690011749622
Ti 5.82557484041426 1.7723561690635932 4.924208800942781
Ti 6.6160152179676395 6.170030221215408 4.532478810453658
Ti 3.6502658426668857 9.685027061419296 6.643112980189737
Ti 2.992037567228433 8.23870863839105 2.547852783856426
Ti 5.112416414281045 9.74675882021928 2.4755384333996995
Ti 6.145604915020576 7.132528641040625 10.650827397747047
Ti 3.346742661343701 5.807003452137998 3.6344179583324445
Ti 5.421608385720768 6.987028915768713 2.270568736795141
Ti 8.00523044404374 7.943444650656684 8.360744444970527
Ti 3.440722404176234 4.4794720088364395 8.017895848472447
Ti 2.07358185438756 5.399583963208231 5.9244784555487096
Ti 7.232511225081532 3.913130115373056 5.652951068589477
Ti 5.925080436970973 10.515950439179083 5.110720778414794
Ti 4.689162280795103 8.22622238950388 4.568001656637412
Ti 3.9543445430110755 6.278356368888465 9.7403055859245
Ti 4.499773243713418 6.207482247133144 6.217343543151408
Ti 10.391130851017293 8.217796339417358 6.799603602884873
Ti 11.152347585360815 5.6309196613184085 6.452282370687739
Ti 5.339161420101877 8.224115132833145 8.1298696634364
Ti 4.053107235750693 8.950877002932403 9.822021583717651
Ti 10.505765271455788 6.966979850745415 8.962461288995605
Ti 4.20326623828299 3.7346950162078354 5.466092344382163
Ti 6.152917897060888 5.422803331030099 8.086824882681054
Ti 8.384590900224001 5.402967298567098 10.036601931090821
Ti 5.5736412428601385 2.639212984387329 7.51696044983131
Ti 5.714120221464639 3.8761875027872024 3.2348699148663007
Ti 2.6486389152478615 7.407054921711804 7.734534220310255
Ti 9.472209977027706 9.781175932918336 8.93254964946603
Ti 9.28940333673669 7.09110788011013 4.699148427318907
Ti 9.784518459373508 4.583312566916912 4.358846687048499
Ti 8.202119215944952 2.4195724029799144 3.8728867566178335
Ti 6.885272284792414 10.545930056819095 7.803679774580768
Ti 6.906846905565122 9.652793968137404 10.133117254911356
Ti 7.933705626685763 5.029666860503557 2.7778603371819077
Ti 7.20579262014103 8.68726916401965 3.503160277520247
Ti 8.720081589261305 7.903390814310014 10.852631335927068
Ti 5.796220049153183 4.235725988143822 10.112626438230107
Ti 7.0324224940131925 8.154387346655543 6.024087164130398
Ti 10.358035213813537 4.263146483146758 8.649630409063372
Ti 8.75023795192644 5.685139147134083 7.110673937825193
Ti 7.958971305989352 3.157808041186791 8.51530191377419
