42
Energy = -280.08721028 eV
Ti 6.164686810588782 9.079513771660775 9.36893333916473
Ti 7.975337075841936 6.951724493427229 9.96042244458327
Ti 6.7532484670057205 11.109096570850943 7.747537442646148
Ti 5.3531323265595585 6.546802532893687 10.125643418867938
Ti 3.6471772309938366 8.41151391956855 9.091597475020642
Ti 8.621502758514627 9.252998091931273 8.471099389148844
Ti 10.212258587762063 7.1088721279285805 8.53314537229993
Ti 7.11707740486959 4.162077363871934 9.983393297003733
Ti 4.375743136138114 4.101153359275662 10.169362305431932
Ti 4.4912341572565015 10.119933607754685 7.065626335759439
Ti 7.8845212516827194 6.560115141852225 7.480877410312729
Ti 3.013863926284689 5.880243323178577 8.769742554806607
Ti 9.351757993835355 4.614751184366818 8.377113297620031
Ti 8.823593211370072 10.939558855149318 6.351618199232066
Ti 5.371512108575445 7.527499423125607 7.392352656685834
Ti 6.35553134679295 11.1850315177309 5.001048577049936
Ti 2.9178185982288825 7.627787582562671 6.483953033973193
Ti 10.186532749260424 8.702568829843607 6.355460655034502
Ti 5.733267457931183 4.616482742474141 8.016521685082413
Ti 5.535581374884399 2.197043064339114 8.818836780055193
Ti 10.483182141146177 5.982575915182277 6.145097737295725
Ti 6.986009919289192 9.098983394647004 5.980237696433848
Ti 10.714970922038722 7.6364473473536725 4.001027093193448
Ti 4.469713928923907 9.158926579090915 4.702708553704644
Ti 3.171995737036269 3.1685048816347074 7.931671421843407
Ti 4.126553110110155 5.146419406642676 6.261462712041975
Ti 8.254151390568273 7.245813341551207 4.786720732272415
Ti 8.886083372158858 9.802606580739965 3.95026011858055
Ti 1.6016695155729996 5.124245897919076 6.62147156334095
Ti 7.693230765846771 2.762780470266997 7.350528329301129
Ti 7.10320872130937 4.907877668641835 5.5048271179716055
Ti 9.581142092342443 3.7207530493141174 5.8581097051024305
Ti 5.209044532747509 2.443982480671426 6.124240136125339
Ti 5.329959858912022 6.7975583805217035 4.560956709020344
Ti 2.7456924637152618 5.747752450936246 4.262533466988993
Ti 9.362635201087652 5.198010029050789 3.582010297385809
Ti 6.5892383731696675 8.90818748289281 3.1488603722430137
Ti 8.793272985501304 7.619232389790649 2.322712465342104
Ti 2.771420979172118 3.2287990604876815 5.235005315512632
Ti 7.500271660341967 2.8297681796293523 4.444725678481046
Ti 4.884159075198189 4.048551795890496 3.8871459837216396
Ti 6.934696571570314 5.805137005492506 2.851082416453503
