46
Energy = -307.98819535 eV
Ti 9.657242044258856 8.74803459052904 3.5064328144733525
Ti 7.163152155487589 7.704428224255162 3.108110814681749
Ti 9.243365084447937 6.087472748910061 3.141236168089813
Ti 6.8360755896614585 5.049542299162933 1.8696072106929202
Ti 4.624507542244286 6.834128069317101 2.3367774252606477
Ti 7.682186863716595 9.956034313197291 4.761296913708645
Ti 8.820495645598275 3.5229181787286823 3.0471140252949485
Ti 10.079062731146971 9.688153956859306 5.8115725998737675
Ti 5.248480670635709 8.948010607495451 4.146105485073395
Ti 11.112929634475504 7.180846213439061 5.336324074936861
Ti 4.440586914139846 4.1384353713908 2.9627167416951936
Ti 2.907830478449185 8.152776017893217 3.939732428291244
Ti 8.548720573304504 7.37442011986582 5.442095011406336
Ti 6.528655396090036 2.6926949252737953 3.178292249256722
Ti 2.4685157094430576 5.735533212530614 3.4915972894761076
Ti 7.047579467895174 5.026567053477935 4.421743239935852
Ti 5.597122829918834 10.259178155084857 6.951712530475449
Ti 9.853793532313086 4.6479586413647365 5.2506483150702845
Ti 4.64860065704889 6.197934701027738 4.956507184751491
Ti 8.136453025609798 9.741440055071074 7.424542508909016
Ti 10.90923403202776 8.32853841247941 7.863515709486393
Ti 7.865959761344125 2.6134535902797715 5.50358950416146
Ti 3.588688291097009 8.985728909197762 6.354534133411697
Ti 6.7942938397686845 3.0783958990673574 8.255509346191253
Ti 7.181053354582533 5.084748767328522 7.008243909658988
Ti 9.1871310542269 9.060063221174145 9.897033247060678
Ti 5.33426017227811 2.976031126503937 5.484189736811658
Ti 8.583721812985695 7.094487753741808 8.202869643124929
Ti 6.503287552116902 8.603204643594522 9.217514585922242
Ti 3.781514496499112 9.330330344585185 9.274501508608067
Ti 6.199263779284992 7.7803565811343365 6.562295514444583
Ti 10.814006875968207 5.597409096851398 7.685421964295175
Ti 4.120449193828195 6.962315615827877 8.307184553465714
Ti 2.2667673458165547 6.531621122646939 6.097716765846073
Ti 2.9468309574190457 4.025803557544569 5.314905909041817
Ti 10.512286353879565 6.7786915345172325 9.970480407383118
Ti 9.369384163670883 3.4399946272020014 7.441047252096193
Ti 1.6935830703197245 8.12535488481753 8.144609922784651
Ti 4.464352113622754 4.596324421384262 7.375801317495433
Ti 8.029421604438106 6.963261615146025 10.85971142258429
Ti 6.314345182522666 5.629121940444856 9.546100093793706
Ti 4.828277002261407 7.399434596409799 10.959408128345283
Ti 8.893332580907654 4.6694444025197495 9.60164293577823
Ti 2.4111402936767257 7.2122227379418495 10.386344132956417
Ti 1.9076312738418821 5.456540393708444 8.49037801511586
Ti 3.861224570989473 4.997410024336296 10.118082584043352
