47
Energy = -314.84008283 eV
Ti 1.9059953627004815 9.743643274808623 4.377991367684827
Ti 2.5834037094346445 7.603428419452138 2.803364556529991
Ti 0.9997856450869743 7.56910725147591 5.022437049289599
Ti 4.125366394629721 9.91223060971398 3.2023216858152224
Ti 2.047132732615166 9.076391135086201 6.955761396616414
Ti 3.97944825777974 10.600944950957453 5.7184950391767035
Ti 2.294108409631544 5.420159056929411 4.858887150115316
Ti 5.4793844169802846 7.690474200049022 2.8184522404392207
Ti 3.777748303081089 7.910865598075372 5.007408613533621
Ti 1.43821349896832 6.455315242795894 7.332675200182818
Ti 4.398173458387119 5.547319757474871 3.204736048871895
Ti 6.164120852112182 9.342542623284642 4.968497650822545
Ti 2.9625917016117236 7.96477565325466 9.061142017395815
Ti 2.7223124939251178 4.073264420673294 7.1749828804914335
Ti 4.145333988933419 6.384286521531948 7.193292371039753
Ti 8.282205129582623 7.845787208758338 4.0775786433608525
Ti 7.223854413451267 5.292421133569007 3.0015585099387674
Ti 5.09692727277108 8.986954169873405 7.653155903602926
Ti 6.216116970289362 6.435326956613174 5.185529423005329
Ti 8.749436621760932 10.13284428800997 5.380994893793354
Ti 4.67278623923885 4.199740776713231 5.397002806852993
Ti 2.994647423974818 5.39128254671755 9.346280419660642
Ti 7.084432884825987 10.597733534972194 7.263704123724546
Ti 5.2335074075231995 4.17320922701247 8.188801522404223
Ti 5.275917277456537 6.867498910156389 9.663702557704879
Ti 7.564224400970819 8.097344975727378 6.847956271475788
Ti 6.508293370937951 2.8120462414367884 4.077684111325804
Ti 9.635113265386607 9.553757411871626 7.810575673199812
Ti 7.392162027314022 8.88323691475209 9.446526452034874
Ti 10.614219356369603 8.280853444072791 5.4463122884177455
Ti 9.806333164368095 5.8421700649299515 4.150933977167715
Ti 7.348075779624944 5.854788322725976 8.413947369464909
Ti 8.860462907833421 3.341095954945529 3.5633068870908042
Ti 6.011440631395164 2.2380708737841135 6.547418475907344
Ti 7.628170762325639 6.705668486475429 10.982170236461856
Ti 7.778800075514054 4.3516258959555065 5.9338584182379925
Ti 9.5199401994284 6.304142042690572 7.032882663875066
Ti 6.472772416832295 4.507370582422244 10.46053729678989
Ti 9.712431098376149 7.513857554208943 9.658643501055892
Ti 11.60592293349982 7.814971174401457 7.764168892436199
Ti 8.51043663891937 1.9015675089342865 5.836593654488398
Ti 11.777255599982599 5.756674454580728 6.162113673646603
Ti 10.493974146628352 3.599366780385902 5.32442517378825
Ti 7.719444946871079 2.973959473050779 8.507417715769515
Ti 9.209014920221966 4.790237686473942 10.087686119551663
Ti 10.06254410347735 3.580554318425741 7.737780688234858
Ti 11.414749095802442 5.577825078620722 8.847039096356115
