43
Energy = -286.91920982 eV
Ti 10.226580317456904 4.6195889247113895 5.094627516769646
Ti 10.32887398650835 3.220538768977618 7.39621036157802
Ti 7.854917510641078 3.6710508655141636 3.4127903688595342
Ti 11.62194218282151 5.433440849712595 7.19632083598973
Ti 8.132495429560965 3.092062890639649 5.877001365498656
Ti 9.082494894629757 6.75216841280501 3.016458639226272
Ti 5.33244531072161 3.5510319488524162 2.4581529446073818
Ti 6.78330892821674 5.558908627925469 2.149487375567405
Ti 5.546495421132794 2.2580059300673567 4.767908894532704
Ti 10.211913351910624 5.0162920530665565 9.519473105645886
Ti 10.36627512403011 7.306971654843753 5.598612016089919
Ti 7.908368523968156 6.088021529418486 4.863289983079576
Ti 7.9831304922859845 3.2257634970627724 8.803622730123438
Ti 9.01002388530075 5.505182636263061 7.417899511336212
Ti 6.093376387751283 2.3324434894697577 7.308260930512975
Ti 10.758670503338303 7.437299274846728 8.33304497040167
Ti 5.660952166609722 4.847138692579582 4.815811633654671
Ti 3.414788607461776 3.6335587380411223 4.0075131374019985
Ti 8.277848940795662 8.918570069823604 4.709370449542458
Ti 6.383205446769095 7.812414078847714 3.1036988583558944
Ti 4.187703911334948 5.982072608709783 2.8258009179803802
Ti 5.075850670017047 4.091569058777724 9.230569241669235
Ti 5.101458595786346 7.518218013033453 5.534512389540653
Ti 5.777506612790069 9.959819750414821 4.431541407448274
Ti 2.9031215642505033 5.870629816340049 5.169872232866664
Ti 3.8758995255577275 3.498423010940022 6.619134926647112
Ti 7.285299934610639 7.6326516466521355 7.159665848093125
Ti 7.526167050330569 5.187709940736173 10.056323618661834
Ti 3.4959589029268776 8.549242840025228 4.072477989498829
Ti 9.29068919986431 9.182700883417501 7.2922174792191905
Ti 3.7785611829584083 6.052815958823625 7.579170880646403
Ti 6.308047058118945 5.065110651538923 7.487169031866814
Ti 6.791785480910382 10.396990033272807 6.690388154469262
Ti 8.590198678821315 7.45702414898086 9.692149635883206
Ti 4.774668165547126 8.798039822670866 7.828278615649114
Ti 3.7744404700029253 10.506190778901797 6.0719820264087
Ti 2.301801914390269 8.285665354974821 6.700420320415858
Ti 5.6826214502585035 6.981697036334182 9.58543522991505
Ti 7.039797792371164 9.556591495558905 9.09201177722861
Ti 2.8946544783712485 7.694286735754987 9.34115673440948
Ti 4.985165123715275 11.34743200356671 8.464734137506014
Ti 2.6593654007251466 10.177914069862277 8.50499274628835
Ti 4.497798332437309 9.503420315251287 10.297107936922165
