41
Energy = -272.76218915 eV
Ti 10.278734567630213 4.972478796846071 8.432220920479303
Ti 8.486598500715747 4.6948648032486355 10.326553223151327
Ti 9.124540419600955 7.2450909029440425 9.148343991515597
Ti 8.950376569754614 2.9226766183155344 8.30552553000094
Ti 7.218152394757358 6.966191113803698 11.086020996124594
Ti 10.160315226491294 6.830318602674209 6.655994658227063
Ti 9.979374087556938 3.893659546335264 5.962448638147152
Ti 9.305147254476749 9.561928553851091 7.337952719441652
Ti 5.8585347964482555 4.7135077759444854 10.959120249993985
Ti 6.674610254180651 8.671260552000463 8.966949590055295
Ti 6.538968962828046 2.9906152733619744 8.882135240954046
Ti 7.954583666722835 5.004928732493189 6.721811981696345
Ti 6.712579177064285 5.894563559106089 8.823922757411307
Ti 7.534729442862777 2.3078602739357383 6.29980729892937
Ti 9.10119326223673 6.192760753766684 4.290262646627068
Ti 9.626988547674692 8.716018152357412 4.854261702336415
Ti 4.687434687841192 6.9793704892112665 10.145641144711623
Ti 7.064817463348166 10.895347819056425 7.566115860394925
Ti 7.683157467248597 7.730300321664684 6.610329280171308
Ti 8.19870354608551 10.919969366913516 5.170797135997568
Ti 4.228421105350645 4.527261718501412 8.915163713566079
Ti 4.784001531824471 2.1698497409808004 6.944435256600186
Ti 5.637800198359821 11.781335456499775 5.7512914542793405
Ti 5.040430305089011 4.690925326875121 6.238682942408676
Ti 4.514126267553758 9.814228854044613 7.349351059088251
Ti 5.864907526343582 2.676417654880421 4.439395408523595
Ti 6.124849353602844 9.271604670236409 5.336590940649852
Ti 7.778381222405603 8.729823572182864 3.173327931928669
Ti 5.020240073125029 7.1433794296008575 7.458730988036317
Ti 7.750777955969439 4.134494072276822 4.067309391935996
Ti 2.5760854347135957 3.7332955498531564 6.96549017984309
Ti 2.704769031928748 6.214298113648746 7.4772906163486335
Ti 6.13593195737312 10.874824042511548 3.300166970373302
Ti 6.33237474821386 6.5574212246136385 4.557351035738632
Ti 3.491016039196903 3.0465815832460286 4.718391690868899
Ti 7.11052971030428 6.281474377764526 2.2244601104900106
Ti 3.8735052224665445 10.303081686985337 4.572958785847929
Ti 2.6817274081652496 5.438155653096328 4.9569783370184455
Ti 4.806203550548728 4.932690602654502 3.3077064585395752
Ti 3.883200382001924 7.74903348527035 5.29585636655296
Ti 5.069976056728117 8.374906553237478 2.951650171785553
