48
Energy = -321.33059106 eV
Ti 11.668496026467173 5.766084898063753 10.352883653712103
Ti 12.023768475020962 6.029742249238938 7.680661461002991
Ti 11.4602402293317 7.9599401283166795 9.147670174991326
Ti 9.704501571705434 8.115619766704055 6.917419468195117
Ti 11.146295811006858 3.8464509601810333 8.90145921122061
Ti 9.184513251708603 9.212792516588118 9.124418120302945
Ti 8.83460552496829 10.777145463985832 6.79692942109832
Ti 10.610955740902817 6.511934042720746 4.8739527189341505
Ti 7.828529286098565 11.494791348309606 9.194892212431117
Ti 9.49660139289205 5.997202284214212 8.582514659801397
Ti 10.25741744208008 4.380407383859127 6.411913212713189
Ti 9.46597579368143 9.063889371249504 4.53530556763304
Ti 9.533208260690543 7.227055731783798 10.95836921060537
Ti 6.124740570756723 11.897593752948962 7.15803172804507
Ti 8.540562984711036 6.701379797276803 3.085591394990192
Ti 7.070050039439331 7.334971001099575 8.324986784404523
Ti 7.344401272070719 11.066842867200469 4.661753171943585
Ti 7.163994253369113 9.216640175377357 10.562974608612256
Ti 8.587773197882616 3.328908514929498 8.513244011823826
Ti 9.34526233051553 4.417465547092077 3.9907342081757937
Ti 8.117165565291005 6.0467496521725455 5.744790756998999
Ti 6.607550647140496 9.566714728568375 7.906353483777748
Ti 5.407566257847153 11.059026920989483 9.772529118125298
Ti 7.805263153858849 9.193543987792898 2.746678056883126
Ti 4.586595084228988 10.535079911697803 5.432953866741213
Ti 6.8349082739758344 8.581522495186029 5.210094451175484
Ti 9.390102874520256 4.495347167227212 10.82623244873988
Ti 3.7361404684337787 10.239718909234405 8.026346365386118
Ti 4.786376829471609 8.429514371388965 9.73224717861897
Ti 7.749546941303474 3.185169727132453 5.680064771659396
Ti 5.431636850370258 5.934116465418365 5.398911705547543
Ti 5.935899318180077 7.1332160258399675 2.90288031385471
Ti 7.154422226444635 5.89298349540519 10.316294388255029
Ti 6.76688634095844 4.5119565206199495 3.55025790369444
Ti 4.568913889713866 7.7588232443758045 7.038159090422395
Ti 6.395157307883111 4.731950443988063 7.706447891349827
Ti 5.525702682204977 9.869819624224322 3.1789979591554713
Ti 3.805277375916787 8.099896865027741 4.057955094104342
Ti 6.2634431556298065 3.4492135564650357 10.007032977583414
Ti 2.452068076885865 9.1449781077419 6.043993288088335
Ti 6.442576987670949 2.061678994464316 7.7531593685075055
Ti 2.4230598226386384 7.614475069219688 8.267262079873875
Ti 3.823282699774676 5.235234288469355 3.939695969627697
Ti 5.091514072492947 3.2162510746380586 5.703163258457609
Ti 3.380725730029444 4.988224477398965 6.902970112410874
Ti 4.542961738287431 5.7314873126325825 9.246847849390031
Ti 2.3029175661451813 6.722437509067376 5.62415730064942
Ti 4.264721318803291 3.1171176034088877 8.427820458605478
