47
Energy = -313.76307614 eV
Ti 5.574551448400596 8.860349967821586 10.552497477953741
Ti 4.331594839541761 6.05771002760408 4.7766440198569775
Ti 4.10795018401868 3.594628895963702 6.076704739846939
Ti 6.999288543308519 4.639997387520236 9.501476526397745
Ti 6.6212439062632695 7.502943899067962 8.669858272950727
Ti 7.06252380102996 6.69957455037022 11.553189371796494
Ti 9.639006775148072 10.165423486579012 9.237411618223893
Ti 7.0827743956491505 10.06962911804337 5.9247492805176245
Ti 5.461030632254883 5.462805884809828 7.432395576010859
Ti 2.7686476535545856 8.619961550450736 6.313389564192484
Ti 8.711806886549494 4.691008412551094 4.185893998825875
Ti 2.121269226347223 4.530840358314121 4.597224025937159
Ti 4.776959180496245 9.94276501063384 7.949454703395053
Ti 1.6525898466703577 6.970760562356666 4.785526990911816
Ti 9.006952039858756 8.121217040663073 6.945423902150792
Ti 2.669335564104048 6.16170131814711 2.6260773280864624
Ti 8.90024168154487 4.687941382012305 11.171191593476498
Ti 9.154563912949053 6.83643363324992 9.43302557862976
Ti 9.77370549047636 10.556584867136223 6.593122616737411
Ti 3.8559637743045148 7.646461094459512 8.654433259136521
Ti 4.31721547913793 4.155610745553297 3.020550012065588
Ti 9.574845522332232 6.970352447023907 12.116950466044267
Ti 10.530911409867915 5.693464492393252 6.357112248177097
Ti 7.330944809154845 10.100671595210573 8.584712809350368
Ti 11.726443314384543 6.664285266483721 8.276848907593516
Ti 7.963174195465478 7.0714100329812615 2.48425824473031
Ti 4.514372885639947 10.313212061318492 5.274753991097851
Ti 9.85738187218755 4.331985993215287 8.677186001072098
Ti 11.212830203289654 5.615526531034376 10.60261466119101
Ti 3.489004458921191 8.51968622911557 3.6301722615714436
Ti 6.522630049621909 2.961841847083903 7.580162552271392
Ti 4.86612587930769 6.161680193759694 10.320572140260225
Ti 6.360293199153102 3.7893699330527935 4.976838451205216
Ti 2.72037865381706 5.694852548492974 6.979243010786029
Ti 11.106282433518487 8.317243966258156 10.506449111021993
Ti 8.293395546148695 9.012697656903224 11.063523493923688
Ti 4.307445743643985 3.839523965883679 8.886541096886033
Ti 5.353610657195797 8.088948386720007 6.301642855038236
Ti 5.178072495701434 6.826391427334088 2.226576820242373
Ti 8.910968918062231 9.083553014973763 4.360093264774284
Ti 7.996579435414735 5.185400152906761 6.944352258713475
Ti 11.510506814464877 9.246337433179528 8.082231109023873
Ti 6.726393510487862 4.8182079020733095 2.651542477189851
Ti 9.949321114347406 6.8779191258557875 4.278081683339346
Ti 6.132925677913519 9.048761454951086 3.5074887682440594
Ti 7.273818294671736 6.865880663904293 4.932367424747788
Ti 11.410412959440182 8.334731800344182 5.805728750165803
