43
Energy = -285.42295355 eV
Ti 8.329575906759091 8.34023458132905 10.523660345784181
Ti 10.684724215549386 8.187754830410894 5.7882609422750715
Ti 10.112589790798946 5.87647180551442 6.926535882532082
Ti 9.46764837519974 8.312590808294518 8.000041416256384
Ti 9.79609392123891 6.0459517048642955 9.543816410243691
Ti 10.114619147919917 3.4081861727070204 8.182743715758273
Ti 8.857839898862203 3.904184396545628 10.503568156780013
Ti 5.909191375298216 7.290388572972304 12.543518979164242
Ti 7.375832465476531 5.966332378105105 11.060635665088045
Ti 7.144370108627208 9.633482085214325 8.343396352733839
Ti 8.937099547428815 10.266848667521431 6.130928668139556
Ti 9.825781867871935 6.421490697039222 3.930772970673167
Ti 9.378406838246665 8.98690113770745 3.879925046049236
Ti 5.7193041230856085 8.480719829588844 10.231907550878597
Ti 8.80403779786906 4.321582523788833 5.370407829241774
Ti 8.119138195427498 7.0971540593761695 5.722925827477628
Ti 7.181560849824588 6.876119923746146 8.58590915936789
Ti 7.7413024221729945 4.37308814777428 7.992170288525308
Ti 8.079902735308277 2.004551961032098 9.14270423618765
Ti 6.16744872191334 3.6258809326956483 10.151370847810924
Ti 8.318947409949567 2.0858135021338864 6.637145202311927
Ti 5.851072002224211 2.293940924183451 7.68585371144494
Ti 5.820116884418129 5.3451626870580995 6.22935263959455
Ti 4.84725718458708 6.156098974304143 10.19899005061265
Ti 6.523153437805325 11.469847490249473 6.352912583528105
Ti 7.414509218229873 7.7628268554638264 2.8837026302273325
Ti 7.289128290167751 10.563833968107238 3.9617351935281913
Ti 6.424628793607158 8.962170254812902 5.88593481179736
Ti 4.596519608242209 10.100488345600803 7.42563772434662
Ti 6.4541671992490395 2.9851554014602653 5.030307942011381
Ti 6.9569605354217 5.4255948937027565 3.669086476086286
Ti 4.721285230919552 7.502367188074573 7.705562837089182
Ti 4.97515238620872 7.358898241046782 4.5012861457339435
Ti 4.667718817107102 6.92858398852079 2.0388399229562317
Ti 3.1954719372062637 5.9312747670244566 6.206139930999924
Ti 4.311961285058011 4.382374075934996 8.369077899329536
Ti 4.576541953532225 10.64569478647081 4.698094381994902
Ti 5.528305741098803 9.396756796551212 2.5014890531766407
Ti 2.9530995191271794 8.733909490445775 5.765627779589252
Ti 4.033564236692679 3.3317257242313874 6.118104046884013
Ti 4.39673646936266 4.814123852669607 3.9983236104787894
Ti 2.5046240027141784 6.744718909414642 3.7939785604861282
Ti 3.2158729056723163 8.97060745807377 3.1087410858810345
