40
Energy = -265.97723624 eV
Ti 2.432133896577145 4.5336463593264895 7.017937372997899
Ti 4.076609011668504 2.757341968284574 8.367974416892203
Ti 3.3028911607802454 2.5893939194683893 5.745177853062125
Ti 3.435400246070626 4.9781355628729616 4.473276150935149
Ti 3.7796731790203797 5.45843580213654 8.941958100802335
Ti 3.7744218866723322 8.100779885335651 8.261590656742008
Ti 3.3980718545624278 6.898941239551598 6.200905740663541
Ti 4.183688007777088 7.9822805161353285 3.876555136478922
Ti 7.178312505148565 2.7715608925812676 7.985201052800576
Ti 3.559397289043035 9.804152665080226 6.174140682486446
Ti 5.469589016537328 1.63938138331921 6.3588464812474115
Ti 5.147169815211039 4.3152357677893125 6.636071754227053
Ti 5.3038982425314805 3.2247625844957555 4.021176013567078
Ti 5.7167467415265945 5.7104137118779015 2.342835031857356
Ti 5.638267078358853 7.851138163315901 10.031847906694
Ti 5.254076733418201 10.440543847412204 4.139640854505938
Ti 5.312999430186787 10.140774079309516 8.542535037314789
Ti 6.120573710541228 6.4410784480456575 7.881819545917233
Ti 5.861590265665757 4.522130177633175 9.668473254071719
Ti 5.996375102707019 6.065211676562508 4.590020043389206
Ti 6.742722917613825 8.398401611148264 3.3582735945240767
Ti 7.516553550339016 3.8743983712636783 3.0797208250659054
Ti 7.981436266050225 5.177465675883002 5.986744681948769
Ti 5.7624571568635075 8.585742237174346 5.932090907228098
Ti 7.691316171578811 2.456401942266886 5.340178251495984
Ti 8.224007507550303 4.900501718216814 8.919237194618441
Ti 5.761477994516732 11.356383236727149 6.394985101123017
Ti 8.209096629735166 7.221020522108532 10.230688911025982
Ti 7.395853499401201 9.782374373332512 10.159324295153413
Ti 7.625786681466592 8.414297681509133 7.873333285401703
Ti 8.640207715462216 6.079006861270821 3.2101446305468015
Ti 8.549994789437422 7.720199755817778 5.242450537137503
Ti 9.664555105281785 3.823713288226284 4.295197002403128
Ti 8.034226109078466 10.95477795429949 7.775396690213619
Ti 7.803673143523734 10.36778220464803 5.08073698989845
Ti 9.684592575985999 3.6411773915459658 6.9452639912435545
Ti 9.701187776569544 9.17455107011021 9.162377830254503
Ti 9.688817614355056 6.701438446906663 7.776693775467087
Ti 9.923025491460564 9.217851439235336 6.648856339161469
Ti 10.466147698616856 5.9361971366666095 5.3393436483265235
