43
Energy = -284.04530143 eV
Ti 3.87880422358551 8.127797263250823 10.137161329557715
Ti 3.350083680449133 9.163373232097486 7.950647132262237
Ti 3.2283034443951477 6.457298953328077 8.19839016699642
Ti 4.371578688064233 11.074412472922987 6.454827786762392
Ti 3.8252917716516244 8.076611374859008 5.7750312131938895
Ti 4.047567941843328 3.548666888397402 8.597260251592164
Ti 4.042563234873011 5.269474873203982 5.918924638373372
Ti 4.787298704962753 5.6326876254713305 10.27812287679689
Ti 6.273055447288982 8.003325104588725 10.984619823973814
Ti 5.482871223379345 10.228637312205281 9.067966443832844
Ti 6.311074650497366 11.437992484529346 4.648311349246683
Ti 5.679445377897992 7.562603088057213 8.370257621914845
Ti 4.680616406442391 9.718053627984832 3.9799104230236058
Ti 6.970799640930991 11.785248858145495 7.213667370070101
Ti 4.912772530020974 6.7255795441053605 3.6094024999221825
Ti 6.249622351037426 9.428272182620315 6.5601893471366655
Ti 3.6180451667040687 4.240487208390596 3.659444575384331
Ti 6.285522836024776 6.708128384738203 5.816001165237566
Ti 4.8006666839520715 2.68778150899889 6.093763002809231
Ti 6.288628982629805 2.0045024567328777 8.17360095809258
Ti 6.2593250364892565 3.460554443500652 10.096146707623335
Ti 6.1587369847776 4.600515552837362 7.619695927462733
Ti 8.086799717864144 9.411322971644744 8.47343051456245
Ti 7.408484775142312 9.954423017917817 2.5448788987959996
Ti 6.123256591685337 4.34520318756859 4.496251992729658
Ti 8.79622587741614 7.896489499122125 10.712551065241271
Ti 7.3671959282582575 5.690202626023672 11.033113029583483
Ti 7.172297734084613 8.616906282982042 4.179715732343221
Ti 8.93595002889406 7.663453611124337 6.231317282952694
Ti 8.148663075390754 6.411470485447576 8.574502578257851
Ti 7.500382023903834 2.568137657940841 6.0293610817565
Ti 8.574388042228026 10.757484470197136 5.140626265829892
Ti 10.30417559127511 9.939361827305348 6.713512095258132
Ti 8.319034925403296 6.4518175549952215 3.763399127310863
Ti 8.617191033285089 4.792244877080886 5.810033425456161
Ti 8.604219522330457 3.7132176718403453 8.43984721108679
Ti 10.391492745944173 8.012235985409854 8.618606158499992
Ti 9.969786379473472 5.599928159039101 10.182615982370864
Ti 10.089161525612003 8.735215526625002 4.113926943235521
Ti 10.68946054364134 6.0890583218901115 4.759423666695955
Ti 10.39752784645927 3.1510735515308816 6.615738181405949
Ti 11.665012147300063 7.900912586387528 6.176171497325024
Ti 10.643130126022571 5.669946226470822 7.502891117158066
