45
Energy = -299.33940092 eV
Ti 5.966707192841984 7.235587869572569 3.0522896932621393
Ti 4.546012398811243 6.595734388943085 6.966865160978047
Ti 7.27243577129567 7.3998393006902985 11.548567679766819
Ti 4.045552080820091 5.812954308681322 4.284859424194417
Ti 10.600134823453178 7.883877736515433 4.307073271999908
Ti 11.414871717630566 8.789530056154314 6.307818687236533
Ti 4.647006880934082 10.701206260796363 5.358753297162578
Ti 6.227009521820642 7.674400935483273 8.978588117983277
Ti 7.278762769582169 2.808049285716704 5.774408464846229
Ti 10.207732797693906 5.592998581267831 3.5229566581518683
Ti 6.351197584256018 8.495215529558314 5.813677842382732
Ti 4.011005738326277 8.525806328565231 4.216859593484836
Ti 3.2073265302640355 9.135292219298668 6.860406868433473
Ti 8.036065180986608 6.020120802480931 5.024105514239237
Ti 8.48821116997968 7.988885615156792 3.109450945150074
Ti 8.738687818860035 2.7010540819563045 7.848961345310496
Ti 11.193134879048452 7.574368444720556 8.648268918248158
Ti 6.9583482838019375 11.200468274212069 5.926737898773487
Ti 6.149389988097263 9.70756760098409 10.576477993093926
Ti 8.13157830566988 3.88638539200155 9.890132186216848
Ti 8.534718321279017 3.6355462777758443 3.703632158117618
Ti 10.034266056636538 5.019507266278732 8.193830586976677
Ti 6.0647701142837915 4.341311810886565 3.8770908907631303
Ti 3.8562566517142542 4.369176761289868 8.487485408496463
Ti 3.5197045226709744 6.229642113166055 10.021447977870151
Ti 2.6110241076409513 4.810351032111707 6.277667193720387
Ti 8.705934533548522 6.414316007478478 9.657911387473971
Ti 2.1239609638651986 6.7612148776773235 8.067844268122359
Ti 6.463990246646689 9.878335598005291 3.6382336057883777
Ti 2.258116357658905 7.192781277874973 5.5218966797789735
Ti 5.265644380663448 10.250334259446525 7.929843704337206
Ti 8.92746525512419 9.669164084253076 5.323305046339011
Ti 7.654481278774842 9.887679180146412 8.071815352025641
Ti 8.849706804692415 8.812996700494509 9.889059202230392
Ti 3.6144240817335653 8.755512518777769 9.506874391569763
Ti 4.921083724231658 7.512122880151227 11.398718702640899
Ti 11.348390685671768 6.186863916274688 6.104248065765639
Ti 9.077291173920136 7.592601187868514 7.1484274327578285
Ti 9.855813018599916 3.955990574417981 5.853591059530349
Ti 6.169626869555507 2.7811980841710255 8.421806846591116
Ti 4.825592063749272 3.594177850423831 6.1652386975718505
Ti 7.1404585120498325 5.0122148577563514 7.553915555243408
Ti 7.794221930348553 5.6301638672841685 2.3374482173777866
Ti 5.951183573207867 5.196800205296836 10.170222810947807
Ti 10.20992500681827 10.029875467196543 7.910406866307791
