42
Energy = -278.4984604 eV
Ti 11.02099358972958 10.048302442898473 8.754305145775945
Ti 8.618778054196083 10.69916875106747 9.4587179339703
Ti 4.496429946242239 9.641832816302655 9.072528079674505
Ti 9.716010832357185 8.389925174190848 10.32077669876022
Ti 11.472247687836079 9.247847505993578 6.462971155408782
Ti 6.7986867508857785 10.399150111658699 7.74933694120972
Ti 4.785938557459864 7.5977975282598 10.792047074689542
Ti 9.436725227744727 11.139178353659293 6.825889027830319
Ti 7.10880677368115 8.57371859507826 9.869490231819332
Ti 4.740898772624173 9.489938270192306 6.182074130047578
Ti 11.240352459522754 7.374372202254648 8.530279390169206
Ti 3.064138066142959 8.072724982925026 7.135623620290476
Ti 7.429602275566517 10.640908873075992 5.156703411784985
Ti 9.009877371896986 8.617330866665364 7.7223656652774375
Ti 8.752412238938748 6.200465081084767 8.842103909592263
Ti 2.787270063322843 7.658480223566167 9.317591122280511
Ti 5.628491604284659 7.4342139830499505 8.164456884739995
Ti 6.570286005743744 5.636914867812541 10.194091665239899
Ti 9.974839213234542 10.889831708520918 4.2104587211862174
Ti 9.657573722306916 8.694611952284982 4.778231512717119
Ti 9.853683076138681 4.186034776639603 7.391571354859216
Ti 7.782423677000086 8.965492929501846 3.0922059617787223
Ti 3.9598907150380716 5.427774837080143 9.357919887028741
Ti 7.217154633371253 8.054832970525368 5.597840353956321
Ti 10.188280972800111 6.565260108865049 6.138354136073025
Ti 5.409873231536352 9.249470043718912 3.7909360912982484
Ti 7.943136602163847 3.3587663038633044 8.978114278190809
Ti 5.23859573568839 6.524835227144559 5.661425718430809
Ti 8.525830223935438 6.332628763120725 3.7299151987231096
Ti 5.422114838765158 3.235993541554036 10.002057408530062
Ti 7.830889141142872 5.4904349525035325 6.417411559433858
Ti 9.437299322695614 4.178406981051438 4.839764889830356
Ti 3.1232407221478566 5.268735232461468 6.67372246406016
Ti 5.846257795008231 6.786038933225249 3.0138488483165338
Ti 5.950722217762188 1.8667412477962868 7.88508169118932
Ti 3.65165206476949 3.065266796127557 8.051417632230661
Ti 3.4748424827587945 7.6437781673270715 4.368830225191172
Ti 6.707988098342806 4.387354729047606 4.1590979693408086
Ti 7.757067414496787 2.703394552729791 6.281277077851291
Ti 4.010878121922461 5.037954325118614 4.008395868598503
Ti 5.850036336712482 4.506825921462943 7.756542567839825
Ti 4.915447316499427 3.1249283230066554 5.671890449198103
