45
Energy = -299.37607585 eV
Ti 7.01295434051434 9.408866526310685 10.901946063353849
Ti 2.640642728242496 7.5535134385367195 5.625779763773168
Ti 5.878647071173212 10.577105995416913 8.828204970358966
Ti 1.9273404588968746 5.313045512773961 6.793738380666046
Ti 4.982638502272261 11.376567578575742 6.458344906141698
Ti 3.8426055616975594 9.368712926937377 7.646088862963778
Ti 3.972519018140921 6.696782692885082 7.967744406537379
Ti 4.547677180345742 8.473339480542553 10.261219873433376
Ti 8.612629259401723 9.956226537249922 8.907943958547518
Ti 4.195437538860969 9.562930685901447 4.648457659955785
Ti 1.3890533492098573 5.951718820602526 4.091667203901047
Ti 2.8979602519688763 4.720616604847192 9.371347311372842
Ti 6.631390184642512 7.148757061871753 11.47980912355532
Ti 7.764696575090675 11.267637552213927 6.706938466671693
Ti 3.848860944549698 7.183377328980784 3.3599103582885297
Ti 3.5418808339501964 4.953823482298317 4.8145677310540895
Ti 6.542581641534098 8.402341892819408 3.547620272779919
Ti 5.215107902963034 5.608310359660913 10.01063282739766
Ti 6.494920842450152 10.893744663554159 4.412117092121057
Ti 6.223727911340002 9.105756102218479 6.35397879916875
Ti 5.337999792410338 6.726677507211471 5.554239671000089
Ti 6.507657186946822 7.743009336484344 8.8012760049289
Ti 8.96778920935011 7.552896908027079 9.991562788905595
Ti 8.822133672422588 9.670509767919713 4.586398951658002
Ti 4.464157145011104 4.07636555892869 7.358777252927513
Ti 7.961207592396342 6.3923407273291275 5.197014314872646
Ti 6.816459230429573 5.177652602390388 7.655857767589163
Ti 6.417087606593505 5.931619072608651 3.1205089772044596
Ti 8.698644066858249 8.228286917486258 6.999389370846637
Ti 6.2183301247481335 3.2780805323114826 9.410652182332793
Ti 8.019386384514949 5.133868410857894 10.245496902481955
Ti 6.3670428548268605 4.076286179183535 4.992005461749214
Ti 9.231583677659254 7.15576117368605 3.2442312349287863
Ti 10.880347510520867 7.940624621560733 5.468790234327176
Ti 10.295435223129834 10.209356363679232 6.699700862900692
Ti 9.385671427558943 5.865222414008176 7.661133454266399
Ti 10.85024753460198 5.351656311429215 9.457628895269558
Ti 6.743807987806079 2.5251262487454835 7.0793405362523165
Ti 8.583131638851278 4.476731861733302 3.5114737871670902
Ti 8.843910967167563 3.272992640830212 8.63055229653659
Ti 11.02776375199499 8.171736882640031 8.358081244461273
Ti 8.910150340562982 3.4001572182445865 5.848187641713261
Ti 10.674488489845901 5.310434242170956 4.910662112967439
Ti 11.997074724086964 6.19043254581585 7.085981266015847
Ti 11.049111930768879 3.849258524733865 7.179449472253131
