46
Energy = -308.22050682 eV
Ti 6.168443442700053 2.936609159653421 10.641742965602361
Ti 8.845214458581438 3.184594093796109 10.361699784021951
Ti 7.161569072136341 4.851535884524082 11.832423607301758
Ti 7.137267352154365 2.088843027815498 8.40184351219382
Ti 4.729179927261121 3.566492262089732 8.59443152900027
Ti 4.873923781061564 5.306449165673027 10.383106311226701
Ti 9.134124883673078 5.882574504732532 10.857574557332017
Ti 7.29660359983264 4.846922072834699 9.126443190884759
Ti 9.699657809763455 2.4197417323752295 7.675526704846438
Ti 10.354002074392078 4.900025476478921 8.790778965115802
Ti 6.796356181558123 7.179784767619878 10.469311142097336
Ti 7.675808399236742 1.9800773624026298 5.795784698475265
Ti 5.7991574790116225 3.7061834546745103 6.384619953863822
Ti 3.3157946602367643 4.631037343262499 5.894711067995313
Ti 2.764045294777197 6.326995967378308 7.99833824189924
Ti 5.5099659608730835 6.165557768488198 7.897726012602104
Ti 8.44458717708482 4.465501487846815 6.604027646513501
Ti 4.013149462146969 8.0734798336131 9.051880830691738
Ti 8.83710275108581 7.324052523803337 8.73445550143242
Ti 11.12231311580311 4.3482827824567005 6.380119513852263
Ti 9.790472970108198 2.8910245583312886 4.928513560510315
Ti 4.711994661581474 3.625886470011206 3.956268654617893
Ti 1.958408743120215 6.664426141981891 5.594057278377187
Ti 2.2203094586195635 8.971486491343247 6.924764637577482
Ti 6.581699862776968 8.787505574614107 8.149377230815404
Ti 7.421400335997843 4.105736453737205 4.069231464558922
Ti 9.626579530912002 5.623876124038113 4.414096871543296
Ti 4.375097957005961 7.948782952333638 6.307864767555623
Ti 3.25927724174425 5.863836843134175 3.412071010418077
Ti 7.677463145274407 6.932640170031057 6.095151507688062
Ti 10.261933042260566 6.781774511140547 6.675210963883538
Ti 5.704214568272066 5.275384663565526 2.2444886686586605
Ti 5.555846559704016 5.984404012803234 4.760519478692401
Ti 4.358992159302656 10.225296115494498 7.973520820628655
Ti 6.386285231964745 9.108659274317397 4.875395157100107
Ti 8.60599544943833 9.42869864457643 6.653308759452611
Ti 2.874958755025636 8.601870746636962 4.122013443617964
Ti 3.8686530935949053 10.789058502841554 5.480705617785995
Ti 6.368210997964232 11.182562383999212 6.627921363019653
Ti 7.5948161910597145 6.959905117671038 2.8585162240631368
Ti 9.016636435754057 8.509988640571443 4.295587274491737
Ti 5.096277813111643 7.798497139690462 2.4547351898680536
Ti 4.546183485755981 10.185946728915354 2.9909257528599205
Ti 6.002274432729166 11.732217445502902 4.101424871148047
Ti 7.140298955140301 9.798294422188446 2.500909846609851
Ti 8.305055402170087 11.025102562770034 4.644477211268071
