45
Energy = -300.56860538 eV
Ti 7.892922424730357 2.7956336951151046 3.7483954121317042
Ti 9.542283893845239 4.12693397512067 5.628903970101981
Ti 7.326799720955916 2.759256631848741 6.303165990101938
Ti 5.3568893794458825 3.0832134421035655 4.530956967882375
Ti 9.008105736282603 4.972300492561254 2.8439474780797522
Ti 6.256003249921106 4.242290108799722 2.214643401505005
Ti 10.430092366892405 6.230640193882086 7.222425619285622
Ti 9.518782309611389 3.632478343357794 8.272660404915094
Ti 7.042293661723713 2.5962877993288322 8.877157311291354
Ti 4.955095536803983 3.4139937141037464 7.427477154044729
Ti 10.437901216159819 6.291117298983135 4.636299328967521
Ti 4.031076454091862 5.2397912351981235 3.5053526926287795
Ti 7.1296207920424015 5.036494269397153 4.7128215293407445
Ti 7.559123926057485 6.402871371499576 1.2793579200307617
Ti 8.090231815748181 4.279004264953257 10.392288475007026
Ti 8.915866501840837 7.734806929795569 3.129891041308939
Ti 5.081741900867762 6.331770095465195 1.152588611311357
Ti 8.193583352536356 7.259645645148122 5.927172004923508
Ti 5.409294254592202 4.457931076329144 9.838706469918161
Ti 7.404795049237711 5.033765623295745 7.826917652959487
Ti 9.534459817783032 6.203408723532147 9.592485381023412
Ti 5.064056582313772 5.6971626955012145 6.227814828346021
Ti 10.139314438740314 8.74920923466533 5.5459792475053895
Ti 9.746829248077496 8.69155127363599 8.383320619282873
Ti 2.9749682088125744 4.63068407630756 8.995019494351563
Ti 6.051893353440376 7.1673804509443 3.5805801867649425
Ti 2.445598179477205 5.748649564084979 6.691249366926474
Ti 6.638199046375359 6.375948669145838 10.964101652777389
Ti 4.5944416326461655 6.891529906193497 8.642016858090084
Ti 7.270368403806839 7.673391446960124 8.570069197034188
Ti 7.900862186558657 9.866210753337215 6.809347045265555
Ti 3.7522152504590736 7.901571690964084 2.300187124855772
Ti 3.5671365265814887 7.411757870635977 4.826357890949254
Ti 8.51477073969371 8.312953970298949 10.832307214874582
Ti 6.2969146041909685 8.735171242120956 1.6220222769126302
Ti 5.771331496051379 8.323779586359407 6.158618088989425
Ti 7.588757427136487 9.452811906498573 4.196415171530802
Ti 3.6224921161244654 6.388726580365673 10.942290222314703
Ti 2.9621191618919216 8.50864474881561 7.141687183445341
Ti 7.677714781602783 10.166695516058502 9.365043201926822
Ti 1.8498105463676573 6.870897040949108 8.950714042549192
Ti 4.914270409223083 9.584736023058179 3.90822598650548
Ti 5.736635611481171 8.66350926415158 10.621596829283737
Ti 5.152962976147227 9.716702022205515 8.340457372948727
Ti 3.1291416012545055 8.8264574265484 9.800731969435047
