43
Energy = -287.06596904 eV
Ti 6.583875303669391 5.4430214805450925 10.775840386487033
Ti 4.7586723213730915 6.193236089028773 9.187300322646443
Ti 6.6818568497927835 8.061438860721625 10.196482315666666
Ti 3.120302828013938 4.1091320835390635 8.285609821068432
Ti 4.235784896077351 8.633067855222642 8.711355463536226
Ti 2.2456393799513847 6.660197805538301 7.939989365526256
Ti 8.400224211030176 3.991782560831444 10.224206608119946
Ti 5.978634192631611 3.538214958530718 8.772195204329142
Ti 9.049999676619029 6.6661355146360215 10.153538272933588
Ti 2.3507830109782493 9.228805815062168 6.8888028658488665
Ti 6.440904183185684 10.23007379617755 8.70610790546882
Ti 6.54739393034569 7.9436625387320055 7.42856754455156
Ti 7.594931585437947 5.441489110796089 8.205114287293975
Ti 4.207923704800823 2.8994347197988475 6.02999840884013
Ti 5.030957358720124 5.143085167334621 6.8936106778462705
Ti 1.4565145813292752 7.337206933475213 5.479024585116472
Ti 4.896907283904461 10.049667044157465 6.51646603536106
Ti 2.2952955300059026 4.898860301596459 5.827294540256732
Ti 8.85464238052017 9.124554349822397 8.986244836283506
Ti 8.658293871411061 2.954266588971612 7.946326982634272
Ti 4.10989283432172 7.481557842352535 6.136566417496264
Ti 10.30111703075559 9.683515145829952 6.890929658125993
Ti 7.813622315176695 10.142217342278824 6.488347627074628
Ti 11.29990108730956 7.6911569168547755 8.384818492619482
Ti 10.435787539071159 4.910022603681099 8.694145004268153
Ti 7.055737614634883 3.7699041618960085 5.929526862988166
Ti 3.237366884400514 3.7928199103152047 3.703741990959859
Ti 5.132110542357252 5.663469112815575 4.335854424311196
Ti 9.385124415392792 7.067718737853624 6.9542915270919545
Ti 2.7049985888010593 6.400113761271441 3.3678576077809526
Ti 7.381427648735017 6.509984620370986 5.211478280202837
Ti 3.2174382776911696 9.022938806585975 4.278098150771604
Ti 5.6298020504170925 3.0013727427194112 3.7323420961172094
Ti 11.482276243282802 8.006063137113577 5.60403002507651
Ti 6.124294039520178 8.86452811164704 4.53277163043033
Ti 9.033089968662788 8.660011063461738 4.621607875124479
Ti 5.0036286849394145 5.060630267389954 1.9965429618583972
Ti 11.659919349071343 5.717175277492439 6.491070022243246
Ti 7.528697212027691 4.505399308792018 3.2585391702631146
Ti 9.713092018115127 4.171066061323389 6.128124687371214
Ti 4.777351447200807 7.7497226095483125 2.534542143475026
Ti 7.190714999813046 6.879400470064169 2.663770821682584
Ti 9.87834685222602 6.187153137546347 4.392200816573929
