43
Energy = -287.11730037 eV
Ti 10.850784785802967 8.786119259236647 9.106122099936842
Ti 10.405867664447834 9.256204800845072 6.590358552628107
Ti 11.23940315808546 6.714714461862766 7.371468841082684
Ti 10.064918587447957 6.337933468306455 10.086220290734856
Ti 8.683514562484268 10.174884281690684 8.28375410195163
Ti 8.566234493467928 8.670202281749942 10.36749834548299
Ti 9.765525213188916 7.293384282114568 5.077574728167779
Ti 8.854113651582908 7.549368573601091 7.912042538179198
Ti 7.656314877608225 9.14580854710567 5.931175856678397
Ti 9.988416243033058 4.684096892343674 5.935990234912318
Ti 10.778974278552807 4.394883742216938 8.541589982632214
Ti 7.5039854061438405 6.272608697280615 10.567946935469092
Ti 6.506243487119955 8.494225279213651 8.541872545392323
Ti 7.269378885525582 7.7991145810049405 3.614887757673773
Ti 5.4403453038990115 10.315700661165446 7.125600315071192
Ti 7.720666369835522 5.163083153652797 3.627025256277796
Ti 7.408858361548303 6.317156210384128 5.806114280493301
Ti 9.248915078994035 2.671870389661537 7.6844103986757775
Ti 8.15835583310049 4.9931923712327375 8.082367463512748
Ti 5.393170727476474 8.517960422144066 2.439626179405331
Ti 5.285113477650137 10.271101724691656 4.480416498995707
Ti 8.617409639347157 3.726624426094322 10.12387259185847
Ti 5.584380685887712 4.024942549281858 5.807420168842177
Ti 6.000897703756879 5.9178762723910365 1.5371458506661404
Ti 4.932327876190706 6.040529290218944 3.8597621735665304
Ti 7.785636240783502 3.3225757776980087 5.667866858781752
Ti 4.990924897001713 8.016278820824205 5.711655983383605
Ti 5.581411947453216 5.9416430544192815 7.9838650962270235
Ti 3.56780587439355 7.097662841669801 1.693703309411148
Ti 3.185578629232846 9.940560355964726 6.114200760895183
Ti 6.67198810136083 2.7341871157022717 8.244064665650894
Ti 5.0852116441564625 7.080826559292816 10.348847096519645
Ti 3.082897125283576 8.789591024185164 3.7249473849347465
Ti 3.8131407920482214 8.133776156818886 8.175448336140825
Ti 5.698347584833854 3.5712071292579854 3.03810604326064
Ti 5.7386895793529105 4.353444355018936 10.179310550506669
Ti 3.6183623684728645 4.668747741817704 1.973181903982653
Ti 3.434634200879889 3.771682589199143 4.402033841927112
Ti 3.4126950396319864 5.561477529809404 6.4560035516365675
Ti 2.229043670102455 6.137530147726733 3.882122066643701
Ti 2.179233700893876 7.706273613816602 6.048555979409222
Ti 4.182561744992008 3.586760836898505 8.087702198886536
Ti 3.3202379946069285 5.554705218049445 9.268637871174322
