40
Energy = -265.68380287 eV
Ti 8.40239437152207 4.7767239989513826 2.10547851527112
Ti 8.860674818837122 7.4484026182635406 2.8455063372845455
Ti 6.575180988305173 6.3632953999323565 1.8731339714240058
Ti 10.120845556018713 5.281740728668225 3.867586239586547
Ti 6.339751471810167 8.51523932904142 3.1741972903559263
Ti 8.6292218929168 9.872870144353808 4.612803477196345
Ti 10.081543095284436 7.351264093459491 5.3513942195559805
Ti 8.468160634480952 3.2796769319868795 4.238275305054941
Ti 5.980688017064854 4.0295020782047555 3.1323352177710566
Ti 7.460274351011688 5.778609182177603 4.433425539295542
Ti 4.391914631386754 6.477609874359809 3.292784719555048
Ti 5.732352938782005 10.3613207151391 5.401840394133749
Ti 9.552061175988172 4.830048121011345 6.370550144942296
Ti 3.981038543191964 8.885894719405535 4.2737714753181795
Ti 7.631950250943236 8.272775073772856 5.6248034745999105
Ti 9.179838360436486 9.308940079790556 7.763673643228635
Ti 7.60712413601778 11.015503738305473 7.00384646108469
Ti 5.352440575367161 7.099050947856356 5.7524037015053855
Ti 6.418145177193294 3.4032403129527875 5.71273913936799
Ti 4.028523112102522 4.719023206272464 5.378008632925618
Ti 6.0541342696550515 1.9021429565271533 8.058511373275707
Ti 10.13454133599145 6.918950674255215 7.930768749998684
Ti 8.050056723546332 3.1893833908801006 7.849357239761142
Ti 6.2806160466849645 8.646654865653629 7.925644040420314
Ti 3.941489145179317 2.504448989444978 6.71131541163802
Ti 5.332851417178891 4.537474212981737 7.848489402061881
Ti 2.7867777279133423 6.940926299821667 5.613120886420719
Ti 3.673293844324693 9.264212239394606 6.930909805641545
Ti 5.268879855414015 11.084259982491442 7.998560834980857
Ti 8.843642683689117 5.069174824909226 9.290154533334
Ti 7.2725137386459995 10.301323064710083 9.540943109068124
Ti 8.43172665805236 7.743248254681261 9.699581726301174
Ti 7.528762456930851 6.262372309677157 7.456205943402334
Ti 6.471460463927706 3.7218187318412923 10.070939629380197
Ti 4.022052275412559 2.714866242718898 9.343092546477095
Ti 4.545733595223616 9.082766956006626 9.683348170410484
Ti 3.9189093739255276 6.897214725700344 8.125501599013539
Ti 2.62487373033487 4.454984151190745 7.861401067852642
Ti 6.119495014193609 6.609270591091264 9.837660559706581
Ti 3.967245393813539 5.146955090816311 10.079115320096305
