43
Energy = -284.64555012 eV
Ti 7.2006780931648455 8.04478313983691 1.44253891644025
Ti 6.815763776012057 5.6275831454642615 1.0458345840867778
Ti 4.8189028628362545 7.219728194306612 2.0199886029004426
Ti 6.173020607802073 9.173486673942763 3.6666538818936556
Ti 3.944243701609976 9.102380904241315 5.00249024932411
Ti 8.814514864276338 8.943272727455735 3.001327437577293
Ti 4.945974494088418 4.63878928555539 2.5098206357314363
Ti 6.047839545440278 10.42793192862158 6.1330116275006965
Ti 3.8246713869128337 9.717691243531615 7.393971759488692
Ti 6.82008654568433 6.332089859580555 3.560745824971945
Ti 8.692720690455696 10.14495485372202 5.102875487110286
Ti 7.677713486807727 3.96615977159231 2.9916784343696365
Ti 4.567284707073307 6.466505920258042 4.655966398986682
Ti 10.420648977059406 7.708283576798651 4.51411112164383
Ti 5.3949898354072054 3.612805338592558 4.711142496132992
Ti 2.71121270609516 4.972636477762023 4.527194408768912
Ti 2.9553254192540535 7.171705155549699 6.754086389794177
Ti 5.6240449959725325 7.864937861229653 6.714975818200816
Ti 8.01014071757904 7.708535442893269 5.3525103182381795
Ti 5.962519512731003 9.397330378550432 8.952793184088073
Ti 9.19707092646717 6.327531315272525 2.3833176234848925
Ti 9.466639493955043 5.077069448915792 4.827443146862424
Ti 7.8674349966892105 2.9937366673868886 5.3965896121539
Ti 3.6290871296187883 8.072391090679615 9.339793407873666
Ti 6.978487295879238 5.379082527886737 6.323601779718397
Ti 4.156362723909785 4.696314354862646 6.849041608793023
Ti 2.6282783991257106 5.511295297038698 8.794363284410803
Ti 8.283934340890422 9.269561107370441 7.529973202127251
Ti 5.402722975506007 5.971125471448715 8.916438039543017
Ti 6.288552833182077 3.16302875730547 7.464344783920197
Ti 8.1565307702146 9.18788269571268 10.349736360997756
Ti 9.931247687044989 6.577934049166885 6.993540490325209
Ti 7.923454071686011 6.972157080075316 8.706428678739261
Ti 8.977677719848804 4.092471393289762 7.463886134623193
Ti 5.732883194254774 7.699291174610417 11.098571965659364
Ti 3.647880473119346 5.961442185922819 10.979010316080384
Ti 4.388721379025535 3.7029504484882816 9.632091173264177
Ti 7.475205895969334 4.05315601885165 9.677310498252442
Ti 10.297563736706534 8.27554020233579 8.950328199136727
Ti 9.82153186216524 7.641565104938756 11.236499282863653
Ti 9.981721540765193 5.550821244302512 9.619646165391122
Ti 5.742886762666677 4.917936943117145 11.477716210813536
Ti 7.947934331160679 6.01950176087328 11.299871351964574
