46
Energy = -307.97372578 eV
Ti 10.42027457331564 3.522414769616228 5.662718094275492
Ti 9.078875277836929 3.4604747768844284 8.081745760705397
Ti 8.266449900494807 2.886880946022764 3.921589507402885
Ti 7.894133795326714 2.280128934201581 6.473475563513646
Ti 11.11778961663765 6.169322325744053 5.3176118858903445
Ti 11.170950898733397 5.114202291743161 7.909035705031062
Ti 6.847090600967841 2.1443265732779375 9.083407975712333
Ti 9.201105556719899 4.914642375709724 10.069013214167915
Ti 11.509050191299153 7.73218781131255 7.4956483678097765
Ti 8.224624287402454 4.94679063828224 5.511316278157305
Ti 9.753477046122608 4.8659971558654345 3.389817691121836
Ti 6.496772344430528 4.6569690548389024 10.453643452692514
Ti 5.769716541277984 3.6004810606248205 4.9191056911704045
Ti 5.237300449081935 2.0155723672725365 7.041273092585199
Ti 10.157352324399369 7.246199353709843 9.782062603689257
Ti 7.088142569584397 5.134672826721501 3.116291939997389
Ti 9.239730235959229 6.6909080418797044 7.190210298485473
Ti 10.052460154445168 8.830363440365906 5.506123285362448
Ti 4.499167526031591 3.3605566711672785 9.142786220402142
Ti 9.300016207836604 9.323067340150663 8.051861785191827
Ti 7.425231092967055 6.658584852225682 8.91692861974977
Ti 6.456893067015401 4.379538721545582 7.720510479975467
Ti 8.744131088581197 7.227863956787204 3.876108930272913
Ti 7.506380670479445 8.584824136011655 6.072251770708511
Ti 5.919037220917986 6.2845829152338935 6.009537238683706
Ti 7.648151748069784 9.135185068120116 10.11225902843869
Ti 3.837035622377785 4.238624935342612 6.664401366210163
Ti 5.744905577704327 8.62852193088137 8.15146229748866
Ti 4.493228124237706 6.062207576722189 8.712327342773271
Ti 8.011766027809943 6.757568174446506 11.425387737043394
Ti 8.651710486055167 11.02911256271005 6.036170039133637
Ti 6.133267953750234 7.6488525381294465 3.628188617427817
Ti 4.05780308292503 5.913237124139711 4.420276380075459
Ti 7.699802264496131 9.974851082960448 3.87629721321576
Ti 5.5319812048464065 7.5421212327969025 10.606204817031877
Ti 6.983768834722169 11.082892847020284 8.120373028898081
Ti 4.7858384287265165 8.793480434933626 5.760169804704245
Ti 2.9186484191413467 6.953925570265459 6.637104202359912
Ti 5.182846100380596 10.233254139413788 10.014061958544573
Ti 3.2388293951108946 8.707642157321981 8.836883040047425
Ti 6.060548960876248 11.363571075908938 5.599493443265035
Ti 2.875846479125508 8.488902866033284 4.221466587335392
Ti 5.0669836151542444 10.056752645621996 3.393022502478658
Ti 4.225432502436442 11.033931923115968 7.655896996589021
Ti 2.2492263702564115 9.502208811268567 6.590491699810085
Ti 3.4552261890928175 10.999347274320085 5.031102468271601
