42
Energy = -277.82701894 eV
Ti 4.181804586349282 8.977784972002661 10.67102318423577
Ti 5.800832872101131 7.288618420125741 11.785562917056929
Ti 4.762416483910231 10.796002060094892 8.969377077653144
Ti 2.865580360863109 8.853171291733746 8.568865314616898
Ti 6.646840079487223 9.364660612765245 10.453074841637283
Ti 8.32151353747014 7.052827586927439 11.546873661185547
Ti 4.463763680216992 6.624070279663064 9.683925806050867
Ti 6.4551914237757 5.001193269823241 10.913947050218328
Ti 3.8357618561712226 10.454377399845379 6.629947422181148
Ti 2.7887296162042863 8.252482123268665 6.134475802562463
Ti 9.129721422443358 8.77919233135218 9.501625089986556
Ti 7.42700486824071 10.572059429385543 8.245861377095341
Ti 5.448765561694027 8.560127869906559 7.761516175911833
Ti 8.974244103412516 4.696219313988337 10.887312174681506
Ti 3.239708719998071 6.163549854491085 7.402096045817472
Ti 7.345515898381525 6.741673721841683 9.108187492115855
Ti 5.6034457257581725 4.835940372111852 8.25939899023757
Ti 6.496621548275017 10.345207850165576 5.769890783485208
Ti 8.97585064877521 11.434182913119589 6.176581574922088
Ti 4.610805967200418 8.81186360543054 4.567197615769335
Ti 10.230817726476173 6.459883262277967 9.519637665316376
Ti 10.502727580075907 3.9517049752259212 8.945102690711701
Ti 5.924745960735913 6.526785877127126 5.897387499516575
Ti 8.014903759572766 3.7541025196903064 8.65595845113352
Ti 11.31732672983713 8.162169735244259 7.859984195181783
Ti 9.083555149564488 5.953930106943039 6.864500484265805
Ti 10.207029345164374 10.471411112734414 8.049346863162645
Ti 4.378351201105728 4.194576124126426 6.2157899754404085
Ti 3.49391804997285 6.214982407782807 4.671926435355213
Ti 8.587829133429674 8.721859782249764 6.56076574012885
Ti 5.57908598054721 6.755358987227028 3.1445939441222204
Ti 7.163862533192282 4.03855944782714 6.115070384136411
Ti 8.780216377090811 10.129674455819947 4.159707916845774
Ti 7.200100736728362 8.327527247097597 4.009156163034513
Ti 11.705905640149219 5.2759542605471035 7.22199888546936
Ti 11.670026685976513 7.1823339363567795 5.599633296364719
Ti 9.826183918747548 3.4302960286280575 6.556419286373669
Ti 7.933553251354237 5.693298641495162 4.187863767820981
Ti 5.4663050026792375 4.504466006997262 4.0400572367080425
Ti 10.59597124778228 5.081678936665838 4.771822732404437
Ti 10.952332043857384 9.706817868869416 5.611154570164806
Ti 9.795939580564147 7.6394512454128565 4.090274666956252
