48
Energy = -320.24804406 eV
Ti 3.6564030991852277 2.6016184745198556 8.503544147385362
Ti 6.072125237418311 3.68511005865793 9.413976964747258
Ti 3.2584593159280018 7.57830124836642 10.291183411858714
Ti 3.6952587336453444 5.048812364093006 9.442421840023943
Ti 9.3454545782451 4.273498627521166 8.90226936188042
Ti 1.5207066084820462 6.6717049737447285 8.623589464418664
Ti 5.571513155024425 6.587508092955089 10.784124788960815
Ti 5.367926635120624 1.6511093743975607 7.140143409306719
Ti 3.3764569865653438 2.6321494445279257 5.772835334683878
Ti 1.8731032123743763 4.139348531352989 7.406341515764443
Ti 5.1845803350984765 9.148060784407264 9.739563226007839
Ti 7.584763258224404 2.7657093403439212 7.32216126502291
Ti 4.96036343167565 4.403315966039112 6.9328575555895
Ti 2.9276266221902754 9.079949361746179 8.161494326342538
Ti 8.089004468529174 5.649208677064773 10.77788478945284
Ti 4.901702108596104 7.200376168031527 8.158129276044113
Ti 1.0175556252722646 8.349337609689396 6.6809107040890074
Ti 7.1600497345542875 5.775761809141383 8.426294981539233
Ti 8.641676697315097 2.6993924072106754 4.669856684227043
Ti 9.548443608622858 6.959008779788178 8.986979686298666
Ti 6.080807274575583 2.917849049420729 4.915490825785086
Ti 10.046743047827857 3.334261364508101 6.611720427218066
Ti 2.0107168361954706 4.717512625924655 4.620723320438429
Ti 0.3976577757136994 5.925320444938864 6.255076216952185
Ti 3.0402541386490958 6.46628680845563 6.318546362113452
Ti 10.428012042943077 5.870782171031761 6.974575045842202
Ti 7.862230819087106 4.980275867357789 5.85876775151274
Ti 1.3876513225621958 7.400490793879744 4.376132061016987
Ti 4.700556565222154 4.624808372498491 3.986566185053313
Ti 10.347781319691526 4.861199766715625 4.597300221126861
Ti 7.501699078169825 8.082636862722815 9.86798678994647
Ti 7.582424676951894 4.654454085159684 3.1205887243339934
Ti 5.848529048245303 6.9084321908721185 5.365075342870265
Ti 5.487079225202977 9.408661372888428 6.784468069218432
Ti 3.705978337759024 6.871391910027416 3.6467589494717223
Ti 3.3073343086926985 9.035688236211257 5.434613537303059
Ti 7.718719095157508 7.917690310532505 7.001505862363336
Ti 10.133821613529829 5.389777168643489 2.2101047759571446
Ti 8.705586720168004 7.101797169543218 3.8824036363370142
Ti 10.048064742439065 8.329166399818142 5.9486309389178995
Ti 6.202660007564159 7.0318205345273155 2.637915903224348
Ti 5.535268111376696 9.144324292654014 3.875153487654064
Ti 7.863605656562596 9.552255848076276 4.846464595296542
Ti 11.45945291034224 7.169799907127761 3.8305272209025834
Ti 8.158801889649455 6.587753764275829 1.1941881962107115
Ti 7.923705067523812 9.100319689950217 2.1241105607586737
Ti 10.115385147323407 9.427486056921175 3.6099339356696625
Ti 10.29213817028803 7.9096438269753575 1.6090768694555548
