49
Energy = -328.87221772 eV
Ti 10.70007357495731 4.710187023212197 4.373631573392176
Ti 11.03603173608583 6.809671212142124 2.956144083612525
Ti 8.705053486658077 5.612379096210538 2.711457262100737
Ti 11.873373256983873 6.837662384418677 5.560171509615687
Ti 8.066237597832687 4.384078254761607 5.064332592349061
Ti 10.081961526222015 4.974944332617812 6.993062344755447
Ti 6.240897402988593 4.104701301259607 2.990889741114522
Ti 8.64514171786101 8.217967450226936 2.7286965975285753
Ti 6.349729866485227 2.2011583424821604 4.915822956095311
Ti 9.340323647886482 6.941454795510336 5.0420509087619845
Ti 10.958314068691049 8.949222911784824 4.039831522241037
Ti 6.184294290132265 7.051788572578836 1.826982850792602
Ti 7.057673869146892 3.136732390090453 7.389571797773589
Ti 4.250464880301236 5.405599790678441 2.8930406686760377
Ti 11.304342820060851 7.072632285948458 8.078768752769344
Ti 7.30380990891101 5.716913816202928 7.276336580969265
Ti 6.62797537725235 6.719636449590343 4.184884988560852
Ti 3.8927523304627987 2.988163288380692 4.117938767890335
Ti 5.284469623875427 4.572522155536069 5.527900923316621
Ti 8.652563914520918 9.899937291526982 4.859680780816023
Ti 6.249493764847546 9.480489573478016 3.5088716750235087
Ti 9.46902049210198 6.071926918632319 9.460267722205831
Ti 10.83640531392717 9.240770103663765 6.6251831060596835
Ti 4.444942680379249 2.1566595948974925 6.80953939790848
Ti 5.381203255035387 2.231091315073662 9.309041594474731
Ti 4.739207648238777 4.565541596349492 8.283865565704895
Ti 8.683451777357698 7.764819652098791 7.539366902792665
Ti 3.936364830090495 7.796134721942746 3.5205509916676268
Ti 8.625347781245456 10.515295975938194 7.332807496279756
Ti 2.439578255728161 5.555905773807538 4.689208830268771
Ti 9.777909620632759 8.877915766127662 9.317382180499521
Ti 2.567996575464551 3.626289208000897 6.36493860570967
Ti 6.992740185399726 4.470047449458724 9.862571886540145
Ti 4.1730658392196815 9.778623719401567 5.041677494710898
Ti 6.264999232445644 10.987755495313667 6.134428075847321
Ti 4.171553259469776 7.003831008988422 6.1907410108308865
Ti 5.265202292281539 7.148234658074331 8.528168335634613
Ti 2.775787409454745 3.2484498884523743 9.049420574061939
Ti 4.553643181434451 3.9532850149737637 10.901021922217936
Ti 6.498619376250011 8.592462632693834 6.254438584539578
Ti 7.4471756144460795 7.366912525883385 10.022201963636276
Ti 6.757714562338827 9.681774621144024 8.780088014384651
Ti 2.1702906818049934 8.166642262642315 5.898637924059498
Ti 2.060849669466489 5.7023157467838095 7.6052569241478185
Ti 5.443202972223875 6.188527316110899 11.173396036256374
Ti 2.998592034439288 5.990850983584797 10.223373732713736
Ti 4.230014755461066 9.581163778637306 7.61026701852642
Ti 4.477895291988535 8.508587554605185 10.350665782674218
Ti 2.5319471563190588 7.960042404889102 8.601123854299559
