43
Energy = -286.93617813 eV
Ti 9.909362925605507 7.453320066682269 5.202454578802749
Ti 9.691538018490764 9.66100827165896 7.495142095461625
Ti 10.240898469264788 5.329644233837665 3.650982421353783
Ti 11.012522135149647 4.851971703492664 6.129923847156593
Ti 8.17479925810447 9.464919931203509 4.954669709466192
Ti 11.137643995027602 7.214750664103392 7.381398065710367
Ti 8.116952967509746 6.980086528252373 3.2680626266471453
Ti 10.11732281829149 7.755078250955192 9.433057295704991
Ti 6.714255537824084 10.141680451102271 7.2931936495743495
Ti 8.169589730657624 7.8983191784541225 7.39955794018112
Ti 8.188097739434726 4.239053501477114 2.69908986025513
Ti 9.448663282396272 2.9561225656143004 4.762879583630534
Ti 8.021793066734416 5.038277725259922 5.178094215181164
Ti 7.952438958922996 9.164519066779812 9.687889921011115
Ti 5.597467126841541 10.03367176324935 4.817530754228528
Ti 9.753089457760101 3.014179080257511 7.4623069606447645
Ti 6.53132599822511 7.409168507483731 5.4135625482507725
Ti 10.561515102841561 5.020519104558018 9.142044761601383
Ti 8.893814319442415 5.513786488194819 7.671034453541588
Ti 5.28801137969501 8.047716368240726 3.178452247193056
Ti 5.7685679211010354 5.358937948698636 3.4541040393643616
Ti 8.160722849215679 6.306768854301473 10.214627532312576
Ti 4.1537799765657555 10.94645520887554 6.583388065322445
Ti 6.343302066682933 5.397971278566943 7.421076617794674
Ti 6.76908637422672 2.8109294106845533 4.226334572852433
Ti 3.3032018720358844 6.649313631241421 2.756280373124976
Ti 4.522782070484602 8.373279943675014 7.084394693507256
Ti 5.928767586189414 7.675694958266416 9.15769777704833
Ti 7.886759978956148 3.605148780167955 9.35485226101682
Ti 4.010324292217579 6.236985259281501 5.3005240177565
Ti 3.0748944260618902 8.769026992215007 4.826721489210228
Ti 4.50180305328692 10.096627850213716 9.045651122012643
Ti 7.33091287173811 2.602663772723837 6.833284056317517
Ti 4.94021561665071 3.7516898079949565 5.846900866291244
Ti 1.504167446106071 6.304629079125287 4.506290944557694
Ti 5.783296583526182 5.161641074347881 10.052509495461234
Ti 3.912529090560343 5.580942823071043 8.145645597224442
Ti 2.2656586617637435 9.650218458133748 7.569177381901979
Ti 3.1492285932241217 4.29152167988204 3.80689069720308
Ti 5.277723468080824 3.2082799408143896 8.458084338969298
Ti 3.153816929384357 7.904188950684665 9.349683051076811
Ti 1.9307804739352312 7.12838244281559 6.987613509880508
Ti 2.266073399457221 4.460406293032665 6.256437853868635
