49
Energy = -327.36963386 eV
Ti 1.4485657172762119 4.444468846284151 5.523604256700927
Ti 3.810677198576905 3.3817373237620068 5.228240232196825
Ti 3.1385124044552897 5.47763858201267 3.8096830044715952
Ti 2.6285519262148123 3.501677714471243 7.630541683349086
Ti 5.188094946489334 3.5965187101706793 10.082828653423501
Ti 1.546332001103257 7.018518691340511 5.303315126778091
Ti 1.3441420645970645 5.900567226313032 7.740362963343592
Ti 5.442002426029892 3.6343406792836994 7.260555432316853
Ti 3.580517239908067 5.325639618265367 9.213035652788431
Ti 7.611121164568795 3.093151600857708 8.897284408741665
Ti 6.764993246402874 3.5286224799113914 4.570015661152258
Ti 3.689525608173412 5.7439455031448885 6.545693851887551
Ti 8.660893307531365 2.5698157185527997 6.154072478424611
Ti 5.683649738311028 5.5844926076246875 4.81353259336547
Ti 5.369648716813529 6.215890863559481 11.261203506680234
Ti 4.025565501227179 7.895364954792553 4.6066533904050875
Ti 7.35138221731685 4.543750562407291 11.221548963494723
Ti 6.3544750875150555 5.592412989828564 8.952848723829641
Ti 5.890157831408635 7.721945899173357 7.427718039909071
Ti 10.0449912048988 3.531812353209183 7.914762113346634
Ti 2.9797391303389125 8.232930737429854 7.220388197543851
Ti 3.9003536655266093 7.738516351758632 9.631316005766177
Ti 7.554273003621107 5.027985586632221 2.372274360015604
Ti 5.053067085317764 10.17809169437353 5.978796012044761
Ti 6.241949095423094 8.68871443474948 10.161129495247375
Ti 6.872981809110803 8.482923470516532 4.857834039160228
Ti 5.150258243760965 9.905737029743904 3.361201088211653
Ti 8.059136823418315 7.08537364038931 10.913151916241954
Ti 5.768731891900697 7.280077214323312 2.520579329609635
Ti 9.177671374611947 3.6915506987764837 3.783262646096583
Ti 7.022098616082809 10.250503614684146 7.508277130377628
Ti 9.43744844912586 4.907915539481232 9.871368984387406
Ti 7.908670950056578 4.941343676804348 6.735255742830325
Ti 2.5948764086082825 9.963179383104702 5.307980475982206
Ti 4.61336354381064 9.929436532361416 8.559263369154978
Ti 8.789470071379341 7.140947398310103 7.873576331689822
Ti 7.560966623171487 10.897490583890535 4.512806392082812
Ti 8.821549903868185 9.324208195974578 9.344163545191458
Ti 8.333487306275469 6.362812341059837 4.514842272069307
Ti 10.529322199618619 4.7563334696963 5.613606086822854
Ti 10.433337616544632 7.319095430860001 10.095877380274246
Ti 7.330918139898264 9.505894239566588 2.2982976244259157
Ti 8.327921740961195 7.381423149218675 1.883019972704497
Ti 9.082286557243362 9.39422105478146 6.299510219809669
Ti 11.2684580187454 5.969427688084373 7.976701371695299
Ti 10.202781327853588 6.030323119235895 2.996392761771255
Ti 10.982033333259759 8.616453855211994 7.980749935709644
Ti 9.500812945092989 9.005972364889933 3.6422957470979798
Ti 10.592845583404399 7.353415585975859 5.693191836228461
