43
Energy = -285.43022121 eV
Ti 6.536374077215272 11.609621844106348 7.400504053678509
Ti 5.385451113507786 10.887225291118057 5.323365783056886
Ti 8.579020471449034 10.647141231424053 8.51100823792708
Ti 6.2407119509005895 10.581969222554308 9.703221429249199
Ti 8.426452723495704 10.062466408521303 5.856618468248103
Ti 2.968378758104178 10.289420845472232 5.5202846728094235
Ti 6.933594934382761 9.216650727891722 4.098171188979384
Ti 4.285548466438958 9.278030136317234 3.3060465082797665
Ti 10.543279637118207 8.312158157920203 5.7211929169029485
Ti 4.297744432225795 10.031340134018167 7.879760943399264
Ti 9.17234654032449 7.747364239751275 3.3732110956744146
Ti 7.974926865110139 8.768270682618242 10.31520381004407
Ti 6.663009039260277 8.925025914232071 7.574487692424487
Ti 2.3379131973910217 8.350466866237005 7.102657032541011
Ti 9.510077113849379 6.626787776948308 9.953619498527516
Ti 4.690044761996498 8.156794828539747 5.554236604154851
Ti 9.587354412520849 8.395388959043085 8.121087148582095
Ti 6.406272139467916 7.139862721747545 3.1666331245974213
Ti 2.1995113806196223 8.068724983070501 4.533818264731405
Ti 5.377815747590517 8.059375889579885 10.05861550046279
Ti 8.068015832174458 7.186315356009003 5.688753720716551
Ti 4.486798923787643 6.917831857059735 8.071527902935403
Ti 7.243918915686498 6.465191545679633 11.224558600850017
Ti 7.120656290559639 6.279469358139575 8.497955957480668
Ti 10.632462468034104 6.277628732229457 4.823240738589751
Ti 3.990148667638401 6.239011505524733 3.647042915261485
Ti 5.720980774686381 5.684188644819363 5.65143225422507
Ti 2.9431253394942916 5.977526710918277 6.030816692944504
Ti 9.66874915702309 5.776370822624576 7.430203774346186
Ti 8.485199986489837 4.876137204026194 4.109133586453251
Ti 5.500451023689233 5.012370665371821 10.18106120227229
Ti 8.216010648305762 4.372977717005109 10.026020710363444
Ti 4.442011214508955 4.3232748679769895 7.869573917665351
Ti 6.0372084323081365 4.609746449245561 3.107439547222752
Ti 7.482212585786231 4.01735837519003 6.581631021915618
Ti 4.180755687059412 3.7200118082158937 4.758021858844358
Ti 10.426836701438633 3.9811881735715597 5.871431924838569
Ti 9.284048434822836 2.7122614708755286 7.952065478410341
Ti 6.614841391550234 2.7966657363275433 8.909701556316955
Ti 9.086482435378834 2.2484102316942174 5.243295386775419
Ti 5.10608805593817 2.3784093823764954 6.7387474388995985
Ti 6.592006997989117 2.473277416728343 4.498714078722262
Ti 7.380239953217711 1.3253307821562785 6.8557014297288115
