40
Energy = -265.82448242 eV
Ti 5.676894643470789 11.617043343260292 9.45223619939395
Ti 4.416330150536039 11.025554980159496 7.234176945358769
Ti 6.959790637704179 11.559594030828288 7.103606080046832
Ti 3.9388054106376416 9.629521115242207 9.526396640134319
Ti 8.100514681197007 10.825538604663652 9.375707163709695
Ti 6.273999919375718 9.367028442852794 10.74164790673865
Ti 6.184152243492568 9.315360090603372 8.153547641105966
Ti 6.110601041863037 9.104064540082973 5.594892373092375
Ti 4.013882387033588 8.09194481004777 4.226614523173514
Ti 3.5848391914238165 8.602816054958131 7.124650065677208
Ti 8.700743905882474 9.528070859776768 7.1466595838086135
Ti 6.4269379395284405 8.438550047693662 3.0345893797009054
Ti 5.442022352342495 7.049447686950201 9.267168622232962
Ti 8.260756008972107 8.11560319706911 9.483940940462542
Ti 3.0472568302909053 6.275756249113354 8.306817074415717
Ti 2.4147547398967313 6.616125890457553 5.846702342719731
Ti 8.465787042604925 7.616918217902252 4.47678473450048
Ti 4.880670865546435 6.767255976288827 2.021237732255749
Ti 7.785054719437872 7.148530637596857 7.169784694532817
Ti 6.057901731648754 6.051956353033777 4.34113916276723
Ti 5.019225418601449 6.581361712100039 6.567027115438382
Ti 4.635911417742337 4.1924252538718525 9.028930203271367
Ti 7.500499834046143 5.1521456430893595 9.138721796903758
Ti 3.2994400341349115 4.220626768820846 6.53707253002777
Ti 9.892317695144566 5.723800418192896 8.2218064135461
Ti 3.4944012680099985 5.318454476060336 3.855295782641297
Ti 10.3549889550809 6.96398624403859 6.021983957391075
Ti 7.561984582302753 6.110961180564806 2.253483618284893
Ti 5.507776127997293 4.380366815811925 2.3054290708957983
Ti 8.416133115650469 5.091412728303806 5.881748287708293
Ti 6.201063563752412 4.275787061520541 6.969804359514366
Ti 6.7701159713780426 2.5718124198062196 8.823066680277272
Ti 4.814757867643513 2.15995927216772 7.232313260961701
Ti 5.142918422347969 3.2422981980783914 4.69272633961023
Ti 9.931717182933655 5.198275331500237 3.854832797904832
Ti 11.025372542652763 4.467447032899638 6.247863153040391
Ti 7.602529546833922 3.618142798128854 3.6646603747855053
Ti 9.14723668270269 3.1719180023324123 7.784329366171871
Ti 9.617101730695115 2.8077077466643114 5.126662567238289
Ti 7.317023022462503 1.9986411924643266 6.158153943557709
