47
Energy = -314.67301601 eV
Ti 2.141969829399259 6.354940922044106 6.814657354695618
Ti 4.8706040796030345 8.486002168843706 10.244278811244312
Ti 4.810886334420533 5.642777503909496 10.517253318414003
Ti 3.197349395703341 7.18634019663896 9.053834220317135
Ti 1.2324101774674803 5.611097971273109 4.545801211423386
Ti 6.521082585715238 7.285281386123862 11.713212716937951
Ti 2.6904510562021464 3.6678522818872508 5.829719439192675
Ti 2.385447540571773 8.01651558664888 4.561090381811409
Ti 6.314858235258191 4.051128557337536 8.698886613116084
Ti 3.1200122894825966 8.913642292075966 7.08541255443796
Ti 3.9118425522862 4.627355141771831 8.036916989540721
Ti 5.816236491858432 9.381615062877623 7.828386897341567
Ti 7.408268169565137 4.984375939857805 10.866966929004427
Ti 6.709871681259448 6.781166271826726 9.051690693177958
Ti 7.438406448602329 9.328608508224534 10.0616283932261
Ti 3.896176941166178 5.831391865009684 4.611740058298845
Ti 4.876087394514084 2.241071636620247 6.872369421748759
Ti 2.5648797178848355 3.9374206225682857 3.1606073674996433
Ti 4.940296753458244 6.904583248113125 6.970213992279871
Ti 2.501847157566814 6.346210930469925 2.4055538780699424
Ti 4.9841448622239986 8.912178482730827 5.060776753071046
Ti 9.016453498084442 7.1811577978048575 10.634019098601847
Ti 5.954758386930877 4.251920387195964 5.872073947938382
Ti 9.129349264624341 5.318572948026313 8.702051380857746
Ti 6.7539491738071336 1.7942935748833513 5.0879302081386975
Ti 4.635735493151916 2.811649128105233 4.078234884152052
Ti 7.335681602199212 8.149333154331993 5.969338733421648
Ti 10.170698951268873 9.547206366057935 9.736698953640536
Ti 11.20305155067725 7.2501995773724435 8.780723883365207
Ti 4.65004727279086 7.712506025611635 2.7342381070529207
Ti 8.56355118609758 10.680083804355501 7.746357268872284
Ti 4.948298246168915 5.117912528807928 2.2508100146845704
Ti 6.652472184787596 6.481587383668459 4.075060915102522
Ti 7.993358882056099 2.7618593360865717 7.326418789667908
Ti 6.901429958244737 10.740386948851736 5.653529501772185
Ti 8.8651449084833 8.074892890886536 8.09542455664699
Ti 8.869906880487108 2.972182517121973 4.936413402516127
Ti 7.260471518604947 9.20807672094643 3.487168464433318
Ti 7.139801766130472 3.751685400737238 3.1786025099034108
Ti 10.979134608143363 9.40144440259161 7.296226649525209
Ti 10.33741186862046 4.314874881104758 6.481804943785746
Ti 8.02500164526502 5.431148940766872 6.420783456526774
Ti 7.579760488982647 6.412569007187216 1.9461687752640808
Ti 9.331802307879592 9.830913288029304 5.304198306583694
Ti 9.37195376924797 5.194348719714863 3.8900989666300907
Ti 9.235142722794098 7.701033832177275 3.7388721432133147
Ti 10.280362156698258 6.934463847159473 6.103614129290786
