48
Energy = -321.45596924 eV
Ti 7.764283557272337 4.492978300778426 10.498724798440861
Ti 8.729642096431924 2.533436718646523 9.056626257285815
Ti 4.715775036873369 4.772266273658562 10.383458846366613
Ti 2.43739201674683 5.3081773597979245 8.93628929746006
Ti 3.513783150186389 3.065810689585673 8.856976879162877
Ti 6.116705497882167 2.8803369368597327 9.11142422126258
Ti 7.552720697797767 2.1737919495977986 6.816892348741926
Ti 4.699919364177815 2.290162422404928 6.749976834544414
Ti 9.12183182557816 6.705571698570408 9.532233306094268
Ti 6.455758942765939 6.7914860706473705 9.629342164092655
Ti 3.9977521807212386 7.237618212025502 9.406550804999895
Ti 9.976472256841303 3.409117714319626 6.865347597057994
Ti 2.8939890326572515 6.915119141976412 6.8292706619609325
Ti 2.6253641408717296 4.0424633903882485 6.604910413354212
Ti 8.03839644023312 9.009168291643633 9.76958166925115
Ti 5.554854320584107 9.578188512789513 9.402137313200635
Ti 4.009419177203568 2.5148815200604386 4.197838429351171
Ti 4.915329771665982 5.175855746656687 7.635955536249503
Ti 8.38639311370235 2.5695228589449988 4.311154230683315
Ti 6.1931192278551075 1.1332984802420578 4.852691320711241
Ti 6.15321226024398 3.9142544071327015 4.956891199955627
Ti 10.246143032446586 4.448987622133404 9.26456666703833
Ti 2.9878939543886474 9.327652983299336 8.24584686876944
Ti 7.897573820503883 4.857255360453017 7.789554510799028
Ti 6.281450870490909 2.2116437733152283 2.6874695490922917
Ti 3.939998166833744 5.441277921734306 4.7504118407225295
Ti 5.121530265015364 8.289213180801168 7.060061045384726
Ti 9.908096093007797 9.117343173502288 7.876070759630613
Ti 10.232469416830968 6.15762979981165 7.217027594012714
Ti 2.9890332325737154 9.607622435442554 5.867664927930054
Ti 4.839433119195705 4.168090827349534 2.459294940902383
Ti 7.853943637004897 7.693921378633296 7.383762981018453
Ti 8.795692094426299 5.261938028379165 5.168083551702004
Ti 6.361086603465245 6.564616030250296 5.435427602202763
Ti 4.498658157688279 8.23060661673717 4.245924770683529
Ti 7.553628004742598 4.508711573216252 2.656677655544529
Ti 4.863268949312268 11.037035796475573 7.250799834534615
Ti 7.575330608155921 10.721542257801966 7.953984613342884
Ti 9.746539311071457 8.189409980207918 5.308803980694891
Ti 7.06300278190633 9.462839704429513 5.306752916782095
Ti 8.113840093471392 7.3487254033700715 3.3713047649541945
Ti 4.93699944544473 10.934361661668332 4.480182619232164
Ti 5.732341062834808 6.418004035983263 2.80336895434108
Ti 6.41330617221946 9.396832813394225 2.677528825918639
Ti 6.835380768509512 12.122535619284166 5.948911657531137
Ti 8.97947308481119 9.708933291038187 3.329541465474186
Ti 7.44925750760218 11.613579431109539 3.6684716262174955
Ti 9.229946566389096 10.928624687359218 5.689316467532146
