47
Energy = -314.50070608 eV
Ti 1.90588646215876 6.502590327815168 7.76516288033384
Ti 2.0285886918798806 6.962836222410098 5.135793225704771
Ti 1.9582933610215736 4.488310498928136 5.910942203332414
Ti 3.9614202925489646 8.022742338393005 9.14536449327683
Ti 5.247936786041848 10.228580460346349 8.182987276203503
Ti 3.8469846885652093 8.736480870434367 6.3668741052318945
Ti 4.357916735943215 10.109593875884382 3.94006130077841
Ti 3.269181228072731 3.733195315440698 8.05510166340921
Ti 5.874359663414067 11.333239163249093 5.94131326579177
Ti 3.6979223808912787 5.517813234465699 9.630021685204753
Ti 3.361534082585089 5.033847990825343 3.6850205315286617
Ti 6.828137310980769 9.142369305430483 9.774244509014219
Ti 4.006966759241033 5.980269498512472 6.634153031108055
Ti 5.997700812497521 6.377714386086383 10.56148044237076
Ti 3.8216311363688287 7.665781089546716 3.4001642880961387
Ti 4.399810583184867 3.2810420705785326 5.623859720947999
Ti 6.007472445228787 7.421631814139471 7.8227116547307025
Ti 7.818205300978194 11.253624828659493 8.08533700567397
Ti 6.75435488311772 10.812116365449356 3.5049707431299453
Ti 6.245776865982694 8.447903210748835 2.4629090702202756
Ti 5.550756467316695 3.5151805668799554 10.229319153363575
Ti 8.449693065879647 11.130894733521403 5.276742981307931
Ti 6.189035079399435 8.683680501504933 5.057267821096333
Ti 5.868766123616245 4.701977904688866 8.211007939017598
Ti 5.3677449686161065 6.024033092615536 2.1219461583821015
Ti 7.595959021443285 9.304649278947943 7.058007360539612
Ti 5.674814686340082 6.001807879828845 4.7303790808173725
Ti 5.99329258701699 2.0215277355028842 7.450120992258291
Ti 8.416159887660296 7.316477679318694 10.886233171129614
Ti 8.172078880582166 6.2562862371962575 8.480274287859645
Ti 8.73151479782102 8.924638595718305 3.7351207499776673
Ti 6.5334569010581 1.7872551321072783 4.919475636185144
Ti 5.825593918514591 3.7270533581237686 3.3315077754585896
Ti 7.205535522428197 4.155962454740364 6.0970751786397575
Ti 8.25865177639261 4.68560100193377 10.52271197105493
Ti 8.3389195157389 6.904418136026801 5.952634323284093
Ti 9.58168278099822 8.654832763388136 8.840849625474629
Ti 7.826483629712653 2.7697132845086103 8.809503234227611
Ti 7.96256045708284 6.094114533422637 3.4704484213469087
Ti 10.184799526633944 9.220026022750895 5.98358111445625
Ti 8.345585196874618 3.3103345034897784 3.827062869867474
Ti 10.404852025972742 6.21469191624829 9.699478328150551
Ti 8.720761147996638 2.1278259138333824 6.298151535045317
Ti 9.777664979549677 4.2230612358020005 7.918976586229056
Ti 10.447525764831134 7.093922339252782 4.440142324211145
Ti 10.796029384553156 6.841968478547845 7.130846445336221
Ti 9.87226960465931 4.738650022148142 5.374930008586276
