49
Energy = -328.45437701 eV
Ti 3.556341930756816 7.918845511483864 3.2634005678895943
Ti 4.667273673015701 10.241264937218952 4.2787659194209375
Ti 2.6167033482063036 8.814873966347994 5.42854701473485
Ti 1.62891211687441 6.457884822042689 4.742815018655479
Ti 5.9852380076220815 8.634285729626958 2.488243019340852
Ti 2.8009877379233803 5.7108420730933735 2.1649474097639505
Ti 5.728435968694781 5.980936339675813 2.5315437691235045
Ti 1.931200415034281 3.898978490690274 3.9099813232184166
Ti 5.690821867742536 8.264079895889324 5.129934484348523
Ti 4.095079555764884 9.32781943072162 7.317871788709377
Ti 2.217980590823772 4.418300168749237 6.522026483033983
Ti 3.9518964532500873 6.64644813269482 6.553988353387692
Ti 7.504939937520788 10.026206773089347 4.1796111438111385
Ti 4.075810895005896 5.242694824406094 4.36739646744365
Ti 4.139554282318609 3.544386276496951 2.4316562975648184
Ti 8.300417387447416 7.470200962629417 3.4790881809807743
Ti 6.608963170638127 5.819023555379838 5.161188915165839
Ti 10.141011232080048 9.381743139700381 4.2567738048281765
Ti 4.220864154431283 7.710234192136481 9.263566634663459
Ti 3.9729634200368436 2.570594372323104 5.026382010832577
Ti 9.207686730053545 10.952756043164287 6.062553329705263
Ti 6.294980277498993 7.6493057507095585 7.5947869774363195
Ti 1.943515594797906 7.159737404454805 7.625168536880493
Ti 6.704105194204747 10.331029587878001 6.818268305805401
Ti 8.561135270968943 8.371298322760143 6.041644615003599
Ti 8.913837332946503 10.183644965540871 8.51719606135955
Ti 6.264512072584739 3.5417686486775217 3.9730791323443158
Ti 3.647289242110951 5.047932176530239 8.821943668942573
Ti 5.347209904279102 4.019624220695602 6.816047106519774
Ti 8.964356523569977 4.964070222244916 4.227652978981842
Ti 6.450567137399131 9.420468863622602 9.596016901327857
Ti 6.477788628607632 5.325274364218804 8.700657333096803
Ti 11.007923145712233 9.108929944199128 6.8049233334379755
Ti 3.457467972772156 2.44789919037816 7.766798274735795
Ti 6.350937716141167 7.078582852865884 10.686651946766883
Ti 10.760941425944006 6.9008253690035675 5.013711837370553
Ti 8.6108417561767 7.462331075577586 8.804499430012337
Ti 8.055630854795224 3.2884221626522074 6.145724169513543
Ti 8.587323506330938 5.736474814354398 6.864567957299481
Ti 5.910911700533038 1.5686340262639098 7.1776682730567645
Ti 5.291924956331847 3.0036219766232146 9.430430682073561
Ti 10.877180520743448 8.708701130976445 9.388293741104492
Ti 8.758323556993107 8.257282000257682 11.051243230262681
Ti 7.6165269745435875 2.903210594520884 8.736484388879589
Ti 8.26041057535106 5.415156952966413 10.694795272079265
Ti 10.664789479806027 4.395740114806425 6.132650699737121
Ti 11.284859829244482 6.546938075079839 7.672057446516788
Ti 10.6082238981517 6.369687002243371 10.254762540585725
Ti 9.904707833774966 4.382314309894524 8.703298979801156
