49
Energy = -328.35246895 eV
Ti 9.608270757964265 4.060269853203333 9.378946627869858
Ti 7.5668033043978316 3.134199511527113 10.76027341162221
Ti 8.080075626304488 5.810694718802267 10.918840483554652
Ti 8.127586023325977 8.491363066814296 10.68218501036648
Ti 5.982429448776097 7.438762920882533 11.652330507711229
Ti 10.72285073869974 6.598814966000247 6.4322327998219215
Ti 7.988518906295953 1.9840013899661975 8.415771250308367
Ti 5.48660844725921 4.923252063147638 10.803394263086876
Ti 9.85490284884684 9.200761173951957 6.815892091244974
Ti 9.157658710653145 4.353520958682059 6.794482656044415
Ti 9.181660708444321 6.809271480247646 8.602585370576008
Ti 5.492081931509828 2.428108139795184 9.382679671858446
Ti 7.093728175039171 4.530643187067589 8.566244791820566
Ti 5.62741515468422 9.60352732014127 10.133394898098903
Ti 6.502556752447077 7.082988281049509 9.02603076325533
Ti 8.17210651895328 11.567482118152418 6.662044176736592
Ti 9.868729307034416 8.105249967305133 4.338961646220885
Ti 10.019153424644083 5.3340624440215025 4.48842342752352
Ti 7.6679115852620265 9.547192571560934 8.380102310899678
Ti 3.805820682098301 7.569723837759489 10.155063542547177
Ti 9.259558904480887 10.657977024802028 4.543072903548827
Ti 8.064236183526287 2.200172638102699 5.776491537209198
Ti 8.001302969366925 6.597040337100919 6.02928297034213
Ti 4.196212827163537 5.288072901240173 8.519561021974699
Ti 5.727706150610443 1.289929272261877 6.899448376583652
Ti 4.984436266955153 8.627520437137974 7.674325013890549
Ti 7.319651937249821 9.209002377666526 5.775508397895029
Ti 7.622565731750458 4.364922581107971 4.23707910926441
Ti 3.049482366062952 9.73470452379104 8.738131885245231
Ti 5.7660013438610225 3.9170095307010975 6.274454357960735
Ti 8.827206856515755 6.564270323249558 2.452373576501091
Ti 3.5685199364104525 2.8596505739622247 7.712134737433349
Ti 5.501628344966852 10.958941406145273 6.868711593942266
Ti 2.593018321444389 7.2453203860631055 7.797858169806322
Ti 6.716272088665231 11.372177098999215 4.402278810948868
Ti 6.095804126201212 2.157376434053549 4.2576827184636175
Ti 7.694840696573255 9.203075749683244 2.835840996851114
Ti 4.897075774797593 6.6463591299723745 5.996892363852156
Ti 6.33659015434428 6.893754816769853 3.577102097109526
Ti 3.7483585166731768 2.315237707012407 5.271469853259356
Ti 3.0497119176070715 4.818240020065941 6.022528925721583
Ti 5.017996995389701 9.18911318819329 4.599139504041532
Ti 2.995361802486255 9.038634757857322 6.0338538710710825
Ti 6.774814173255831 4.812663235040879 1.8172961072776785
Ti 4.755243557524948 4.601650584386497 3.824963626998845
Ti 6.88812266103187 7.33745342951262 0.959713704345787
Ti 5.030957020649946 8.788502444476219 2.0329706898644107
Ti 3.4897330141633285 7.127566859004938 3.7257402207941444
Ti 4.609499191800295 6.19854914573024 1.5429920408037483
