43
Energy = -286.44213479 eV
Ti 2.351175222685509 5.456449861925101 5.8537103737106815
Ti 3.712013096915821 6.750312972259653 8.096669610772155
Ti 4.385325812243949 3.63052115314182 5.2763115809526475
Ti 3.73822296216495 4.239991008645055 7.72293043075868
Ti 3.6665339599038775 9.313537173823605 8.606957252621266
Ti 3.1768916867929993 4.963717259017189 3.420593334787068
Ti 2.469332318396937 7.403873016730463 3.9360111935578637
Ti 4.92854635980152 7.760662111025521 10.332401765650017
Ti 5.843688253559927 2.8399573931376603 7.7722478812393945
Ti 4.669791296803248 6.417720429315062 5.1150347418153235
Ti 3.0798835699132194 8.53810217224626 6.212685575647494
Ti 5.360629415658396 4.872764251985866 9.742259296729896
Ti 7.005383197031952 4.010708575274493 5.171222455698722
Ti 5.8347290100673845 10.361766300328076 9.25354686431666
Ti 7.155269244321826 8.72094003844102 11.189064264940635
Ti 5.823158686818555 4.961950649923214 2.973182577804094
Ti 4.353949249060743 7.005169657234699 2.374908856809564
Ti 7.807730211724499 3.485606263144935 9.644235565069467
Ti 5.65903023512206 8.539167357105956 6.803713022881584
Ti 4.7595006485968865 10.796950658592625 6.638202315887441
Ti 6.170768755227579 5.42077468192894 7.382645042970852
Ti 7.4861714433919415 6.047086749269594 10.715528656214929
Ti 4.680050174369263 9.057101950887695 4.156774992398399
Ti 6.746456491075058 7.64596286470817 2.9457937383042596
Ti 7.01992617933566 7.859000664717454 8.814343024716003
Ti 8.255199714934674 2.8840058429195015 7.072256316750185
Ti 10.224536559935672 3.547931159646077 8.249041766990011
Ti 8.347858027699965 10.24227954752984 9.58543453219116
Ti 7.455044854564341 6.733623545550494 5.384885039499256
Ti 7.609806464927933 10.688153025711884 7.138301459832528
Ti 8.659465065437717 5.65653776373882 8.208218500071816
Ti 9.686563187917887 7.836206358660222 9.803502540273488
Ti 7.472216578576811 9.566411175436208 4.815818010211984
Ti 8.395713553456309 5.429852390968485 3.3032085912094176
Ti 9.012074368269232 8.164450129998434 7.085119728418702
Ti 9.271430672254906 7.897665167415292 3.939003540057654
Ti 9.518869073464696 4.879032590950125 5.782963212009601
Ti 9.908662812163152 5.076360960014805 10.397007162443584
Ti 10.181466815536172 10.341417892625039 8.090603470743897
Ti 11.240566266607406 5.999911218704852 8.293573005665445
Ti 11.058045537521878 6.995445244737162 5.628234511165898
Ti 10.413458577220728 9.654740857255527 5.584170210689678
Ti 11.603782837635931 8.46139464213921 7.67185890571003
