47
Energy = -314.5313443 eV
Ti 10.308053441753064 4.861439961851481 3.8908347087855484
Ti 10.207019740913333 3.3514453527945878 6.148349913309343
Ti 9.41173245109815 7.143768190055344 2.8300213577259252
Ti 11.581028811822584 5.4242269281848685 6.177995047294574
Ti 8.0068986354208 3.2766162314921123 4.694307935654018
Ti 10.921670226135458 7.55394419177938 4.850357154493262
Ti 7.375871620990503 5.571077979065093 3.4687057822676692
Ti 8.978096852531083 9.712580691598916 3.4212831497911145
Ti 9.952457033869507 4.990384220607104 8.388332082350065
Ti 7.903516556555324 3.414531081101765 7.519887388372572
Ti 7.002762410381097 7.9147213486753785 2.693848849337254
Ti 8.225494648801046 8.17028879800241 5.144205550964689
Ti 8.884208886572264 5.624047163233601 5.880980371977598
Ti 10.535393872394422 7.440539472346735 7.563010155541082
Ti 5.732199843973722 2.2134571437542623 6.239095940929447
Ti 4.309703219853162 6.46492573292796 3.4671159486551875
Ti 5.425251336362854 3.8998479761346436 3.419938057178587
Ti 10.05721261911767 9.910123228647736 6.388455643253281
Ti 6.155720927534244 4.753705150344089 5.9526474185717175
Ti 2.899276293475401 4.390101021139581 3.145019878161289
Ti 6.17692167698486 9.735555012615885 4.013747489854074
Ti 5.9193581383159 7.3181533353642685 5.393463853045819
Ti 3.7995341929955186 2.395959365262916 4.5787359206701925
Ti 7.91163613567517 10.966359220615614 5.4791787992145
Ti 10.098359745096348 9.588158290863008 8.992050085787296
Ti 3.0759229693192243 2.7365878442514378 7.126116736149124
Ti 5.403219796153257 3.715336670758274 8.49712266464729
Ti 7.315449206105238 5.946776800727811 8.26881102515615
Ti 7.93553114369253 8.498900686014009 7.87414730023139
Ti 1.5247023052416762 3.3945256248792606 4.968718574900355
Ti 3.545360826478336 5.074620363175215 5.830846691141222
Ti 9.217723071403437 7.2102053861852875 10.049643642643812
Ti 7.700873322362073 4.741897112728334 10.28133234804555
Ti 4.878937199141528 6.9895994706095745 7.880161179554708
Ti 5.721766682973048 10.005796904374733 6.501677914768549
Ti 7.98574397400431 11.031623009280393 8.10111460108073
Ti 3.431449381043245 8.20183984925469 5.2341760827306505
Ti 3.1166784127582874 5.069562918910268 8.646041355255576
Ti 1.5412231608462057 6.145972717561103 4.652126586627549
Ti 7.965070169462723 9.594764352426802 10.329872382695331
Ti 1.1138459021681628 4.664666222472078 6.987204763005095
Ti 5.067081947902411 5.465812159145143 10.357181581463227
Ti 6.4798630458931274 7.395487396848014 10.472101814984406
Ti 5.63485907137526 9.493005617296163 9.035358515920684
Ti 2.1140025279588714 7.06189947300911 7.270061535663745
Ti 3.423781530694062 9.267809886698162 7.583056697499819
Ti 3.5311427129948383 7.7109601235289045 9.815165201243422
