41
Energy = -255.5587323 eV
Ti 11.843639222142968 5.521130601199524 4.802544699949557
Ti 10.557609231560944 7.049020023127922 6.520399690438238
Ti 10.369758839161493 6.547511982162113 9.114121473109737
Ti 10.885551937979447 4.054140508697449 9.573569278958844
Ti 11.25807222804903 4.866902341376142 7.2297354241260345
Ti 9.45211273103992 5.702696396166546 4.411145968651356
Ti 7.757949639394595 6.9720687928653815 2.685173427005542
Ti 9.5549275921583 9.301557983006093 5.421058746891216
Ti 7.101203252565366 9.94581718943702 6.349242518837374
Ti 7.806764034839914 7.3733282430569265 5.37750291313051
Ti 8.997026774482755 3.996794337667823 6.136461544245132
Ti 7.5030200978023665 9.539232447305405 3.559717645199239
Ti 8.482746970237969 4.759169127076883 10.357781077587806
Ti 8.239382694081877 6.104528034929035 7.838099235001004
Ti 7.66017301192444 7.443760833863579 10.164898413946446
Ti 6.926502884976176 4.58314684916885 4.519124738943857
Ti 8.946961078871507 8.750501352460962 7.867391481836104
Ti 6.896792809439631 3.4695019104209575 8.203661338675794
Ti 5.432081933979273 5.753954566515163 6.427853959685839
Ti 5.3424446546337325 6.545560405462382 3.6181089357251177
Ti 5.830659370414501 8.69251179105379 1.8117138562704767
Ti 4.375843028894891 6.920868639837761 8.586792090695768
Ti 7.930541952606883 3.8184651572496016 12.609067103617399
Ti 7.09221240936663 6.117199199004491 12.21749768220157
Ti 5.524224957217251 11.005912112977487 4.446016131477541
Ti 2.784797805619055 6.584423636286647 4.15602654455945
Ti 5.288091832251874 1.8700671969899822 8.665292062905502
Ti 6.285184839304232 8.875998781895115 8.600646452435193
Ti 5.970203934142851 11.079464846420104 2.1772045443141055
Ti 4.273246343689374 4.3235704799717976 4.364579008563314
Ti 3.741051257906479 8.054051890770477 5.989420930508675
Ti 6.637935187185849 2.8346773092064086 10.63838369491683
Ti 5.351498629821672 2.9844361074044876 6.331838814773195
Ti 3.0776771045566416 5.591879567721469 6.400559054570143
Ti 4.424632962169212 10.501019938859654 6.916244048679277
Ti 5.356162119693764 7.685814954687151 10.896168978431952
Ti 4.048864976816428 9.069726226656375 3.7009082009192644
Ti 5.641145885934363 5.241303423282504 10.310302816101089
Ti 2.69776538444316 10.33420173236933 5.156678980711641
Ti 3.5993224673674984 11.434766537593909 2.9574617503274725
Ti 4.435223007550254 4.080323620069888 8.27061181735081
