43
Energy = -284.83640428 eV
Ti 7.648358391208941 4.1292591556549985 3.2920484957611675
Ti 5.497466605189745 3.0909547297596105 4.445932553885424
Ti 9.899499925551527 4.583711503645488 5.113393093208477
Ti 7.3615657273431765 5.241515867520486 5.4031094909546935
Ti 5.196448425193376 2.14675131539513 6.62913618193364
Ti 7.756145494575982 2.6984968897211132 5.850193893674788
Ti 3.256190070074616 3.945474165970264 5.960747650307372
Ti 6.846493776101378 3.2280753470413885 8.490663026571475
Ti 9.079624220354498 4.656556464887544 7.636119736984205
Ti 11.175787436257314 7.4263555197856785 4.862882263635543
Ti 9.239661930333291 6.281017852827471 3.370887168812701
Ti 8.058359024782773 4.742484461963189 10.244040721926275
Ti 6.794729470657157 7.019604497041393 2.7475919043429164
Ti 4.929484330332314 5.3788676151128465 3.8268935203306165
Ti 7.049136750359265 6.221635160120127 8.37214449337743
Ti 6.2898747392933805 7.65083977770724 5.29143226428599
Ti 4.148040608649248 3.3096563019809015 8.553488834048762
Ti 11.280490444040247 7.115275539264215 7.4414901902742026
Ti 8.999271766344393 7.021415247344904 6.134258440713249
Ti 9.805002319827098 6.647851668829525 9.764650780612643
Ti 8.706996094551785 8.729622842021382 3.9074984794167413
Ti 5.338485468416631 5.110267637657954 10.00161145372555
Ti 8.499218772727174 8.471107112395234 8.25498137855343
Ti 5.332467574364877 4.864841501146846 6.787601655425661
Ti 12.441290813881546 9.293922984062158 6.62132447899196
Ti 6.261922614112744 9.661215892805501 3.654885529312338
Ti 10.122110790239262 9.503705027126315 6.358248101723179
Ti 3.2917260530256116 5.870906075139856 8.342710359448827
Ti 7.352324710048849 7.072042981289887 10.956693931121652
Ti 4.33403487466955 8.037382884176063 3.577494082130452
Ti 3.6623261869973853 6.875012945529496 5.84452602123347
Ti 8.982133292576039 9.136929076142362 10.757454670936642
Ti 5.274522516678916 8.055498628266903 7.827481685603381
Ti 10.974791245322962 9.119995191435189 9.03278690605976
Ti 7.359003677111054 9.868257700218162 6.188942996125609
Ti 4.540977720448543 9.64452501370737 5.907154749064163
Ti 4.111124562451604 7.730783785835919 10.111310042686727
Ti 2.6934395093255272 8.390239950160394 7.826674331154892
Ti 6.517775779664875 9.349070498084574 9.810845860186392
Ti 8.601855474524765 10.969606262924191 8.768575717427606
Ti 6.073324781318147 11.232698379256098 7.87853756724204
Ti 4.104896924162598 10.207040338897441 9.013844987927863
Ti 6.4713622555730925 11.618408299972787 10.47883663675676
