47
Energy = -314.18535051 eV
Ti 4.551886791440944 10.345453241855214 5.24470407262544
Ti 3.9821344355504014 6.837976009893191 9.270680319772053
Ti 9.05764316482417 3.6569271579824933 6.5862309253759985
Ti 7.99765452099751 6.25512601487668 5.601613970527193
Ti 8.354907134762236 6.180810957970142 8.143935487148257
Ti 7.2132194236040625 10.896941838719263 4.564744813471362
Ti 6.166516248532132 11.495443074039489 6.857026520442552
Ti 5.442992614677086 9.917821433677744 2.7850716795191692
Ti 9.297828692852802 9.563612290062286 4.808259093213484
Ti 6.43023013889136 3.9935835235496406 7.588567693904526
Ti 9.930416461261592 7.178031758851779 4.046074965589519
Ti 8.775102036332468 8.65858698571786 8.966044362441428
Ti 10.047593215070137 8.23414006783565 6.735515509247344
Ti 4.951122366484651 1.668102556318171 8.33358587527528
Ti 3.484300460903159 1.4052557432711872 4.230760523545471
Ti 8.645146751841795 3.8156176198938 9.173672310598372
Ti 3.719576826816921 7.696823352094325 6.209100740141394
Ti 6.505280572152035 2.86447533514358 10.020317540841706
Ti 2.799275181183572 5.391346878634398 7.263572007231227
Ti 5.584187763150676 7.272117022668672 2.201440019592964
Ti 5.491367206917288 2.5293393515417506 3.297180448679237
Ti 7.6050447986598675 1.7233791440816757 7.9001804876278205
Ti 5.826485156146802 1.331587609681267 5.719435543004633
Ti 6.941568334141122 10.489171970132396 8.975096435977475
Ti 9.565510343120987 4.6270706675989155 4.213414209194713
Ti 6.078178303676269 8.222109463996384 4.647330742839299
Ti 3.5384741109361473 8.18198524168797 3.771766140097294
Ti 1.7356093948658298 3.154559916330874 5.5217991909335975
Ti 10.542383042413716 5.783404412940055 6.394358296132531
Ti 6.186146912807037 8.192161971676224 9.627184806255334
Ti 5.242797360562427 4.595593912301807 1.996890864377291
Ti 7.167678652866085 8.918548887178874 6.831670103907821
Ti 7.675466617233129 5.864899623195759 2.8737512238104572
Ti 4.9430419058943285 5.760110651591041 4.431339159170645
Ti 4.662466581493214 9.49224472281999 7.968448233900766
Ti 8.800603932445275 10.824330783948001 7.065286057082835
Ti 4.301935146805973 4.1537866459676875 9.453198898767573
Ti 2.593579996936118 2.9874649813187046 8.022195206582374
Ti 2.1603275110024787 5.814469427418677 4.722647363455717
Ti 2.9801180788683714 3.6852688075063105 3.141318746933785
Ti 5.715212473900547 6.502742680197295 7.37411469316058
Ti 4.270369888800307 3.4777253615904056 5.801875540200917
Ti 7.913903607534553 8.709396881638229 2.762491186443839
Ti 6.476100625333916 5.568191163980292 9.983031422618867
Ti 7.098331883438277 3.7524006784008552 4.841518992705777
Ti 3.1921438241542455 1.0615784648629738 6.5235838769841
Ti 3.1727148660274027 6.082859071671017 2.3225490569630445
