40
Energy = -265.81151872 eV
Ti 10.353900941314985 4.408294244929001 5.126166624787889
Ti 10.398124709634143 4.613050663702387 7.7524032264398315
Ti 9.147140820978573 5.727071787631955 10.480610792209893
Ti 8.46344271592999 3.096482411028037 6.512879093935043
Ti 10.870105310488634 6.686447686122953 6.18844502238509
Ti 9.27696589557005 6.668366571544289 4.008642702391841
Ti 8.061641989768306 4.229262698429347 8.79596030501745
Ti 9.551391663789923 7.1736124035079865 8.393617800217914
Ti 6.465229547938305 5.008142363219846 10.81363721933142
Ti 7.741015263909965 7.244855582515689 11.737951547040515
Ti 8.31813315713879 5.742333510923647 6.319490400135365
Ti 5.8152330382096995 5.6953489196423135 4.81263858282098
Ti 8.121109999995562 3.8705873190227025 3.99439984429228
Ti 5.334295468738195 7.312573454515256 11.44836131509639
Ti 10.36001080486129 9.711426734681677 8.333131713607555
Ti 9.148954461923767 8.687443828362795 6.029845864552211
Ti 6.810319461914746 6.94870307438458 9.09783890296384
Ti 6.0242216585831985 4.69189729829869 7.648133357772574
Ti 9.347818448302379 8.872216965756534 10.524302554682063
Ti 4.328889543339569 5.981796984478866 9.501713084485093
Ti 4.60504229197217 8.742111629517497 9.436868376446329
Ti 7.359292326427594 5.813897318820254 2.3615713474127284
Ti 6.592074924214394 7.897652497843123 6.3405531926080245
Ti 7.603183531992786 9.574476387885738 8.297815424038687
Ti 9.174016941208038 11.322503623850503 6.950170903300125
Ti 5.853805832969167 3.882764302310344 2.749973520280972
Ti 4.371289480619176 6.984692445300968 7.185964818603085
Ti 5.850406027913018 3.0225516954942937 5.277726725721142
Ti 3.82650423917457 4.4849696196591005 6.436105623900059
Ti 8.57117633372234 11.438686264645376 9.685923843468348
Ti 5.768371031266249 11.186587916455496 9.52694512886119
Ti 6.851163507486856 9.608487928961098 11.100475407522087
Ti 6.99563889141221 8.037307043890317 3.6118984078254894
Ti 5.029213093865836 10.041322688963877 7.195369307478589
Ti 6.866499133134362 12.099057717115818 7.613192000550062
Ti 3.197029318902275 6.526836883264945 4.810148523901651
Ti 4.7636500725256115 6.3982871475623675 2.5525790943102113
Ti 4.800299934161576 8.473463913530745 4.521463265373422
Ti 3.747337072309604 4.207423480989835 3.862745306385426
Ti 7.016362933663697 10.331732674286352 5.579729697530891
