45
Energy = -299.1677148 eV
Ti 8.948953522885358 11.120660171185298 8.462873026613838
Ti 10.765269454305848 9.303784558555119 7.886245695328001
Ti 7.712216246093506 10.331113005886731 10.640711941924575
Ti 11.30690986451302 7.626453041121384 5.9002723236317385
Ti 9.850811561240738 8.869772022233505 10.266800251406451
Ti 9.257353722482158 9.926634025338661 5.9568156314662275
Ti 6.303417746207331 11.172156181133584 8.762722635179992
Ti 11.02977376191978 6.943883284548329 8.622117070988837
Ti 6.760207425201178 10.737009688731426 6.394782871807086
Ti 7.905639133270254 8.758293845837779 8.40660957045293
Ti 7.636970609055628 10.276946681990701 3.5869745259858963
Ti 9.786377823194384 8.663139661061663 3.891424088988994
Ti 9.908989043404977 6.093142425408193 4.031367883401251
Ti 9.66189457905247 6.051634012481288 11.130429199598025
Ti 8.954409542741223 6.950183352752187 6.417145430110812
Ti 5.230163222427549 9.336729225280672 10.123746925189245
Ti 7.500109700664704 7.851762901601247 11.141450509541261
Ti 10.772580457404418 5.001906957343858 6.598073990205014
Ti 4.046667656460193 10.209388024093064 7.765067113421356
Ti 10.682332443470866 4.492677385400189 9.189445179708766
Ti 8.59849355885323 3.5665288803757207 10.312046225908025
Ti 7.229614613236463 8.319010193120938 4.945927687867701
Ti 5.444062954539445 8.947986523446954 2.725900073238026
Ti 6.883019951762232 4.99694586524718 11.383554622841302
Ti 7.8445479308596315 7.8288806933839705 2.352232703129088
Ti 8.367002296606843 5.979385887268601 9.01657084722277
Ti 4.6578041446956 9.550832140099844 5.082619088520279
Ti 5.5589097639875815 8.222664844257258 7.357731697963725
Ti 3.414765006229023 7.86040784776528 8.977589633245652
Ti 7.221205848243514 5.41990057270768 3.8616023304966247
Ti 5.660880275795726 6.635737606048773 9.70274492304527
Ti 8.79472813284102 3.4509818474831677 7.687793674049922
Ti 5.190462574861443 6.78914576671059 4.8311924613588015
Ti 6.75365812737698 5.633417084332645 6.812524230856261
Ti 6.204872093716422 4.033838266247486 8.845321515017082
Ti 5.915790433302187 2.5949915289341554 10.940029474882524
Ti 5.484265133062453 6.600012629193283 2.017567009069777
Ti 8.63485107546942 4.132661483458807 5.288225687340389
Ti 4.356684055550042 4.469469695785688 10.655027461364025
Ti 3.2635841158143792 7.312087461936787 3.409626546752108
Ti 4.449944315783095 4.792347739420201 3.284493824559403
Ti 3.069143879774643 7.910666309376769 6.367844949981321
Ti 4.139022004577814 5.6051839057159425 7.718396970753959
Ti 5.470196172029562 3.9479283278323942 5.581267012851156
Ti 3.074195217755393 5.333777240371941 5.355591807736163
