42
Energy = -279.66357638 eV
Ti 6.819736603022589 9.18469262896719 3.320683141542762
Ti 8.167807887914794 6.800679038246049 2.339834523724624
Ti 9.366466262060362 8.928410022497772 4.038515686948927
Ti 2.786018162026474 7.1911768114423325 3.4528910492372886
Ti 5.327413464651743 7.01077682154001 2.6283572137872477
Ti 3.623336617530976 4.80201096244073 2.736692847075719
Ti 7.332258111634966 9.458585858092864 6.09284176634698
Ti 4.778740593533002 8.466245144605855 5.003196886646871
Ti 10.47869108676599 6.497784315104634 3.9620385554609854
Ti 9.936536835716 9.910932421023569 6.584823396766945
Ti 8.694599744627975 4.5319305735838284 3.9884372373505275
Ti 1.8054111552345318 7.541157631062208 5.8815469977971295
Ti 11.653901630177463 8.306242609105379 5.517068150961134
Ti 7.274541201737298 7.015397970476077 4.666690837316967
Ti 1.854718958564062 5.007087993239938 4.817098442836651
Ti 9.385733732112945 7.293027361635656 6.254602104631047
Ti 6.330188281849007 4.616486171023166 3.2670010050621503
Ti 3.616092479709923 8.94145654639505 7.441034846407016
Ti 4.479638325075808 5.80903224341657 4.930882355058732
Ti 4.2334826679439805 3.2346433273265975 4.928966433698422
Ti 11.679223174237114 5.906032186592969 6.428479616934642
Ti 5.964784404412703 7.496705899135972 7.410455770727212
Ti 3.667471490547241 6.091907517606026 7.333900937059431
Ti 11.106907765289284 7.9801611845252465 8.199121863666026
Ti 6.74756815852678 5.093256395470697 6.3328519391077
Ti 9.468791065252882 4.451871156705874 6.347743162423565
Ti 6.994162457812685 2.855110589102666 5.441235917297839
Ti 8.66651169753201 9.244643844812666 8.825002486481766
Ti 6.057448363085541 9.683707768702392 8.767128537092162
Ti 0.9974937215353371 5.4538228982038905 7.372711399116621
Ti 1.7932111693966766 7.4313348048634165 8.66210002322131
Ti 8.171480734879783 6.5019853598483 8.398717453449397
Ti 2.5675609670906496 3.52645333013706 6.936607958743887
Ti 5.018875672204437 3.5550749781131414 7.6588825434660635
Ti 10.453321315400098 5.26792361471872 8.863300311017738
Ti 4.2640000670752025 7.609268372310047 9.591584580211956
Ti 9.68632283973013 7.412244674200184 10.383222163831233
Ti 2.8385017838116045 4.881406460106515 9.337469717427245
Ti 7.925327487045716 3.783512718017125 8.37693199083598
Ti 7.000212151028821 7.701311640658119 10.473257754995611
Ti 5.805831296287569 5.381939421059355 9.483521195811827
Ti 8.284250764100126 5.247141082056066 10.627141546593927
