47
Energy = -313.74440144 eV
Ti 11.63639692958955 5.487385009475724 5.424813276488686
Ti 10.15632131288674 5.649602044152326 3.313623618536875
Ti 5.776335427730468 10.599089844470148 4.86441791056276
Ti 8.55281656005336 7.78799523002291 3.0053261123028197
Ti 7.394522232418067 10.184626993295142 3.223394339656732
Ti 9.84086908791381 3.7296736197812588 4.988260974771307
Ti 7.795683683374038 3.7127550128441094 6.267851339138728
Ti 7.896077948925383 3.9848058691659367 3.147315943216004
Ti 10.836164160726673 7.837350696486704 4.76056618635964
Ti 5.710858541048157 5.786133377503317 3.099973653449972
Ti 6.0805834728232036 7.9299047497949084 4.441039652288338
Ti 9.87353657337307 10.032549946377888 3.845696786718062
Ti 8.432996068383522 11.583746651351463 5.427856831863607
Ti 9.24404558603145 6.345757117361472 6.646677925923255
Ti 5.596445031026517 3.3495613037798098 4.474318629567659
Ti 9.205704282756754 8.266425460808643 8.542179787412229
Ti 5.856658228866501 2.9247988010746315 7.281814264966653
Ti 10.522335337270363 9.760859755034213 6.504080656510085
Ti 3.571185816993175 7.612970215466631 4.50780713849935
Ti 6.402694660312501 11.183565400359653 7.169475206664711
Ti 4.616141360278018 9.131360246351905 6.829290928206632
Ti 8.092238894457806 9.076020305457503 5.606540250298865
Ti 7.817457608874802 5.9332293438095896 4.702912279199382
Ti 2.017571688821521 8.645010486729275 6.304135242281588
Ti 8.609959893860198 10.623957233349762 8.010336234089646
Ti 1.6910346391776798 5.962506634261664 5.6223468764107905
Ti 10.721863194706184 4.3075672598667145 7.483518652214525
Ti 11.496203837410233 7.096544321965306 7.459441425534601
Ti 3.558328523461341 4.932498412741453 4.093537424824827
Ti 6.74671050323698 7.7182395545936435 7.345852312564224
Ti 7.684282138347606 7.237332605368398 10.39505388505676
Ti 3.515602515709414 6.670761831812906 7.351246778051797
Ti 0.9500932667798679 7.08668366399017 7.996351053436684
Ti 2.8302594773342777 8.799408061618985 8.815925411001096
Ti 6.3779300919321535 9.600170512425787 9.135502669919994
Ti 3.363168500751867 3.6796325665402794 6.295592857434693
Ti 7.073130706195813 5.25285235416691 8.562342277284937
Ti 9.870077875104714 5.734194099171334 9.455736761746792
Ti 5.496355036832734 5.466428542466555 6.0214887214093755
Ti 8.792447733612772 3.197085182505942 8.979453452794415
Ti 1.7777510581844207 4.694836173958685 8.12822538461083
Ti 5.0979695525831445 7.3434341218631 9.495471606618128
Ti 2.6434875735353245 6.334739298614335 9.902331920549909
Ti 4.349835940591663 4.452984798643903 8.89691655117388
Ti 5.757303065384083 5.413367306945254 11.026061881363743
Ti 6.361611146816363 3.0973807805517177 10.004648932680034
Ti 8.180052491804188 4.635479251901615 11.003848251134658
