49
Energy = -327.34445114 eV
Ti 4.344324362923666 5.706705785395249 2.12056085984121
Ti 2.2714959421356045 4.3456473838764875 2.7731889120318884
Ti 6.54152662434077 6.913246505773511 1.7372745599188881
Ti 7.43772990540472 8.703493864156716 3.180994202532955
Ti 4.713367982678254 8.140393383466606 3.493595971167168
Ti 6.8089202356729075 4.461951681518394 2.102815592106774
Ti 8.601072140808185 6.241576583806635 3.249411338464882
Ti 2.457234690446098 6.79293373607228 3.7202082137749914
Ti 4.725840421693378 3.11991256130332 2.9585335501682355
Ti 9.822477799507851 8.429306219903307 4.206106586396779
Ti 8.640856524402244 10.366246209529852 5.319207068155198
Ti 5.6255203657456265 9.373007281245693 5.691762027536363
Ti 2.453679702227755 2.4375918086089445 4.3430032935294225
Ti 1.1476809473929308 4.592732853969246 5.177440427397269
Ti 6.048535786192036 5.882753888327598 4.274145672434693
Ti 8.42844494583965 5.118941006558603 5.608931961010517
Ti 3.7562190006461336 4.629096390615655 5.076710036822996
Ti 2.9133887690329514 9.13908719265607 5.519181007263399
Ti 7.568508461716028 7.6999447678499084 5.565818917355695
Ti 6.991376681698109 3.19828075339787 4.522021879843856
Ti 11.929708014677178 7.525679252052528 7.860779924943057
Ti 1.3027759271336654 7.085321232800431 5.801508315476518
Ti 4.836977065911639 1.929644766933579 5.3818016493073
Ti 11.285948987688096 9.464183724794974 6.174241882327598
Ti 10.729898416713139 6.631060552067598 5.763824640475756
Ti 2.6242824523270225 2.9417806031573512 6.890788433046458
Ti 4.295995619903672 7.058203692443732 6.522838718892664
Ti 4.744754392288355 1.9886338992572217 7.9565101349463365
Ti 5.936436357268406 4.4952274238044465 6.909249831526444
Ti 9.298991382282354 8.436140672553607 7.487633875750602
Ti 10.716793432239982 5.3717966773292245 8.217362557923924
Ti 6.992896192381968 1.9065396451286156 6.930040085829036
Ti 1.9523483386094203 5.444584029898962 7.718019984799204
Ti 9.654982261349852 11.109042020540056 7.6192684410360965
Ti 8.679951219246798 3.6089897171426624 7.722069058367112
Ti 11.208086959706012 9.683598304253893 8.91806535361535
Ti 2.0326508014357407 8.072795690376898 7.818252892673199
Ti 7.197705841960737 10.444822987600622 7.535791447350374
Ti 4.18585293019254 9.407843235794386 7.911159067907889
Ti 8.154048642095168 6.121540716317216 8.059823222584756
Ti 3.8068745231368317 6.955570876272408 9.249348873680667
Ti 10.352729298945224 7.394708839774719 10.013558731360716
Ti 3.918509386340028 4.226399333771302 8.962225151411188
Ti 6.608648535111849 3.1868437158122993 9.235857072315712
Ti 8.697145850764002 9.699199420997912 9.739907332264755
Ti 8.89447761111994 4.991297425075819 10.23528924516398
Ti 6.33542748616116 8.064592054348264 8.219154834672063
Ti 6.135292390966313 5.646353856215304 9.593377150576444
Ti 7.77117845867493 7.394325842589259 10.490910079158493
