47
Energy = -314.5424226 eV
Ti 1.7977936401601373 8.47955433479476 5.22014386052545
Ti 4.223132146489221 8.614793360814055 4.022323346124125
Ti 3.183413602594298 10.320848985436468 6.036976471201786
Ti 2.8606664322978066 6.24295564837929 4.143951415101421
Ti 2.0094527970148275 8.662618120282678 7.925784729826779
Ti 1.549293447483099 6.402436823536087 6.4961078637971665
Ti 5.888801938184734 10.016776515973904 5.893524452368625
Ti 8.030332109464984 11.495821779244825 5.271049150313959
Ti 4.004969834719282 7.846371470756765 6.724065088835655
Ti 5.404900587258887 5.886361132825096 3.0404730112078764
Ti 7.678399116594493 9.14787437184797 3.7714390380202265
Ti 7.468042898743689 11.206180692181247 7.750903131346886
Ti 4.394784292171525 9.994251681161971 8.269241627123446
Ti 2.430049306739983 4.0316059501579025 5.872376347305293
Ti 4.4501764327160735 7.45262469798571 9.436729478604112
Ti 9.950492071821108 10.315220501591913 4.333780270272005
Ti 6.199911822969455 7.379748294796049 5.183845013552971
Ti 7.917937579606485 6.2729757960112 3.1417669546740825
Ti 10.180916675059564 11.054087399657254 7.022496597362914
Ti 8.660804684140103 9.11227643596008 6.4475053192554475
Ti 7.2382941047644564 3.651255378088618 2.7747945225052906
Ti 2.9288544905201044 5.615754876451681 8.439231079744989
Ti 4.457170214381407 3.709406678381244 3.7019458341617466
Ti 10.004951983977955 7.698715152543178 4.012523223722038
Ti 6.909303117559186 4.516101762369628 4.97349333354579
Ti 6.621989263069688 8.651818173453538 8.313958177958193
Ti 4.466006147290652 5.308033683887983 6.15085234647962
Ti 8.845234691747645 9.714722383216074 9.20227266700103
Ti 8.435706120453931 6.551263822025754 6.011047750232343
Ti 11.41141456156147 8.957187888914508 5.831816255657948
Ti 3.9658117679541935 2.925545978374356 8.150252464713912
Ti 6.411826137719674 6.023293489423707 7.916282058155819
Ti 5.117757937085813 4.751834599639971 9.929096950804906
Ti 4.238433356214948 2.2078555587723305 5.7731340046493065
Ti 10.825949898061477 8.651145068147542 8.223512516894997
Ti 6.828072618261297 6.84452681653744 10.336578136368775
Ti 8.98015121795504 6.885262688388494 8.769292837082912
Ti 10.907544432707976 6.523573014846614 6.603616228622967
Ti 6.283953952477649 1.841144884225375 4.597198598633839
Ti 9.577059651219486 4.740794826277109 4.517953471469283
Ti 6.564380867340077 3.4686662422757633 7.2735796027911706
Ti 7.885317473923731 4.361865202506913 9.72670027862403
Ti 6.134477016410087 2.369722276535711 9.641971953436633
Ti 6.10770947133257 1.0463806435752667 7.309105983055092
Ti 9.228323070913914 4.3025406681099145 7.254975039780772
Ti 8.478131006073614 2.233103750229297 5.690102741298212
Ti 8.39710819780134 2.0483046844163844 8.40543296079811
