42
Energy = -280.42776296 eV
Ti 10.48978616987244 7.2046249836814855 5.460943640870583
Ti 8.268525920774362 5.292709372990502 3.173991464283423
Ti 10.670942390110246 5.877277778261666 7.694715058841905
Ti 9.908730504100836 9.831359215249199 5.7855076655005115
Ti 8.892194271684422 5.1888580139484555 5.783424896173727
Ti 8.442576417271571 7.932087228614829 4.03090975010193
Ti 10.965419342465927 8.43532893370509 7.671493060152768
Ti 8.893811490468655 2.8598105954352975 6.8164337238297845
Ti 8.491599295111852 4.817767914527423 8.761619591401702
Ti 7.378009982503113 3.1164027808490764 4.518728113175138
Ti 6.47710154841216 6.4412050747433485 4.914056981268813
Ti 6.641442857217292 6.771050104696823 2.2821026477121116
Ti 9.539811728826065 7.5444496865180355 9.715527535671017
Ti 7.18523250630181 9.121738893091198 6.2385964934025715
Ti 8.18798135874608 11.698801442207252 6.399818807159606
Ti 7.885039959536563 10.628242728806194 4.118857187398577
Ti 8.475163014028494 7.30640621606342 7.405656537977065
Ti 5.906095674291069 8.90941380750367 3.7653031763533793
Ti 6.710859954583753 1.468221522336431 6.471115212454815
Ti 7.274274349319979 2.3888348741184644 8.817533934436307
Ti 9.13965349055875 10.079720388121775 8.417734581510482
Ti 5.497152387528552 4.4271173318190975 3.2474646048045366
Ti 5.6750727829917365 11.089105283753693 5.664685649519721
Ti 6.6365042077572385 11.04678068602817 8.179205215246835
Ti 4.153639413823417 6.628786851087869 3.2537254995357094
Ti 6.531711275114452 4.142281616694199 6.933466490156968
Ti 4.7787578833799405 2.488314553382347 5.099276497509393
Ti 4.724422080432488 2.414472461624809 7.936737345079725
Ti 4.179984198099614 5.230463231044372 5.789770719359723
Ti 7.0005123184529205 8.767439062949023 9.482706271006496
Ti 7.210192002054016 6.391877356436455 10.326475391855148
Ti 4.192777696017004 8.478508749192322 5.436279098488959
Ti 5.752943940056944 6.617531163336778 7.854983029408508
Ti 4.8938981718071055 9.219672714019815 7.809825539898392
Ti 2.615655332304882 4.355199127049248 4.121550822925012
Ti 2.692520387643509 3.0597575112426347 6.510562382394791
Ti 2.20312875081536 6.938045697369287 4.941077915294145
Ti 5.770232806704503 4.39403288339183 9.696371863952148
Ti 4.64748116695798 7.164178534764106 9.938096168933042
Ti 2.995129568437081 7.256494806532861 7.52581421478306
Ti 1.602103677594558 5.193636688975092 6.5433498165893935
Ti 3.487621410612887 4.847685818607799 8.530199088353857
