48
Energy = -320.09721211 eV
Ti 5.494248927654681 6.107434372876759 2.44815448270173
Ti 4.587234392923832 2.649605690949931 6.496977591684803
Ti 3.4924268013045565 6.854616704651418 3.7676494787236425
Ti 4.784943835438834 4.324278933877439 4.289614947824169
Ti 3.2325656414988155 4.942848375225604 6.365486254979413
Ti 2.4737785489666386 7.540857157005978 5.824581467194973
Ti 7.944512718371579 6.291489937199263 2.093639738881603
Ti 6.791568200528992 3.956427254661257 2.546491220327175
Ti 6.919102759011101 2.8523393428915336 5.084554160078644
Ti 4.419851550381863 3.9973299847930344 8.831872876000165
Ti 6.59735816191869 8.190130072163 3.7319482957888748
Ti 3.2503225855859466 9.334569882023954 7.517404958613979
Ti 4.176738897969498 9.422099987767865 4.894878138853216
Ti 5.106920398048244 7.033697484248135 5.7806236966510856
Ti 5.953074257528537 4.771734479430902 6.823740179416256
Ti 6.743482475601671 2.653509574201534 8.080120657849152
Ti 4.698720758411983 11.073956159419557 9.01347012654874
Ti 7.472499912962004 5.525635390103555 4.658479067528335
Ti 9.683549896049774 7.0752776879628865 3.6429517923712385
Ti 3.4266498001454972 6.682280023411454 8.228625608098222
Ti 8.925808240974755 3.571420979198144 6.383715240774464
Ti 9.25249410588088 4.228136040586303 3.513954226356592
Ti 6.76620664342581 10.58453183721882 5.205004823297443
Ti 4.457369050686528 8.599534458300154 10.04071423472508
Ti 4.635741947306209 11.390835705628753 6.555743293928505
Ti 5.980096495073623 9.254157012258059 7.443523050023401
Ti 8.041725147678072 7.799574150085664 6.032436168607931
Ti 4.573971148718971 6.046221671236771 10.608294094085307
Ti 8.335741442166983 5.697744722957605 7.872671910985907
Ti 8.967102627979639 9.566441579007815 4.2307897852312
Ti 6.7154231625043534 4.529544165946301 10.103479475112714
Ti 6.076311017943498 6.902647357589405 8.6948560582685
Ti 8.992368080762274 3.5245216536495168 9.275564787912048
Ti 6.940810811869855 11.662316038717895 7.842028275732933
Ti 10.785686526949412 4.797877532732122 8.443088319249918
Ti 10.319468426757501 5.684230099920627 5.681669882856446
Ti 8.53279571496414 8.545042952624813 8.894038995485543
Ti 8.99954783948933 10.246279348541881 6.878684289780465
Ti 6.734650493304465 10.012394213140762 10.192061051766277
Ti 6.816418632660555 7.362408140021864 11.083503807250775
Ti 10.660649999773469 8.378975585979502 5.738638546109793
Ti 10.599456494262874 7.217924434315031 8.002611688088887
Ti 9.159454662737554 6.059663115003618 10.298269805882237
Ti 9.20946670357189 11.115039042339017 9.72147861179257
Ti 9.256003404695457 9.022284932914873 11.366257852077378
Ti 11.063854622605119 9.721241862722268 8.81773828362459
Ti 11.382739284451793 7.74063552321174 10.463223433654774
Ti 11.367639093753382 10.237215229868182 11.329689890500585
