41
Energy = -271.25653282 eV
Ti 10.911488579613952 5.528378773891277 6.899203686741845
Ti 9.888792350631268 3.744055625206917 8.83659292366197
Ti 9.841416174493965 6.178542464967895 9.294708890052377
Ti 9.712125704845757 3.1815203725887025 6.416526287937061
Ti 10.242778033932339 7.494303667437253 4.741096541689402
Ti 9.570671603613805 7.862297391594318 7.339695555360918
Ti 9.311882822231142 5.064334288179475 4.476726010908554
Ti 7.922771967759314 2.365224052810124 10.123353322181215
Ti 7.673640032683487 4.953983671785982 9.984540460848628
Ti 7.561669215782372 7.5398851741717525 9.248545841455222
Ti 7.389103025446549 2.8010006430158487 7.796703792977031
Ti 8.92274379847753 9.320608687121368 3.3473005413147634
Ti 8.367531683393159 5.432827074713802 7.071133930303703
Ti 7.3061612352360985 3.5361159181894988 5.337580415892931
Ti 8.603977923498807 6.88031575656053 2.4695258609546262
Ti 9.013202234696156 9.688443322996449 5.848728014892091
Ti 6.720832346177482 8.65767798575974 7.095821840423432
Ti 7.597028502303365 7.403685158706575 4.845553012195619
Ti 7.25308623392326 4.461483057960789 2.7062934434515027
Ti 5.475805371376344 3.7107260313611516 9.361564554126645
Ti 5.236949207029076 6.479779484834736 10.063157659937739
Ti 5.3763693510312685 2.8445877677329467 3.9622543406629926
Ti 5.464924267876433 5.49286309137177 4.695466352037716
Ti 4.097550752721346 7.602204178604912 7.515285967242176
Ti 5.010565560916848 9.232636832852494 9.346674494523008
Ti 6.514609773062259 8.848688604265083 2.6440772217663753
Ti 4.653380195939878 3.601183919887044 6.495045199739963
Ti 6.819286436942496 10.125367705779059 4.773375917225535
Ti 5.940961690840095 5.675657106139482 7.593811315094975
Ti 3.329517993843397 5.20789692887017 8.595241169185707
Ti 4.66491497653385 4.576832454714375 2.1954334666994555
Ti 3.1570543375185753 4.086550028396025 4.2018109061663855
Ti 5.909743549308401 6.666794582003902 2.0591059803998037
Ti 4.855880830541758 8.32960927976057 4.837915549978055
Ti 2.8676559598862683 5.9320498609632795 5.831032982079476
Ti 1.4981258538569073 7.134780707841591 7.791651307535708
Ti 4.413370651556087 10.140569211339018 6.833554346632308
Ti 2.929580544208412 7.535915421064813 9.937805984543258
Ti 3.383665860351143 6.619760606529625 3.3087728872204814
Ti 2.343288726336679 8.713993657920513 5.847379419367661
Ti 2.438591422227098 9.507927245904563 8.4012579550592
