44
Energy = -293.63184976 eV
Ti 8.553849226146843 2.9435690752418693 5.68155528526513
Ti 7.731526726849023 3.0289635826804093 8.171568386918926
Ti 10.878815638147692 4.288163796248555 5.244171847070915
Ti 10.293157930176633 3.7861317439280726 7.76875355247161
Ti 5.844437752856532 2.2947228236933244 6.327506858666538
Ti 4.022127925256021 2.9011540730200696 4.626405997638752
Ti 8.809772324536155 4.784504591307286 3.670919156945775
Ti 5.400741228797869 3.5057636249751036 8.72378708649921
Ti 11.58876201018074 5.983353584613852 7.044608249493328
Ti 7.356554477655634 5.711114624580939 8.676649242585617
Ti 6.353041638553044 3.441947004943609 3.722979533031103
Ti 9.027036090342474 5.625105213281929 6.510940097525805
Ti 3.565642763676098 4.4690465082636965 6.902041943599722
Ti 6.38243964091132 4.694753051201454 6.33890739237287
Ti 10.415719168098502 6.902935590860267 4.667709540944338
Ti 9.93747242955463 6.289459012817616 9.047920239926679
Ti 3.925969391820855 4.354601499153794 2.3804939484818988
Ti 6.546370041825667 5.7049543464935315 2.2104059154708495
Ti 2.1446205721097567 4.390958614024028 4.553945944507787
Ti 8.614192632819067 7.275900731717421 2.748524028531503
Ti 7.066693583057184 4.4565696873639125 10.659100984657975
Ti 4.513468560070893 5.706727634938243 4.455722882934878
Ti 4.346093541595014 7.017382631971291 2.0274853080976336
Ti 2.269119647309108 6.472941159936843 3.207608101360833
Ti 10.368054194190812 8.309858953308197 7.205282683474184
Ti 7.039457984648248 6.769888475288542 4.756810666384458
Ti 4.893155724167607 6.009948794165063 9.653053956415969
Ti 7.7917836939662095 7.8658499981928856 7.21854104544274
Ti 4.7669745550048805 6.944879241064072 6.893787480081236
Ti 8.622040157215297 8.964192239734215 4.938447208612595
Ti 8.998687794273943 8.72517205549514 9.522195220074217
Ti 6.247368789244197 8.419138038811342 2.9352099260925573
Ti 2.383037489895533 6.743219420757119 5.879070679731231
Ti 7.1875073531773985 7.3716558895762425 10.766700399120378
Ti 3.820105183330384 8.384780210322251 4.361252235092832
Ti 5.725487545205991 8.460006153926317 8.665136549522778
Ti 3.1346099675289887 7.903982862345973 8.97948550561898
Ti 5.996947489443367 9.299517984520145 5.670554830502576
Ti 8.252717602270522 10.33721177084747 7.67936393701185
Ti 4.802412560526905 8.36590887994671 11.08051828170074
Ti 3.644160367624946 9.516909479317633 7.083497993162655
Ti 6.813749438514456 10.225330480498268 10.152319623293847
Ti 4.1569926163709985 10.365699684982859 9.552132217773257
Ti 5.797843073914034 11.016843702504557 7.667646558752865
