40
Energy = -265.65706624 eV
Ti 11.368195244599745 8.54132995742287 6.783410078119642
Ti 9.711792717230406 10.180139275069665 8.34259203449711
Ti 10.060430264466904 7.090085421465514 4.837185136165699
Ti 10.6112660854635 5.86591236643578 7.178510810241877
Ti 10.765648296446987 7.811776318614722 9.133685712418103
Ti 8.851941969220308 8.662327823351747 10.561767439222084
Ti 8.479647132102475 8.510540051680596 3.2746704437927976
Ti 9.463683872187577 9.858139940408904 5.418657061826304
Ti 8.081487156459167 5.508992088540316 6.046147403925931
Ti 8.948842387600292 7.88237298727538 7.190167593129309
Ti 7.591310280326587 6.145790942069335 3.231839632429254
Ti 7.3296090007897 10.550030597322811 6.850851467376579
Ti 9.4822141416408 4.102098034331795 4.9723205327081095
Ti 7.035135133021733 3.883559330249745 3.5904938655112115
Ti 8.889553686510105 5.96382571803154 9.440210111012146
Ti 7.076062183046388 10.425106613051272 4.1331362614855935
Ti 7.158970829936048 8.38397083093471 8.874185214662253
Ti 6.9658270476372515 8.12732366375989 5.374416853515732
Ti 5.6833055005212865 8.21751254401486 3.2805903435724217
Ti 7.309636135933343 10.787272177492387 9.602463444039149
Ti 4.839379584515939 5.4107978696942185 2.8826724132064134
Ti 8.756216632257795 3.66054456762104 8.00546037442939
Ti 4.843890974292433 3.144645016018352 4.341036487441622
Ti 5.515910382408858 5.585882015097042 5.283241996403302
Ti 7.02440975655715 2.913771178607489 6.04868214758228
Ti 6.355401515542075 5.315304127912199 8.129320826602406
Ti 6.359486215137929 6.488825983950903 10.668873854176137
Ti 5.154701864782446 10.66610463269188 8.105097908703115
Ti 5.313476319698239 7.831172771731516 7.34919616905723
Ti 4.839230633373209 9.934836990959571 5.549651513593371
Ti 3.6957579017465254 7.532719430318038 5.153882585128569
Ti 4.416017846674814 3.4832809823521638 6.948499438429267
Ti 3.027994049546902 4.886112525766762 4.8883640625265725
Ti 7.329102395059361 4.076422369585518 10.316341461418698
Ti 6.31371103724417 2.6300900985229947 8.556354291117653
Ti 4.918983417695103 9.183205276087984 10.09776295411489
Ti 4.713911050937028 4.352192432398585 9.817201494133146
Ti 3.193680827670819 8.86191968209095 7.834893374495401
Ti 3.5087787098192478 5.839369789611528 7.361939872397298
Ti 4.027307294570658 6.880798662661989 9.629624706928709
