42
Energy = -280.36386419 eV
Ti 2.657219399603363 9.212840207581847 5.153465540981283
Ti 2.107934500229973 6.638912649616085 5.821659136285973
Ti 2.167838599383799 8.429298425246657 7.65160859523364
Ti 3.7123706105693386 7.100430095778595 3.791618230678791
Ti 3.92408014062101 10.261531253974654 7.2397801842592
Ti 5.383000277048101 9.845685552862681 5.026281671749251
Ti 3.250284575592587 6.074795624888637 8.343230168652832
Ti 2.7427063736970876 3.6658545413477563 7.301964595982909
Ti 4.242411896616185 5.045125473916636 5.238214390976993
Ti 4.4712378104838475 7.7470194431155335 6.41670661236339
Ti 4.534629363594248 8.207130554776375 9.177328072816282
Ti 5.866877954654319 5.538758841782058 2.8547244341028013
Ti 7.24397818332392 11.331540079291115 5.999722059399549
Ti 5.784879125726867 8.299768822498436 2.981737552921233
Ti 4.3896291663889 2.367073565444877 5.827083438566342
Ti 7.191883988152614 7.9201136234119405 10.031414890143765
Ti 3.812680487694675 3.8519292838404553 9.73302647422258
Ti 4.5233306207052495 1.9155020867701023 8.375055902264188
Ti 5.268357940432766 4.311249185338402 7.517789369284333
Ti 6.430911012203559 9.437522997454748 7.799262634411799
Ti 6.628925650256067 6.529583574156984 5.023842374443364
Ti 5.552260348854738 5.7079237872888475 10.274874829617572
Ti 6.4784659237710205 6.694439841360222 7.913374690882542
Ti 6.379747856719726 3.312444648047815 4.592881642853303
Ti 7.760533427473551 10.07727277096184 3.4358309431864242
Ti 9.011733223968946 10.346917655547573 7.679480718629416
Ti 7.9851285207688445 8.769217208044964 5.691692071137833
Ti 8.071813852945533 7.331241550074056 2.848678854092353
Ti 6.77799346199125 1.8750721741080836 7.110273473468993
Ti 9.644673577034157 10.873060343516311 5.160810143859937
Ti 7.948252525665357 4.638791673668791 6.647986178255123
Ti 8.946853455534635 7.630446612403651 8.072628617364805
Ti 6.595285319054927 3.2112959702622517 9.5415783535077
Ti 8.191373900483097 5.35543327484936 9.65487257845908
Ti 8.516524679712232 4.753322535673163 3.904776421147581
Ti 10.058942599791715 8.673690021951703 3.8785592541790166
Ti 8.623427992100797 2.387844092697278 5.383161249793032
Ti 9.655151611019596 6.514255797848547 5.52515202911725
Ti 10.693575856725642 8.84274121798232 6.38040289538754
Ti 9.12973273874831 2.925068711162289 8.10285128225447
Ti 10.242382547866391 5.387141863561864 7.976301978863322
Ti 10.403085101952458 3.962818565054776 5.920421663363941
