49
Energy = -328.12617936 eV
Ti 9.037458548471514 2.168100780653521 9.60359656299665
Ti 8.401621515974485 2.079966371882827 7.064544550622158
Ti 9.637095347676981 4.424398088661316 10.521771895710401
Ti 10.312244455837247 3.802313406660831 7.821688698597055
Ti 6.070682273526415 3.127301167975621 6.61698506338953
Ti 10.033270745554056 6.367498413307501 9.009032973579572
Ti 6.504074575133382 2.0295740614636486 9.0130749601072
Ti 10.335356810139762 4.965233600654767 3.9473630012998786
Ti 10.352396280873 6.1394201656335685 6.445142483376444
Ti 8.43596234597021 4.40018109999398 5.586069266725159
Ti 7.215478940497639 3.6417175944518454 10.991223827891492
Ti 11.384648084788838 7.381522671697179 4.590787913982837
Ti 7.84800577974603 4.289970981371227 8.508564535674699
Ti 10.12742710155908 9.236692905913637 3.5744264407871387
Ti 7.710478579042277 6.418816531344194 10.422974123032017
Ti 6.785274167205834 3.347163392777439 3.899394486824601
Ti 4.3683068534564455 3.4532999175988213 4.674510498019732
Ti 8.55130560992933 8.508206997068164 9.058656946973255
Ti 7.8652560503878926 6.5479859973596 7.154263851556187
Ti 7.912965159748934 5.354737944988069 2.312887451353882
Ti 5.325436602208665 4.539447037602417 9.249607080405273
Ti 8.649479497078174 7.196624827311734 4.47053645995405
Ti 10.207350821292783 6.910037182016061 2.288811055268454
Ti 9.53737804144602 8.824741104102591 6.36366117323065
Ti 5.128769323383685 6.541678416230297 11.098096553970565
Ti 8.058629461009096 8.30417509316345 2.093857728577119
Ti 5.022731218194074 5.560461913202215 6.711371752890751
Ti 5.05837093225254 4.739352191051501 2.411108766741008
Ti 5.647234624962327 7.488808074388195 8.664527583641028
Ti 3.3983278392905802 3.7898040371781665 7.256019772105007
Ti 7.957803630164487 9.998917133740862 4.475236140399581
Ti 6.138364298708245 5.9655376532491795 4.35774963371952
Ti 6.376965180757675 8.980933561608719 10.563493441528253
Ti 6.597567142617707 8.398450545691942 6.004331556027064
Ti 7.128153543510233 10.115456616177084 7.9703523227647795
Ti 3.2546274603682757 6.062364630998794 9.117787013658676
Ti 5.85446757971983 7.071588464852888 1.8227255669885987
Ti 2.8873102625129747 5.401586860163384 4.86750327378963
Ti 3.7516479169922063 8.489618931960994 10.332892697921341
Ti 5.817147900877294 9.093725321395462 3.5220800541775654
Ti 3.9718941063690156 7.978846434705286 6.283919720648422
Ti 4.524143143655578 10.126745294644149 8.475695958333503
Ti 3.882007522413918 7.2653807971065465 3.550142433558935
Ti 1.8899792935941184 6.097251723573214 7.020359093038128
Ti 3.4093443181280363 9.79175015578437 4.258621939834446
Ti 5.2511284503218905 10.74000290355496 5.926754458964281
Ti 2.17340669834721 8.444941222347268 8.207291354845502
Ti 1.6471969262072537 8.166711269185619 5.369670268173379
Ti 2.717278055602267 10.374852021723367 6.59650790051927
