48
Energy = -322.25777048 eV
Ti 11.02792378308091 4.102750255042467 7.067329663147958
Ti 10.562560886764643 3.8932700139240923 4.384156484158483
Ti 9.1476079572783 2.507543637887101 5.975713070092782
Ti 9.348142606469366 5.585561059610642 9.103752918915845
Ti 11.120009334688785 6.453019667480083 4.935406141474163
Ti 10.813292350616747 7.181636535921278 7.616856014844992
Ti 8.386276491127648 3.3875879286524633 8.301308353998346
Ti 9.639804532309313 8.202367824915775 9.954629405312627
Ti 9.061531311984833 5.2418526658872215 6.246614385578317
Ti 6.939922915649427 4.924682353322248 10.144674143740666
Ti 11.22588803307356 8.914399513751455 5.713735539435548
Ti 8.201512674587683 3.2070015568823576 3.5903806171300805
Ti 9.269215365854237 5.794660271693491 3.1094967260969524
Ti 9.790291408374722 8.699195070960059 3.3375785584030297
Ti 6.548307761865859 2.949366829031015 6.242799651585859
Ti 8.737036665696792 7.825184629493557 5.347168947899761
Ti 9.88945648209196 9.864736796615892 7.815770606922202
Ti 6.844658766773995 5.5323565746897865 7.517670427029944
Ti 5.289513861429468 3.640831756521515 8.592664604869952
Ti 8.064752112494698 7.869039377672244 7.96252343594893
Ti 6.78272193497152 7.466232274103529 10.309192519258426
Ti 6.9037074048464095 5.299928812354075 4.6598049670533985
Ti 6.852419082371241 4.969077280382746 2.1429426676862766
Ti 9.345408133152628 10.531216096419756 5.260307462163379
Ti 7.715103154488777 9.958896528999185 9.45876253063298
Ti 7.147647557423563 7.5136992647827405 2.919685011745206
Ti 4.441714562754827 5.705341735245125 10.90834002084804
Ti 3.546789789760097 2.5084825352194824 6.237063556893879
Ti 7.318736650839342 10.399542526274537 6.7630745895116355
Ti 4.764495621542886 6.54111735576909 8.643624445204896
Ti 7.178363740339651 9.742252044244141 4.092909615874066
Ti 6.116675631273588 7.7905223582661405 5.624514057431737
Ti 4.583096275406429 5.966585494769708 3.4216984347748003
Ti 4.485108763427576 4.742800051337673 6.063517716575439
Ti 2.8071391878231506 4.529480098268256 8.429280117413432
Ti 5.3369684105233475 3.3051306308510036 3.9023171740899323
Ti 5.555219095435602 9.064420516324104 8.201863825498997
Ti 4.259472535360189 8.404128563628614 10.456988429694029
Ti 2.3117999143469654 6.832110624737636 9.710679436378415
Ti 3.734847217131935 7.232434437213606 6.290566876810291
Ti 1.6663256268515865 4.410023216057848 6.104933138117514
Ti 4.384075214573616 9.877009323506943 5.989529012680401
Ti 2.8686848155574616 3.983641184986266 3.97601623293069
Ti 4.025022808964518 8.427189546152173 3.9224176127736023
Ti 2.735696837642151 8.971336289306175 8.233861912913115
Ti 1.3736631530984433 6.7408871441187115 7.255176789219977
Ti 1.9480255728580063 6.470583754749904 4.443900166523055
Ti 1.9240720335615082 8.859592020514913 5.637508011255421
