45
Energy = -300.92319772 eV
Ti 9.687534638668586 3.8549600473586945 8.893304323099745
Ti 8.128640090159434 3.637424412889618 6.5123217861576155
Ti 8.097084639619096 1.8328963693226346 8.590607097005112
Ti 8.264163391354026 3.015613372707871 10.946313350968916
Ti 5.86320500604943 3.2187295887194756 4.567261745859932
Ti 9.045763996990345 6.154132987098404 8.022575173427416
Ti 5.951904170173601 2.1204450258029413 10.144609681685415
Ti 8.598441285601593 5.639393683881612 10.852411152840107
Ti 8.329735903597623 4.345451594934836 3.811088341114457
Ti 7.994934536297932 6.6275208287200185 5.627713772224609
Ti 5.6325887055202015 2.581828130628027 7.3362678169258615
Ti 4.2388371578765645 6.099941492375615 10.692647689018301
Ti 6.653433505105311 9.493997548604982 9.533261910840183
Ti 3.84887827795537 6.132113905965591 8.024100259567394
Ti 3.5971166580972342 3.875120949133901 6.159091963232028
Ti 4.314038567129407 3.898106034325982 9.444914946874922
Ti 3.8756369427807176 4.561361826071951 3.7134303974430214
Ti 8.172785631924427 8.882251094384877 7.391486154957215
Ti 3.933956898979263 6.838940451143455 2.4752876391588496
Ti 6.138618833663218 4.562241601393884 11.50924191977341
Ti 4.460494634601747 8.403066017502557 9.503064560503526
Ti 5.805350398658809 5.170909688916148 6.425421101003094
Ti 5.64408385961398 7.907187580011708 7.1092571991529425
Ti 5.909320296424465 4.4945007855266885 2.0731456765776173
Ti 3.1126646303797623 8.897178449341562 3.8660406167888066
Ti 3.5914701283816544 6.644612702063753 5.292400288809689
Ti 6.059230851668737 7.117431344933265 1.1169674607091589
Ti 5.138170064877083 9.374573635149147 2.286529307803287
Ti 3.358037420601846 9.083843638249485 6.396130071770411
Ti 7.016431185489793 4.153965488320563 8.926315708409534
Ti 6.480438694139272 6.655245946564942 9.111127852803033
Ti 8.131875214213427 5.8997344787356525 1.8177646360533724
Ti 6.466285399478526 7.464440168050188 11.482710035463045
Ti 6.224500266567086 6.386885928800662 3.7150964803185302
Ti 5.739202267029691 8.828554199594073 4.824288750015686
Ti 4.540737614164088 11.042260711371865 4.632758173840548
Ti 10.159661704318648 5.100032790395901 5.712903315563616
Ti 5.072432303598407 10.46615290282854 7.408618678141899
Ti 7.815853168801832 8.51020136982638 2.46026683594185
Ti 6.951481062842259 10.846531649267074 3.4876904569087195
Ti 8.689244828893386 8.09297157392852 9.9191133705504
Ti 10.365860770961026 7.613947340147089 6.218798366745388
Ti 9.735398167279662 6.783626172066248 3.6620348192235403
Ti 8.665330886852358 9.234266170338843 4.7979867905930496
Ti 7.0146730130142565 10.970935993001458 6.021159994530257
