40
Energy = -263.43067853 eV
Ti 9.542905727043864 4.662383522961459 2.538780938895336
Ti 10.417413529652476 6.4109364888153255 4.265208508924501
Ti 10.43737286081543 8.344754178271943 6.313130599592249
Ti 10.626227637618541 7.676265032226416 8.554359857643767
Ti 8.358389916963047 6.958472408880667 2.5402019520070476
Ti 10.18963855062426 3.795334886193266 4.895598653767005
Ti 8.278008530944101 8.161159944271573 4.926041805108246
Ti 9.894088518746276 5.553780778948925 6.903476018267963
Ti 6.23562498665025 9.518459898432605 3.8131157474613215
Ti 9.074228872592819 9.818466851474472 8.11642610446487
Ti 7.1314296039742535 10.329708407704299 6.270678901173562
Ti 6.923956303805603 4.683133520679572 2.274660784989986
Ti 9.221004523386442 5.93161962950091 9.691899263102961
Ti 7.969555085825715 5.366913234875267 4.693117872263969
Ti 4.570931254451679 10.653239709579802 5.431051241776955
Ti 8.608270536327089 8.359776708478645 10.158254939097432
Ti 5.896825562277884 6.919848988494915 3.4120171749769845
Ti 8.110029529255877 2.7868601949518186 3.6066302978336044
Ti 8.060333739130755 7.389720627845477 7.668394333360101
Ti 6.455418040781188 9.194981859852188 8.904634728846686
Ti 4.843633793687055 10.410326980208588 7.7949177156605804
Ti 6.403922901991623 1.1638345804718202 5.291839087078191
Ti 3.6206755521177314 8.504747910333002 4.245034804887759
Ti 7.874260505673209 4.312418800519227 8.60969052857326
Ti 3.511933941063001 8.880568732468578 9.499864798234709
Ti 4.20041283523215 5.842337235410194 4.766792090862699
Ti 5.698382847755982 8.109781753457113 5.86491992289878
Ti 6.238953013825603 5.378987528979054 6.800466143582983
Ti 6.53070910034868 6.601402476067103 9.815403862237567
Ti 7.927346027796433 3.073506004820277 6.29180583436594
Ti 5.791127228243749 3.556239560613207 4.721787390185828
Ti 2.6684114620857486 9.281446096819199 6.8607175135299565
Ti 1.9477548300210155 6.9006032948631875 8.344097704221458
Ti 5.301335146743117 4.356944838755027 9.408867004229327
Ti 3.516902826326997 4.8727086541327065 7.187361380200394
Ti 4.475128670858948 7.352049411367644 7.815899398323015
Ti 5.45946141375913 2.849545470895927 7.418365788812962
Ti 2.2813362669565977 6.924531668796784 5.874097744880814
Ti 2.740795428372969 3.7467326752978067 9.102499516819355
Ti 3.6858286753545206 6.094060901661858 10.029232613363117
