47
Energy = -313.79436229 eV
Ti 6.070962965663122 10.017755475121332 7.818575260072445
Ti 8.49181569912632 5.433875267142835 7.851175465856036
Ti 6.416238244062892 6.428632359083798 11.877613545357852
Ti 5.12399156068021 9.873515966002268 3.4792364963107048
Ti 5.677377387019663 5.132473446762821 3.1946239232134976
Ti 6.672578538795965 10.468435617345685 10.380236478300036
Ti 10.119913212012394 4.876634339743042 4.201800352900389
Ti 10.684139824109451 7.1160684470986055 8.39490756904593
Ti 6.9649649944623855 10.719517189547787 5.545429631290779
Ti 8.851412916175171 3.244067317085412 5.965415382250282
Ti 8.256664947570199 8.370711458099894 6.867135969834149
Ti 5.782261720422125 8.22963655576845 5.27883662969383
Ti 3.343670738820508 5.8113603798615605 8.2724917319432
Ti 4.38752532053782 7.495205746414531 2.716652747495336
Ti 2.070763294680429 5.271394590883912 5.918539562645837
Ti 7.797400437551766 5.945565400108282 4.9660105014773315
Ti 4.158070945121288 6.933604040802384 10.531621033013964
Ti 6.201821195096679 3.703550896993054 5.707052102082283
Ti 5.8835089435671915 4.998379105867425 9.674661139004327
Ti 8.740209511570885 6.606903038020368 10.399810200151457
Ti 8.014769354501631 9.298922849888307 4.009214009901754
Ti 6.936421275543801 7.6513146522077715 2.646453415747352
Ti 3.9917876282889613 3.830549551418034 7.266460316563517
Ti 3.722122306117301 3.5878523929024855 4.647987812285259
Ti 4.233347949144514 10.414317695376134 5.913636576928768
Ti 5.943278169560455 6.101788616142757 7.438692941957382
Ti 9.597383203233711 7.373679862318232 3.361211857168191
Ti 5.255714523534732 8.810450431236186 11.89505108640531
Ti 4.4834358351084775 5.94598925708301 5.535808042230868
Ti 6.985404661048253 3.09433740945125 8.051500826195674
Ti 10.71938624216343 9.494243313944377 7.499163280187905
Ti 10.515416894457324 7.317433869214287 5.765187317427166
Ti 3.0764883388802664 8.287334072318398 4.743902492367563
Ti 10.519285221769545 4.857621780627449 9.629407871938636
Ti 7.790047378858968 8.634010565164491 11.827475192383144
Ti 9.602937263325636 2.9174134492674355 8.391218247279348
Ti 4.026068587463779 8.140584080049932 7.365285920428822
Ti 7.873797862980685 3.487343883054605 3.621762183564844
Ti 9.041642388671084 9.166090358007256 9.506768785749157
Ti 6.4229293525265145 7.875011219219808 9.538463505812276
Ti 8.613170925306271 10.976945134717143 7.737314312014971
Ti 8.17163788345083 3.981366640607373 10.271684782236399
Ti 8.303977471500916 5.451531022700156 2.2978762477719035
Ti 4.2414042881698215 9.560110033506666 9.671823937439386
Ti 10.91610106956725 4.7502806902536125 6.95221886740894
Ti 9.899032619314875 10.136447782603335 5.3958511975961985
Ti 2.889533037635395 5.661556878136933 3.4585673802405257
