42
Energy = -279.8102806 eV
Ti 6.317253268526205 6.173825674953132 2.2424656516269903
Ti 6.394301460262605 3.8048779942822577 3.4497974316690705
Ti 4.122931358792441 7.303117485782263 2.5750767539890247
Ti 6.107683663145574 9.005056506984294 1.921831157889864
Ti 4.09823430500071 4.983824155111386 3.5231275313633765
Ti 8.393047049690997 7.775056320652622 2.7737968548909935
Ti 8.396107994433317 5.549531883165081 4.1486189054904345
Ti 4.650947254242027 3.200204053853237 5.5077434501058145
Ti 3.818639861247586 9.520622281643671 3.340618203602481
Ti 10.033396962787265 3.681853952765378 5.480548058731728
Ti 10.846389986828815 6.179900860015768 5.415448332889686
Ti 6.139720933969104 8.340416048133546 4.439995856653654
Ti 7.408463550167134 3.350115785607144 5.801875345407375
Ti 5.989432377431501 5.661510116618522 5.2820267371170635
Ti 8.074035346817453 10.061165687209606 3.594675336528031
Ti 3.528043036744655 7.369771396451551 5.193207264409934
Ti 5.793334686029526 10.972762259389953 3.8926591007824523
Ti 2.5653883382335083 4.77856386603068 6.032272721632862
Ti 8.964331061446622 8.145012015186623 5.328897013849593
Ti 11.12594695170228 4.711959310278705 7.596667540968639
Ti 9.044338185638983 3.083659478939353 8.081237151372008
Ti 3.6011305158651856 3.1403495780043613 7.954241480018722
Ti 4.190669377433306 10.086696491549956 5.772100671133512
Ti 8.71046737866509 5.475050396117617 6.772660779767508
Ti 6.11112572818772 3.173031376917649 7.920262946315421
Ti 4.569543949055603 5.698827201523197 7.621473682856525
Ti 2.295734668148077 7.207715726404183 7.316233860220222
Ti 7.199631387428944 7.728227002607797 7.212354518334797
Ti 7.1557420078679455 5.429801863856059 8.751977968589797
Ti 6.961036924653125 10.170162409566164 6.2534620644352374
Ti 9.080129651497597 9.526253177218313 7.740584556464389
Ti 4.73531625397795 8.414728154477176 7.586615469260058
Ti 2.275732776018454 4.979380206524019 8.73240733949031
Ti 10.406938543824227 7.236714254856083 7.93748022211405
Ti 9.617680492462565 5.166361013030237 9.759555895578577
Ti 7.517926713232375 3.4312305215229255 10.283842923194868
Ti 4.904045322062011 4.685104528781982 10.044266683457675
Ti 5.834667400067165 7.499704166399636 10.109560670601207
Ti 3.353823675242342 7.137313284723461 9.59715264216457
Ti 8.563612944047538 7.75158703670075 9.789187579541153
Ti 6.799470520648498 9.677843747482898 8.955472264831641
Ti 7.315573803219659 5.743078395422683 11.278487047402356
