45
Energy = -298.82596076 eV
Ti 3.0498655310045777 4.672539606510816 8.33837621888829
Ti 3.5958126702707407 2.676508692185622 6.71983643686888
Ti 4.441491461447254 5.8733490045830505 9.917537822211626
Ti 2.8972333174760356 7.24072398475801 8.149836870819325
Ti 2.761705246887624 5.310121563179044 5.9803046165775635
Ti 5.399526325729527 3.5013907757104805 8.632645795956282
Ti 6.022213470091764 1.5667294091497868 6.908351256900056
Ti 6.409769670090434 7.221601424902429 11.394755130285617
Ti 3.4507180247108415 3.4204908070388753 4.130194609364012
Ti 4.67937409320871 8.415289665626963 9.735993891913468
Ti 5.2398492494450055 9.124362101760628 7.195208196746985
Ti 7.244786079948131 5.268087130757036 9.364936643796117
Ti 5.20078600132864 6.349715641456917 7.26330020071934
Ti 3.525887932211959 7.985591016341571 5.623158673601826
Ti 7.895562749411861 3.1159644666596495 7.548146125199468
Ti 5.040147060641217 1.5954837030341638 4.672938010006637
Ti 5.702535437245231 4.0386856926480155 5.724379592072727
Ti 8.158628583759436 8.642962677322476 12.670926022695198
Ti 6.500247203255187 9.817615888250577 11.166506332684158
Ti 7.069560534855087 10.540261814212757 8.662962068205758
Ti 4.492656095769079 5.764722035772248 3.9484213895715565
Ti 7.057619892518238 7.885926236117678 8.795220240781955
Ti 8.89353411410421 9.340535431718044 10.327004320753916
Ti 6.148987992377493 7.661941842208391 4.650223360806762
Ti 7.598414061240189 11.257093806840125 6.132471656658946
Ti 8.04841966084967 5.851774064447851 6.826978141699678
Ti 5.856188616362535 3.5117019599019232 3.0747862851542904
Ti 8.954910500714776 6.736830980065473 10.891746802521126
Ti 5.144083216989076 10.225840650439233 4.772652603941807
Ti 7.561014910509754 2.3905969804613876 4.86395941992151
Ti 9.796525900592364 4.64650467473268 8.45246635538022
Ti 9.697398540027354 7.445746046869187 8.492028481373358
Ti 9.490460642491744 10.345521319696152 7.5990498030368245
Ti 4.031971852424517 8.229498342718477 3.088087981017966
Ti 9.60625731654587 4.1412721095872564 5.686927607455428
Ti 7.975250135057545 8.633167131686282 6.262067892887476
Ti 10.929708101786282 8.523273145624605 6.454756924216902
Ti 6.110019640589243 6.739477335146474 2.1296983218677394
Ti 7.569256640125732 10.441203791048443 3.815469197036948
Ti 7.53153078616263 5.383277625677744 4.012450386669722
Ti 9.753000593625911 9.917039541570325 4.815993856721988
Ti 11.027299259239353 5.975891682527154 6.7941178840147645
Ti 6.096971454728989 9.322668270887505 2.398424752779839
Ti 9.72149720312267 6.912602070462696 4.747813570768385
Ti 8.34193326365534 8.064421034503267 2.895640263276012
