49
Energy = -327.34042213 eV
Ti 4.1626385933443935 10.589544774043974 5.769715258817132
Ti 3.1311145633312285 8.24075165368445 6.388650572894441
Ti 4.660082806469618 9.997985090929744 8.442700997953889
Ti 3.269286873909718 7.6158401796637225 9.019091265857599
Ti 2.528869004710176 5.657224608397257 7.187583225258842
Ti 3.6046916610514863 6.1257469740270345 4.812425585234929
Ti 6.277006983731507 6.421663823423485 4.971514290433
Ti 6.013151801949999 10.873961333627888 3.8812069622453746
Ti 4.323525308876229 8.644776496683267 3.9559126822080675
Ti 6.446414787531595 11.340277466646079 6.565043420338458
Ti 4.082598010170519 8.96141040991667 10.94874965967919
Ti 5.8595115562297435 8.717123302941323 6.58394668070973
Ti 6.106226191573704 10.504916471688913 10.735385071329844
Ti 3.6033632922818475 4.653763495050078 8.954767606206916
Ti 8.402111135039846 10.41202648029845 2.628363263451154
Ti 5.079435255010151 6.390080208915624 7.615728654334536
Ti 5.594927816053451 4.236738481927081 3.7609374360104453
Ti 4.723971648054262 6.372622874916145 11.007692458833125
Ti 6.3796946715477985 8.036493181480195 9.557332169301672
Ti 6.093750407502521 8.284734784359815 12.242887291449627
Ti 6.408020847339728 8.579702634031227 2.0784508831738053
Ti 4.874646100754846 6.482039513485503 2.5762333692048895
Ti 4.87488415107233 4.1374876322479865 6.412225651549223
Ti 8.51017553411995 11.226180913926648 5.083944262822248
Ti 7.3156269615421845 6.015921341199778 2.4644120692483056
Ti 7.785316189772309 10.193600642459637 8.72152084232813
Ti 5.777046613844232 2.239501308619796 8.062265136566982
Ti 6.7147673131723105 2.088568022422472 5.417461250281921
Ti 8.29101104881596 9.170940627923512 11.17410195911302
Ti 7.496913872766951 6.280914501400049 11.20992150594756
Ti 6.080468123237563 4.617391112583114 9.38553808577159
Ti 7.607240734749916 3.961457196908753 7.047021459440721
Ti 9.07281087374882 7.951402370351194 2.3866628938001497
Ti 7.5502829791904364 8.7640106085788 4.4419204768595995
Ti 7.902426431412744 6.728306608425253 7.213364276582786
Ti 8.1910032948437 4.243002548889752 4.350372201762387
Ti 10.168533478132098 9.303648824896962 4.330556369363076
Ti 8.94317049264375 9.112617341601423 6.745975353471554
Ti 8.100164178080087 1.259368401846943 7.505543433207563
Ti 10.583718252241262 9.835877565165674 8.79230467786371
Ti 9.341415100804358 7.806899059047916 9.35729918009221
Ti 8.896170935011162 5.217661593522809 9.0587772546873
Ti 7.840723753831409 2.799234290373656 9.65724105857216
Ti 9.300052971518719 6.679421234759383 4.8170760341792285
Ti 10.37416857989572 4.806199314205883 6.515034125032305
Ti 9.37448628588985 2.3788227054829783 5.682855043250618
Ti 10.705645449546537 7.320527086585352 7.094746110515979
Ti 11.334632758754344 5.621370103509792 9.012847040304733
Ti 10.041117890512414 2.927119211815501 8.21197640899514
