41
Energy = -271.48080762 eV
Ti 6.343247040821683 10.988338745182261 4.400838298185403
Ti 8.303010100380389 9.656922961589242 3.506527673082213
Ti 5.962688253593084 9.453670065164035 2.30035043931469
Ti 8.10374292292941 10.445765242424061 6.09886387341758
Ti 9.170822353424448 7.944991636128666 5.382941516446899
Ti 11.0576541588898 7.596325818573113 7.421475149631725
Ti 11.147215709643717 5.4706246801688385 8.698345682168295
Ti 9.049687950573599 9.004348512955175 8.101128152291409
Ti 4.10279820804515 9.794594948444992 4.613498220172511
Ti 7.815617566034303 7.324344411122467 2.546188094003573
Ti 7.0678815166510445 10.57270569509736 8.657417226853292
Ti 7.875972138992951 5.721534832996452 4.818921104577641
Ti 9.720056558618639 7.186321598481019 9.990213327697884
Ti 10.558009516239794 5.3303239190358065 6.036495015420145
Ti 6.246969175515793 8.071197337177137 4.517913989098708
Ti 8.739501379504185 6.323541298669773 7.47299163322067
Ti 5.361733437150326 10.827842009513763 6.804217982555255
Ti 7.048616014119806 8.132616420799694 9.825792254567608
Ti 5.361261682508725 7.054706484512228 1.4947865470093151
Ti 9.789457561178523 3.5868672691325014 8.066671971877698
Ti 7.769752888176461 6.3170830189916005 11.65214147827528
Ti 5.716884608643086 5.41456924675649 3.455565411578917
Ti 7.018834176890768 5.470329901188279 9.161382052868428
Ti 6.4269395671893985 8.318080767575468 7.160271513312834
Ti 8.127515657424361 3.6485148276308124 6.419634634800162
Ti 3.6563300389546622 8.100643897579843 2.999017283502113
Ti 5.871959511866142 5.2649692622286715 6.56594958899543
Ti 3.392610999474204 5.676129878709326 2.8557296315373244
Ti 6.484716563333532 3.2196384744113544 4.717272001579995
Ti 9.263148166694288 4.497186690349256 10.464113652366173
Ti 3.606443671982703 8.774376797605342 6.945731022736427
Ti 6.727893664303848 3.9970853207161134 11.290474729767897
Ti 3.882926481241752 6.695015037837323 5.392282021368156
Ti 4.794634170796507 9.380915818161457 9.056056115615167
Ti 7.390888183330049 2.8430671040089934 8.998354980427246
Ti 5.307237582047133 6.24944188948795 10.996170228743686
Ti 4.049637903229712 3.86786576562473 5.040526566488983
Ti 4.7944597509549105 4.02433149985724 9.451387249991427
Ti 4.537493630111495 6.757781161617556 8.513766415360069
Ti 5.383641582802395 2.7423396255039214 7.153314622023391
Ti 3.3539454863692395 4.704196637991394 7.249200449490482
