42
Energy = -278.7922371 eV
Ti 3.8618153344708817 10.939009210493635 6.735001634183355
Ti 4.765602708904093 8.536504658408658 10.07964867010183
Ti 2.919326921172398 8.969210735705945 8.12134263372142
Ti 6.136969353644648 6.53816861609023 9.339857582228912
Ti 7.48696829493529 7.17653544747453 11.2567774573643
Ti 3.458815009347311 6.444040864393037 8.94376299190841
Ti 2.2516771736283543 6.836732788681619 6.659378684505081
Ti 5.275982158926077 4.236668442053442 8.448499184378075
Ti 4.896579240645504 10.846419940495009 9.094248755327419
Ti 5.242038484369938 10.30995701389416 4.810378301976301
Ti 7.870449994983185 11.822704000140318 9.271800316154891
Ti 9.342024869439038 8.47889096659553 11.246206573530149
Ti 3.1683052071250257 4.573446410017795 6.846028871419419
Ti 7.272384851456351 9.526191090613327 9.465915372998124
Ti 5.515236656180966 8.871359387358146 7.369095758253505
Ti 3.288710586308618 8.647275764743103 5.3249519443805635
Ti 7.706529272383908 4.306261136315979 9.716794180042458
Ti 5.01105863890149 6.425967300530167 6.567248157749757
Ti 3.674631237140187 5.946946439483064 4.532190549156103
Ti 5.563110203412603 3.869713615710813 5.815578422215808
Ti 10.13599658754042 9.957347687937174 9.367617076046177
Ti 8.649982425350396 7.702177960192275 8.782000249699943
Ti 6.5350511206633195 11.36095353107369 6.937297195810066
Ti 5.593955884148814 7.957927742751237 4.084460466055826
Ti 7.291659950400328 2.6829148339196465 7.634925086101863
Ti 9.793353529052403 3.4923349457071002 7.996930724903798
Ti 8.967004179455737 10.191700093902963 7.166917583980436
Ti 7.753328855146481 7.88704506715374 6.072206122612726
Ti 9.809678972007008 5.611668881452022 9.973638262072136
Ti 6.814809382883656 5.6025221684443 4.321266803734363
Ti 11.264640013290455 7.562594718982835 9.610866788769
Ti 7.698724270367755 10.058274078175563 4.692085937288954
Ti 7.476578724643738 5.241073813363981 7.173861317115677
Ti 9.859989043559066 6.151710036433228 7.10494958906751
Ti 10.120986620256387 8.492886189678863 4.931711353388334
Ti 8.113287578805995 7.773430300274975 3.4193256741872675
Ti 11.327376786963578 8.46232554203733 7.293255619260653
Ti 9.559751499704946 5.818211561066511 4.272164829004686
Ti 12.040123236389974 5.535055355166744 7.905130320206164
Ti 8.599786271609902 3.5341422209849154 5.485885508002908
Ti 11.862737511652606 6.528226484547694 5.399214155268536
Ti 11.09128551336516 4.159413856979268 5.808465598605856
