47
Energy = -313.78474031 eV
Ti 10.603823893352576 9.177927465148592 7.073822838936049
Ti 8.523088952991047 7.991770562174315 3.060530204714532
Ti 10.526015510493767 7.585317651327198 4.990001039518277
Ti 9.505600873061391 8.483602972437534 9.33042356188327
Ti 5.794842551591519 7.65428622711681 2.6773319002139937
Ti 6.383269746572719 6.387579799465492 8.939921754578759
Ti 6.100045151042412 11.575380505045498 8.332193295311308
Ti 6.447643931434953 7.925110801965541 5.241889067603916
Ti 5.65412907683439 3.740913736886269 8.973796038172281
Ti 10.847220256328718 6.616453141828164 7.5618031649467765
Ti 6.794139370172594 9.946915843883009 3.3979538363069146
Ti 2.4440809915539483 8.173628250125507 6.064889536329299
Ti 8.413831330415592 10.4731390784798 7.73759681311006
Ti 3.0338914797445655 8.357294256222515 8.810837228469506
Ti 10.72707168489687 4.824433412944295 5.430189499131743
Ti 10.029572429561522 3.8954020084361454 8.0548546036031
Ti 6.147597538928518 2.374708282377807 6.416718356297334
Ti 4.401244247993198 6.828140793939772 7.08437244261069
Ti 3.9384095454764823 10.390640367407766 7.064535103487545
Ti 4.238488024222232 3.047793997058893 4.758196813732897
Ti 3.616157302632 5.815155733852648 9.678137311280897
Ti 7.678975397565668 4.674108633229237 7.324073243464455
Ti 9.339997697472027 3.697069373533882 3.383205044468662
Ti 5.6840307420569145 5.353527698025877 11.220629507553497
Ti 3.619420723005755 7.164566298563675 3.88566158995251
Ti 2.893475806295774 5.3491555074836965 5.233440840449968
Ti 6.408879420628294 10.879374017643238 5.821325105355659
Ti 1.9803363323023124 6.098818454401522 7.672955091523578
Ti 8.393910340916173 7.533677725981954 7.112064233117832
Ti 7.667490253215703 7.115035562891436 11.07618012093587
Ti 7.5422544866597985 5.463564091213128 2.343709346628897
Ti 7.134992610749208 9.755885619746719 10.136867559172922
Ti 7.914013878864783 2.294376950665504 8.333147027168984
Ti 8.716427107329013 9.586482965631431 5.216362664075447
Ti 9.612324538996898 5.974255436324731 9.674366037042839
Ti 10.18976681839798 5.958458754540381 2.9610183070821803
Ti 3.8691354741171846 4.112395480540114 7.295724448590664
Ti 4.998529578593388 7.937817888954922 10.638664336655657
Ti 5.684126602386985 5.082414849781286 5.475461852162366
Ti 6.0175470677550065 8.997399684093493 7.892698724068984
Ti 8.780026718952408 2.7901715559956295 5.778359369882991
Ti 4.507950341890169 10.328168533850748 9.722258647388799
Ti 8.351896227322815 5.788063622073658 4.811669306932885
Ti 7.926402622483008 4.341913726708115 10.105308741620139
Ti 4.8322927723005416 4.964124735460458 3.0211403790822513
Ti 6.836976188790305 3.2060921968904235 3.925637749081971
Ti 4.445460067243658 9.484289453243262 4.454880021892032
