45
Energy = -300.82552729 eV
Ti 7.8363472729478865 3.4039169382110797 3.852598392762499
Ti 5.169316758940667 4.302537344177234 3.3876657547048117
Ti 7.14353535061659 5.19728222178666 1.8577750388268708
Ti 10.406441046653619 3.078600022464717 4.820209805483655
Ti 3.5419563386107265 3.5974389807364764 5.7007099769652525
Ti 9.5579256055687 5.232336016225324 3.170775844221152
Ti 6.282687279905112 3.5404590870829638 5.749766659060462
Ti 8.559947761245171 2.882888822177516 7.122453393042342
Ti 5.075013316093339 2.9435692053639806 8.05360510687894
Ti 11.144997463482165 3.932375622605993 7.125689268539016
Ti 2.4332504770103167 3.6257172531234887 8.093084893534535
Ti 5.1504863224002975 6.899617396947692 2.554723123241548
Ti 4.9616021956194185 5.8639783361524005 5.665130822524599
Ti 7.259653160773068 6.077349620118616 4.283484240867804
Ti 11.584656228647127 5.408492451834938 4.977919862460546
Ti 7.965364926622781 7.691103499291905 2.4015853008107126
Ti 3.6994660915918525 4.05841528599177 10.16761770053508
Ti 3.058458134343746 6.100724506549587 4.0838185958445665
Ti 9.463772466127748 4.854484033968565 8.768912543423461
Ti 2.014196083458546 5.522679933220497 6.502241664489376
Ti 9.100206757945237 5.077281009421664 5.871258899014711
Ti 4.408018415709387 5.537662828543415 8.141702443495497
Ti 9.840396508108627 7.469426246061377 4.614505952401498
Ti 5.914114549631339 8.315012518209633 5.160749193744276
Ti 2.1776951839236833 6.114825303485491 9.178493586338028
Ti 6.224552688822043 4.373897086469547 9.985298254330035
Ti 5.958107367654501 9.322973171120589 2.6552226216982686
Ti 7.066066619155961 5.2230088061985835 7.672908560216511
Ti 11.000545386866655 6.65297898766448 7.216248765606516
Ti 8.039116046893136 7.68915155342488 6.754451187315638
Ti 2.946703000361727 7.7074891851413065 6.645849567579443
Ti 3.6747752071934277 8.830202989304436 4.050321930231591
Ti 8.109608650769667 9.656714625995335 4.438045509198546
Ti 5.715283040552265 8.066207889023161 8.181757003738257
Ti 4.238324651368627 9.83864125657958 6.75270566851276
Ti 9.443650675374519 7.40631463278289 9.046837456223743
Ti 4.45772155465856 6.535719657786054 10.725514340617448
Ti 3.401231747196562 8.68474603021066 9.314677171693432
Ti 7.2027247622065715 6.733206293421368 10.168559102321323
Ti 9.804085397463643 9.297197395543446 7.074904798580907
Ti 5.5963688969903735 10.794487742258884 4.632194458011127
Ti 7.0496781990604935 10.255609267069156 6.8607051492422695
Ti 7.8309853979536275 9.418053561584385 9.264910417737166
Ti 5.392638068341488 10.542922287609295 9.01764712386498
Ti 5.6534671284646585 8.797443280384627 10.789903033394772
