47
Energy = -313.79009686 eV
Ti 8.51030314959336 2.57776616635736 7.784060275675248
Ti 10.260657444657447 4.545991926741519 2.9333306608013774
Ti 10.102608709877519 3.9234022978720535 5.652366286990333
Ti 7.404025477395025 3.0079796895549133 10.347537249633772
Ti 7.938106320337112 3.555392911307163 3.552639173067984
Ti 5.877002827828742 2.742111176672407 7.926244078289458
Ti 10.063996685552063 4.322507410217676 8.811813563927803
Ti 7.336957597360532 3.8530800136703705 5.8971014415873535
Ti 4.293268737044342 4.4332587980811144 5.099287980893103
Ti 9.956479120251041 6.987951716600225 2.221758168661037
Ti 11.3033503319904 6.403956411138394 4.668730596743591
Ti 3.3061567816175637 4.666494356947511 7.499685463528106
Ti 11.448860508511087 5.830745060456944 7.258351954499028
Ti 2.0079266518297 5.9259023531514 5.490878145165724
Ti 4.848340268678183 3.8813575904983644 9.668298152633183
Ti 7.963880591781809 5.435427902523254 1.9286442073256513
Ti 5.9372147697368955 5.539795792742955 7.142969732590451
Ti 8.749497858348398 6.0514386766423796 4.42079211682309
Ti 7.434545990470876 4.814685358050315 9.01275537586476
Ti 6.225229481789758 5.875520321153253 4.190747810657427
Ti 3.750872158466132 6.722686988212797 3.6190064794501655
Ti 4.232474450352541 6.884913183912528 6.180124811760089
Ti 8.860697439638342 5.932197253029493 7.064363937694243
Ti 4.3167244859889555 6.457821764351291 9.375059277823539
Ti 10.62365083235233 8.25789653251454 6.566534995363896
Ti 7.5920116914723925 8.250490518753123 5.848509111053606
Ti 9.841420158374223 7.121676778811882 9.149621730148576
Ti 5.929057750957041 5.397674561019569 11.28169155388163
Ti 8.247436825883556 6.2276090990274895 11.25786816884944
Ti 9.863085343218858 8.795114791652937 4.059645594416786
Ti 5.0922052655886745 8.798222733402165 7.604328477827747
Ti 6.98578365703416 7.431644701903374 9.128361980556196
Ti 7.495033885868697 8.003008982724067 2.8469465569847214
Ti 5.332380317167223 8.753786277385366 4.439828428812389
Ti 2.5614308547613103 8.592983341618154 5.272147186384982
Ti 9.263098333174186 10.452747681449575 5.983185494792469
Ti 2.235327361186305 7.3721295475027615 7.915085862774403
Ti 8.642840080011299 9.423973455478189 8.282074798454303
Ti 3.79694491380201 9.110175770730946 9.857275264983402
Ti 8.436216140097232 8.78396232314513 10.871353546099634
Ti 6.007708316023744 7.986817126062371 11.481809108165388
Ti 6.803447006145672 10.714270960109788 6.853705302616582
Ti 7.510814413817973 10.359680736254576 4.203938742816925
Ti 4.315761716483006 10.708850450010871 5.793202945976793
Ti 6.399008234954862 10.139307572929509 9.847851671231526
Ti 4.512133525545005 11.21160800009846 8.3617670265091
Ti 2.5347977253206806 9.88326115975392 7.557786838447697
