45
Energy = -299.83585046 eV
Ti 3.701740738172683 10.662239477937868 8.252239684893667
Ti 8.884464596458434 7.314926741720854 8.440726657281756
Ti 5.763246505420333 11.292823198593336 9.533645290744959
Ti 9.899567719669005 4.167568411925043 3.177136138075756
Ti 4.9686263470614485 8.903709711761758 9.972771460856542
Ti 6.217227372097193 9.832006641807512 7.14412268156084
Ti 7.941745129508058 11.710370144194739 5.935581286970321
Ti 3.1433869921409965 7.27248956305483 9.073300798683476
Ti 8.155824176229261 3.2339548887070495 9.34156473751949
Ti 4.515987824114932 5.670558382234448 6.711159080064842
Ti 8.235006168216444 9.429540689249745 4.7091052963842905
Ti 7.970564454944882 4.824451990320836 7.2199055834916885
Ti 9.36143785050988 2.134800372837187 4.983596670063675
Ti 5.070166350925088 8.455087229055502 4.809368375103904
Ti 5.467206385954813 5.796964679523883 4.06215246276478
Ti 7.650828590723582 4.131550912627166 4.639423718836703
Ti 10.551986417361013 4.452962380576487 5.744432890965445
Ti 7.492444564080176 9.25489522447951 9.666885435908622
Ti 6.882517654886494 7.850612372642281 3.1722987335241344
Ti 5.994765389051735 11.013322928993404 4.53958523872117
Ti 7.246273791831891 7.292707759994112 5.898929649963102
Ti 5.677067133140623 3.813338839382699 8.59075741461941
Ti 10.205015289810099 4.955729635160147 8.538303377307964
Ti 9.930928580934482 6.837527187322485 6.430172557332534
Ti 3.223356797544916 4.781080664773504 9.123908025652254
Ti 6.819256234680245 1.5027399023402905 4.4119670770555635
Ti 3.6306051246506534 8.266293400262121 6.949949529562377
Ti 9.084934856681699 6.515888659570244 4.006488887386033
Ti 5.668771743057589 3.3498637688103394 2.993192652059645
Ti 5.543339369335015 12.35616696482232 7.017028393152567
Ti 5.271655176432519 3.1943249656496673 5.652267353093286
Ti 3.8470969280795044 10.57892669936574 5.745137041204141
Ti 7.342501549812532 2.00322494728011 7.008432643587836
Ti 8.99386666642267 9.569197377289761 7.135075609897284
Ti 3.1921555639084103 3.3309870040668277 7.179045624805922
Ti 3.067698777118482 4.400047328201929 4.867129427910965
Ti 7.589552774520854 5.115934631051493 2.19745378071559
Ti 7.698532957872029 5.722448753404163 9.82391279893112
Ti 5.047168790948083 5.9167196598047544 10.364468323818022
Ti 2.8796739587347653 6.858187167772519 4.746248162700029
Ti 5.994259303461989 7.205694597951321 8.306539093326503
Ti 9.7849469070336 2.6675178782473847 7.501234070804311
Ti 1.9089934266374484 5.754055625215644 6.988417552508382
Ti 7.8789296431217775 11.633835356029754 8.397548121612358
Ti 8.146628893878852 2.514676751165034 2.539342075754104
