48
Energy = -320.33668459 eV
Ti 7.962936316774128 3.6405221728351598 5.815647200711479
Ti 9.21270470090593 5.015126245960756 3.7551506195926514
Ti 10.91724924496898 6.638256604140401 4.7264409194818695
Ti 9.585266764480327 2.6034171607032834 7.682078531342266
Ti 7.43699579183489 6.330934615657113 2.4290230255731484
Ti 10.177057059946737 4.977486651983656 6.469216824610554
Ti 9.24091817949776 7.807560788252912 3.488890228922372
Ti 6.457574487063472 4.682679932377221 4.100393906691793
Ti 10.655400031259486 4.520877505841914 8.969708412119806
Ti 7.221812870775391 2.1991679294640374 7.91130382888789
Ti 4.746914148293066 6.383171546490424 3.2008120869386474
Ti 6.568815429375947 8.23007613631285 4.006376793487819
Ti 12.051188872278319 6.836719249504257 7.266445407393124
Ti 10.08780516923749 8.63003633558829 6.221480754714735
Ti 5.482366176919436 4.08508913524959 6.989042848709521
Ti 7.983952894880004 6.568189233965597 5.696593328114386
Ti 11.934963316054294 6.704950638996631 9.897709428709712
Ti 9.592945276305304 7.093537712018072 8.430873741929164
Ti 7.898823127593868 4.904895517304327 8.313449646097267
Ti 8.572627713294024 3.0559487151126894 10.115808730408895
Ti 3.963620270989078 4.423495907383709 4.8393459200997455
Ti 8.086672793364404 10.232911061283271 4.735765426141215
Ti 4.954265228729659 6.701918773178491 5.958758186758383
Ti 9.504653840779797 5.730720617556947 10.840506788211012
Ti 11.554307889596803 8.936866487977767 8.625424075933564
Ti 10.338131857915009 8.314347375571355 10.878798983938971
Ti 2.537262596692516 6.495612208544487 4.7420547193206195
Ti 9.0975382448238 11.222513398134879 6.625163987749056
Ti 7.663482882835566 8.8686555687439 7.375624559081115
Ti 5.601263600438013 9.553001203129137 6.317175559645355
Ti 5.621418287023508 10.794412325440467 3.943104138119883
Ti 9.15494158442391 9.915090475958934 9.133086553426576
Ti 2.9308115743098915 5.3123494661264 7.080813166702227
Ti 5.999449609132445 3.195759066532057 9.634676343801473
Ti 5.917868330078401 7.020278055144936 8.516951120768946
Ti 6.72616606504836 5.346002100750253 10.892060880903605
Ti 7.733073729649226 7.721830266241139 10.503236464155163
Ti 3.857695037770499 8.82479656437844 4.254594301697839
Ti 6.4344565262949525 12.12964599652711 5.978378350047741
Ti 7.421520104907466 11.70324471073366 8.36120250133915
Ti 2.716049680908502 8.27887384322475 6.576448755661777
Ti 6.354280124943498 9.847422321723117 9.742447867571057
Ti 3.0543844636270894 7.103890195626233 8.955475928064027
Ti 3.725475351877231 11.063648703064803 5.924030576611973
Ti 4.916630361209185 7.497099316580325 10.787169100181993
Ti 4.346210465395112 5.079185038361196 9.645022725782837
Ti 4.12832762370839 9.239637175042809 8.607161499294708
Ti 4.970599639104593 11.637023286595586 8.137950591867657
