43
Energy = -285.64457787 eV
Ti 7.080715933780576 10.17170315452356 3.9379592161820622
Ti 8.29125604506612 7.261911941041328 4.176366759280382
Ti 9.797597486784268 9.610124525512225 4.153800383566052
Ti 5.95608330606044 7.79629184971694 3.30550803393802
Ti 10.568965260785475 6.746373580439074 4.739350732755304
Ti 12.015199041940152 8.815138542047244 5.410058817604425
Ti 4.543817788814161 9.629708335269878 4.279714402305082
Ti 5.438632098633865 11.079822960145885 6.041352353437271
Ti 6.304802651661169 5.983941411155339 5.265603405157307
Ti 8.737040009726538 6.033257032264272 6.7180025237867875
Ti 8.296919099533426 11.144258812913584 6.0670007900756415
Ti 9.568345677988365 8.66386591741795 6.5945187420906795
Ti 6.667406253468632 8.614967989857108 5.928459780039
Ti 10.820037542281302 10.98619377353125 6.1862206228077605
Ti 4.061876387656045 5.255717392603754 5.919653393519845
Ti 11.548902693813977 6.746201042382829 7.122072648187936
Ti 8.309452746447377 4.198557321889943 4.937701581365701
Ti 10.52608580247431 4.223249276412469 6.363875326228778
Ti 3.655169147175007 7.4157521889784235 4.9402890452927055
Ti 11.889643132130914 9.410134460162393 7.870173948985805
Ti 4.576112257956431 10.531341062415583 8.390877000981295
Ti 10.454217452338384 7.928469766080727 9.404101355522116
Ti 9.637521605530265 10.46977596790666 8.647814084043645
Ti 6.1427915971580695 3.4165050619330923 6.2284662858159345
Ti 7.747373827406492 7.543159695831438 8.670245990452592
Ti 7.026495698286284 10.147578689062879 8.283808044582347
Ti 10.139161327690303 5.256638921834956 8.977799092578662
Ti 8.301332009665828 1.8467859223357466 6.136412176137977
Ti 3.0738481882198148 9.501322635334175 6.496563632414919
Ti 4.861815332047378 7.757340495838119 7.615983548260682
Ti 6.264989049018198 5.3114925388241625 8.140117571854587
Ti 2.4536086586933243 6.737591496653555 7.371234046831858
Ti 8.578644788362661 3.3413253443533892 7.915020017026811
Ti 8.184957402138142 9.035538118569807 10.646315083099353
Ti 8.92745358301519 6.601070276145154 10.981430869116426
Ti 3.7645489115645017 4.30334598036945 8.227227707614663
Ti 5.3501512682427785 8.839242669504216 10.162241479930524
Ti 6.146984562937101 2.713982416317996 8.684035551570233
Ti 2.9077301719544266 8.79174196552801 9.049275425351722
Ti 6.349176219028759 6.5937064872575135 10.96207146039969
Ti 7.740909421929888 4.380547507837151 10.253242495150454
Ti 3.785927175606456 6.501990286760524 9.862223888346453
Ti 5.134175616471818 4.330775451962698 10.417163025381411
