46
Energy = -307.75073644 eV
Ti 1.913848656245145 6.479279056987085 4.957849480641192
Ti 5.923716997533966 5.391671021417226 1.3358321840408833
Ti 5.488720617563127 3.2836359643998274 2.7949524201274505
Ti 3.9542754030252967 5.682905141951251 3.266000432269299
Ti 1.8795837532394457 5.066339389826698 7.3363772697002085
Ti 2.577554278075177 3.9121104222409695 4.898718890210278
Ti 2.9367990308581997 7.838973738572276 7.132296514843825
Ti 5.912741000779335 7.749873978405327 2.514029986253654
Ti 4.053061192331303 8.16279471631929 4.494746969783657
Ti 5.14063618544215 3.393933650695981 5.3332109848419575
Ti 7.984976471008746 3.9596686949733733 2.1703601059436735
Ti 8.235141217316587 6.459215554991963 1.9810911211916702
Ti 4.08356368810227 5.763456230306879 5.981135619808676
Ti 7.597083005701723 2.9674578587597407 4.606064119185973
Ti 6.701506164105813 9.855467727696318 4.872721882613814
Ti 6.597485034229474 5.4506519906464135 3.8898625882270728
Ti 2.9141761854276504 4.147079047038806 9.69907232325257
Ti 2.993067986228722 6.53772505551341 9.252524658538494
Ti 3.4245563813428226 2.762524334568394 7.460446075927837
Ti 5.111666348691825 9.779079266890747 6.751986988523721
Ti 6.215007922380125 7.3774801670782155 5.8290480238696984
Ti 8.201963076253806 7.986316938020933 3.9971496215058724
Ti 7.547078010425117 11.47720777854899 7.0143163648787334
Ti 6.237457558765869 2.40218012697828 7.536962110130979
Ti 5.040236361858733 4.785995449464954 8.171581892672018
Ti 5.887312234835446 10.547970162970048 9.062720096054301
Ti 9.436192603578904 9.906708694465893 5.4297602304247325
Ti 9.21840100976671 5.286035991283526 4.477788563322952
Ti 5.5105681437949565 7.494021714072783 8.400157509386064
Ti 7.182142376587371 4.845432234229734 6.599285135230241
Ti 7.712172966314063 9.02840375716052 7.582194142379886
Ti 4.960723274028923 2.8186812862685047 9.822585687554746
Ti 4.202879783361165 8.78571877367882 9.951312662573452
Ti 10.72992379457778 7.644325657398886 4.524235163316432
Ti 9.090374676125553 6.97645896908529 6.530017886154373
Ti 8.285096990677783 10.721197367648507 9.587192791533884
Ti 5.295985909452872 5.657548978978769 10.5390908750012
Ti 9.967606703392835 10.632633533484459 7.822559901029999
Ti 7.312145371311682 3.879120975345802 9.364903655825362
Ti 7.895108611905811 6.266774793930886 9.04434169629238
Ti 9.414297385670992 4.348515905410581 7.232804678446839
Ti 7.120451972944558 8.472139942570658 10.38813693573226
Ti 11.233302645825582 8.438867720459177 7.085553574599905
Ti 11.442682673451099 5.846059309521307 6.231082190166519
Ti 9.814908783020543 8.514880361797468 9.428891310831654
Ti 10.625576190295426 6.219237195796218 8.620803313011443
