44
Energy = -293.77455331 eV
Ti 10.71513438038085 4.095578676016252 5.581662143713914
Ti 9.300226191364453 3.8699920058371866 3.4136191378180905
Ti 9.0725700050123 9.034410473271958 4.313467300267592
Ti 9.074417791282224 6.265556451916739 4.7055926067380796
Ti 10.223290225623634 7.663301410064328 6.4001883977263585
Ti 9.319720719664312 1.8604753373118303 5.169136640340931
Ti 9.804782970995861 10.168380892323965 6.628636250433187
Ti 9.721119550588426 5.272088656535076 7.8187794224959415
Ti 8.013295027799751 7.329680744980541 2.442507355838771
Ti 9.488147667236687 2.7235454486852135 7.53895974999968
Ti 7.587512295103058 11.133163732059646 5.513409537628179
Ti 7.987030031291389 4.097443497474044 5.791189045971981
Ti 6.815736672464113 5.013113272019639 3.3655991743167655
Ti 7.430013808774745 8.941689140698733 6.7108269465471295
Ti 6.580007420129109 9.560636999076362 3.25219403211933
Ti 9.37519971373244 8.506508452788362 8.703706150482956
Ti 7.710237666091941 6.5931598055923955 7.496121073336641
Ti 8.075418682784717 10.85315732196734 8.324824510614576
Ti 6.992640802547583 1.8882444937837553 6.587896559962643
Ti 7.17243490243204 2.3241420228126555 3.8192779443380642
Ti 6.569734044695427 7.383118803985405 4.6007119068075895
Ti 7.395196163577077 4.094815054703489 8.613857027824652
Ti 6.772698583208178 8.722878447616946 9.412875790905199
Ti 5.45512296673733 7.100949220346988 2.2027943491565325
Ti 5.093018872234942 3.870211818144057 2.1075710659289477
Ti 7.685644300652545 6.163616726493452 10.182644214207684
Ti 5.4824098753335635 10.630942456311251 7.709267997950978
Ti 5.569336898675204 5.483388730941283 6.138929007356777
Ti 5.032388268089113 3.2415149405099046 4.8864843184157944
Ti 5.209217920358455 6.170544065366402 8.845648767478846
Ti 5.049210314439377 10.364702432463687 5.2949601625213605
Ti 5.030976209660245 3.4852493468542463 7.912644679984664
Ti 5.6216090076553265 7.265255705694469 11.296387042414102
Ti 4.748672663295273 8.017531428650878 6.930466974399538
Ti 5.343261394499414 4.594985988146982 10.812582667028575
Ti 4.115912916279136 5.690595779689271 3.9151738912897778
Ti 3.957783550066063 8.49894508980154 4.183831009609802
Ti 4.0549716801026365 8.767168247555261 9.520717300242916
Ti 3.0292818551179934 4.5122166594580975 9.419496508672118
Ti 3.1170746645391114 4.808827035170865 6.882408560078602
Ti 3.375768680552717 6.474729518940376 10.828216848358618
Ti 2.8723904670526834 9.44210010115842 6.712783564105997
Ti 2.501536369187736 6.977762049962886 5.689529565633871
Ti 2.4582004747945647 7.044036182920465 8.322777465039364
