40
Energy = -263.80096183 eV
Ti 8.382845502432273 3.4016640499062185 5.695209216285898
Ti 6.745173307260144 8.111744370462445 3.8441085244283384
Ti 1.9344808945697038 7.750393703247872 5.5602589649738015
Ti 9.088951696483537 10.313003316402058 6.974956948260319
Ti 8.7458117919247 5.9636428136772714 9.54400110401499
Ti 3.9435312487284837 3.9921405633909908 5.716058396312996
Ti 1.864388477786304 5.447220498676721 6.973298495369346
Ti 5.0873012328630445 10.847329124861236 6.9931502531861724
Ti 6.067431064590155 3.0281111531970883 4.229052876597083
Ti 7.057711358060763 10.407141924986673 5.346999535765168
Ti 4.618198429493897 8.95447204243721 8.64626431594785
Ti 8.214650032132392 3.9235000083267786 3.19624755782946
Ti 6.771184478652318 8.20802437700407 6.803432856624008
Ti 4.001067702890453 4.38032148803508 8.278208239024599
Ti 4.283768731547819 6.947644299131622 3.761193514968397
Ti 2.793077804293611 9.688752677016241 6.964589979884467
Ti 6.737136413528317 7.853724584276424 9.9010996563856
Ti 10.782045318908978 4.2566831220828965 6.930133732633513
Ti 9.113204878021078 8.594287191197818 5.089449239128381
Ti 11.075108659365464 6.414271863642559 8.208577870990878
Ti 6.436162488972869 5.6589822276899735 8.08048472843726
Ti 4.161359547976661 6.790800185089496 6.669842304803114
Ti 8.915627823728364 6.157132049025914 6.647125789463093
Ti 7.053593498433908 10.271126043399887 8.507024915416839
Ti 6.079237322264318 3.015409220189125 7.03656676433517
Ti 4.59633146611366 9.197051073309305 5.109260699117423
Ti 2.157931814246973 7.605568045507423 8.249232690697582
Ti 9.058925019916606 8.360928548320924 8.626144014384694
Ti 6.405777757792929 5.5231506683948375 5.203312576670796
Ti 8.45395206362147 3.7878857363434073 8.25663332869045
Ti 10.997961144140517 8.593158037556988 6.9279061658831935
Ti 6.416602275245244 5.698025360739509 2.5560470220682947
Ti 8.811924107747917 6.34272571413128 3.74212923485168
Ti 4.299027044648725 6.555881483223722 9.563274158098132
Ti 4.2214150013502145 4.456538777219262 3.2155351184927046
Ti 2.221883130532377 5.471150883777931 4.472481546287958
Ti 10.420860449622506 4.377057857785088 4.433179459622192
Ti 11.305336762005552 6.499881924099324 5.5176399346140705
Ti 6.412728023592998 5.395424325715011 10.77982447113312
Ti 6.150574627076489 3.4549007921038517 9.629767719624354
