45
Energy = -298.51753235 eV
Ti 10.4478604289849 4.425802244503642 4.4367536306397
Ti 8.685102005049519 5.420039729511792 2.8708192840986038
Ti 6.617257958780012 7.0903615458702225 3.165100829006626
Ti 10.763685344611075 6.838894947718264 4.020955746382425
Ti 8.766890551279978 8.229678391310367 3.367957374075813
Ti 6.40209321562574 9.834222536085925 2.690143915437758
Ti 7.993143085232481 3.3161452062791295 4.991528149440575
Ti 6.034742359309125 4.99829417103979 4.841220523223264
Ti 10.004044826722502 3.5199931405615588 6.633871599015162
Ti 11.02139015018927 5.975048069089215 6.62931608214684
Ti 4.5181761028873515 7.972826376179194 3.9404403969093242
Ti 8.481312097573342 6.194740506998528 5.303637625631834
Ti 9.879875707621219 8.551646238990488 5.948517826784947
Ti 6.756501733889074 9.263161255220398 5.044816710102804
Ti 5.239651260401828 3.2798381912142807 6.871683703675461
Ti 8.04702631573632 2.4438415642280136 8.178613236831774
Ti 9.020620867673458 10.830222139722535 4.753869453530591
Ti 7.605621951594066 4.610957942796397 7.320273250520619
Ti 3.8054733155379807 5.555257584820156 6.1383989688097484
Ti 8.89231913033462 6.612843745206122 8.130553390650478
Ti 10.043142682602317 4.26116939761998 8.966413830604075
Ti 4.472706314255938 10.657963474186753 4.284648717700019
Ti 7.720278941803614 9.153901544580304 7.515572451952502
Ti 9.79382989762625 10.896382694484387 7.420874657721507
Ti 6.5906389511137995 11.908093007772312 4.518294948062513
Ti 3.4628870734894055 4.491056232033736 8.788383401766087
Ti 5.90444187172701 7.280423848492432 6.323189257360387
Ti 3.842590140468605 8.991146435318324 6.107673554764196
Ti 7.900924778796927 4.605586389122134 10.198843548315486
Ti 5.797974533579111 3.140462163284056 9.365447540827349
Ti 10.207549262319336 8.656412494964847 8.609615010324896
Ti 5.5153418644919165 5.69770787788014 8.328849744893889
Ti 9.850898164949253 6.623129087162476 10.546065750338263
Ti 5.354129796617512 11.075393148598874 6.846432529162669
Ti 3.1748689258607397 7.0865215444248735 7.904877621085345
Ti 6.8971302965961 7.401797802645754 9.830217740971976
Ti 7.719313175469084 11.972508384921763 6.719196780552426
Ti 4.982067018677992 8.981502573293971 8.583899623599633
Ti 5.376810864804002 5.111678961924855 10.983127910653325
Ti 3.9679956305256447 6.971909060741195 10.26639679883675
Ti 7.864692159234685 7.123945708350606 12.227003415128348
Ti 8.86776043582063 9.074461188523829 10.770044827000726
Ti 7.354101334746669 10.73730472149037 9.19334594221203
Ti 6.401081825901725 9.322159363654057 11.49735403879816
Ti 5.434216139124968 7.299323558613457 12.438639717366451
