41
Energy = -273.43428682 eV
Ti 6.091490963280074 7.965985933347325 10.837804516891758
Ti 4.057886319949631 7.037843737328669 9.438868736500606
Ti 3.724256465444466 4.492894208471347 9.441196977956515
Ti 5.7996543382903685 5.315341833271312 10.777618409356972
Ti 5.561973762454425 9.277826353359373 8.693703389243167
Ti 2.9281904699696724 8.765529864160705 7.539748082490367
Ti 2.751819907394532 5.8150802278727225 7.455280590877376
Ti 7.6973496797425875 10.481955641431663 7.379826646561473
Ti 8.310179011223179 8.714125084486767 9.506076929757258
Ti 8.15589929237794 6.428396905721291 10.928049514863519
Ti 4.644579445005741 7.4849615976592 6.263306148944902
Ti 5.765950066985067 3.0994360492979145 9.330032387067996
Ti 6.822195061635411 6.710022702228653 8.645199140561182
Ti 5.503770247272844 4.980542751860356 7.2459270254754715
Ti 5.053908023488915 10.308444109478486 6.443759814897238
Ti 2.023365101501187 7.285771721596739 5.409999019841368
Ti 7.994494253176551 4.186476126240958 9.356826826415285
Ti 3.2305575053852253 9.385075901477173 4.873199166199207
Ti 4.112494858888423 2.951814778868347 7.287663302187168
Ti 7.263313331454963 8.26961018810507 6.265643879034077
Ti 9.629587592908063 6.298190961119446 8.880747629599025
Ti 9.854696604775043 8.420621852701622 7.30797759734135
Ti 7.024125451981703 10.499018051082809 4.750596314342678
Ti 9.27752455482746 9.779221578600458 5.293133253268567
Ti 5.516630744662496 8.77676679807975 3.615994689640713
Ti 3.7949751823199698 7.190886908458848 3.4160270148607546
Ti 3.5471533593579934 4.9773213709801825 5.2354892444779475
Ti 7.032805833369637 2.679347823707044 7.152668411150015
Ti 8.284631681779857 5.69129927220978 6.246933235138485
Ti 7.939000421716353 8.16800955476721 3.469029358826921
Ti 10.985862298842543 6.093287323601994 6.734856651741782
Ti 6.194658436209799 5.967200032940574 4.418731541473264
Ti 9.679697446614215 3.8173285412797426 7.288448011683893
Ti 10.06249567883373 7.31191464537292 4.681556539206563
Ti 6.290190873443519 6.49383089726561 1.9354630406391635
Ti 5.53355276762371 3.2472453560522743 4.934924551378131
Ti 4.4433249950701 4.718900070129001 2.7898524973295484
Ti 8.184407619918298 3.3454223657485884 4.765335324024642
Ti 8.678323433107039 5.5163192146083695 3.0348271076069895
Ti 10.33709645732768 4.6395409236586085 4.843430969779858
Ti 6.762014384108774 3.9572746650909068 2.6303304350880325
