42
Energy = -278.98097998 eV
Ti 10.60646223911465 5.116391429551322 4.287129021935144
Ti 10.478465832125343 3.959673976616986 6.687436055814356
Ti 10.454651958319086 7.541057423956477 3.834538625866677
Ti 11.38806679539019 6.621286014452741 6.311095729298573
Ti 9.600290381450979 2.8559071834550958 4.386425868619273
Ti 10.398860189541722 8.501999704428453 8.176211833051754
Ti 8.471566141944583 2.1192603268655588 6.368962969780524
Ti 8.406778946971878 4.399573035594268 2.8435819489643324
Ti 11.016992173203656 9.12999364324098 5.645930663007153
Ti 8.08655140325811 4.805554434570006 5.666185985513367
Ti 8.268980760235186 3.770516050258434 8.412552053177272
Ti 8.344944318857547 7.927488397535221 10.105085037389664
Ti 7.998924511097814 6.993348995757227 3.3299787657979563
Ti 9.620256748688243 5.994898774699107 8.441517329915905
Ti 8.904978629322832 10.29252826724925 9.26255926134899
Ti 6.874150240523041 2.797864863039759 4.339237891112839
Ti 9.19136771365466 10.57360447286453 6.684506851332341
Ti 8.736738306981735 9.446925958901069 4.293150190527735
Ti 6.2352066069450744 3.214416423224564 7.0524848860485365
Ti 8.885892228657367 7.5180720304026805 6.1176189593079675
Ti 7.817514303658914 5.479572112505457 10.321421141939238
Ti 6.196647945547329 5.385090337861927 3.702565669571722
Ti 6.5405100765811355 5.8856697143319625 7.86681699587609
Ti 7.126037518628041 11.485690036189023 8.019365208879849
Ti 5.788930884325467 7.150720102068882 10.416933076530519
Ti 6.679468658675619 10.464795573588525 5.6865652120819945
Ti 7.00508094944723 8.740357448772658 7.819322594709735
Ti 6.412913972992029 9.865167180357366 10.065806432424905
Ti 6.245226611403031 7.608568084490648 5.37078730860403
Ti 5.728069319860301 4.310026027639472 9.894201928661554
Ti 4.07904508411494 4.124986025580137 8.041945739235041
Ti 4.690932346390219 4.7008723162003285 5.628535877431275
Ti 4.1920201763341005 7.486458037960441 7.350509401688825
Ti 4.852543733314435 10.48370449904601 7.667053986987215
Ti 3.4869021651292633 6.0644937543924256 9.642059034227156
Ti 3.797666491240662 8.819761050237949 9.696038441985554
Ti 4.011998774702592 9.331875974167392 5.32152159827574
Ti 3.649370175585385 6.8272188261786635 4.7217462262510255
Ti 2.341443885142911 5.556021219621567 7.053184678688125
Ti 2.5205500514139496 9.764434992505114 7.529377171910356
Ti 1.7175492764857117 7.614319867692254 8.584698326572283
Ti 1.8127446897176784 7.933128628922579 6.0166472366322274
