49
Energy = -328.7414285 eV
Ti 1.7493006199393588 6.249859328287365 7.271132323950631
Ti 2.922665752298717 6.427011599970124 9.568050298095871
Ti 2.3092277763964297 3.975128886823003 8.67000988133356
Ti 2.212164542150492 4.162460530291129 5.9309872539752675
Ti 3.5633767931940996 8.344672746878574 2.999862096762589
Ti 3.490908091291382 8.249966350502742 7.5978240186065
Ti 4.513610434734995 4.551444924637097 10.651257852759915
Ti 3.8028595499260547 2.320478437888907 6.885703813263199
Ti 3.419168021689962 6.543498085675068 5.143525290326393
Ti 2.7134547789980146 9.199389213966418 5.305940582133369
Ti 4.549461969071528 2.5708576581656404 9.1624157899649
Ti 4.198825407562183 5.250177118919262 7.435616372229421
Ti 5.228142321185628 7.23295020530459 10.200909746732348
Ti 4.392413355924533 10.68324004275291 3.974631636153717
Ti 5.8055634437629635 6.552439857790793 3.0333558460031576
Ti 5.961167651673464 9.392515725427982 2.305860648520547
Ti 4.461865819744541 3.986464432444321 4.566681328370319
Ti 5.486445598314578 10.374767310320296 6.611713563115828
Ti 6.462326846120248 1.3647947045679913 7.803400770332411
Ti 5.187610895403572 8.404876680857091 4.9927549908917985
Ti 6.365657379450975 3.5931005717456137 6.567366076421939
Ti 6.484176271963166 5.141299604193997 8.936852930983397
Ti 5.556899858701466 1.5390082984583089 5.150336092396979
Ti 5.816098717154448 7.536292704029057 7.584068448367191
Ti 6.489276999484183 5.876854296954867 5.306407408108527
Ti 6.969036351870705 2.971819686022509 10.140364033433722
Ti 6.99523474983153 11.019022993916078 4.3932758158185
Ti 6.919801673009513 5.488260794897843 11.403825446926245
Ti 6.572520688484138 9.899244028915605 8.90005345318512
Ti 8.040607978273176 1.762433290396207 5.71089864479406
Ti 7.954085552843189 7.6384494417188264 1.6742225750906163
Ti 7.8064008994695335 8.205448364945681 4.271204587509683
Ti 6.952250953130178 3.5200919777409587 3.8801678861181674
Ti 8.814382952194084 3.0102442785116685 7.986094533410709
Ti 7.955228460362383 8.760959302313076 6.9413225779148044
Ti 7.803811337873577 7.565847119009601 9.67774956528747
Ti 8.349992173145749 5.884266225299896 7.21770745068746
Ti 8.64677023686083 5.822583400393048 3.551921179250532
Ti 8.482072010379724 10.057174748789052 2.439771224022226
Ti 8.293680796790495 11.26478039144274 6.888929478632661
Ti 9.079932089479264 5.015054535020958 9.70083748445831
Ti 9.230471358662616 3.982295355876889 5.385918973732389
Ti 9.643456759443438 10.334704639552035 4.652060128095546
Ti 9.201658511265927 9.85553224555717 8.992131522278564
Ti 10.132322283457096 8.108110862226814 3.024882897791907
Ti 10.697410372880551 4.883583524315489 7.36626902340977
Ti 10.181884645490388 7.411364957601185 8.292141688892173
Ti 10.113346975719159 7.0023789398288425 5.554725817827368
Ti 10.520702961115335 9.512531247024075 6.79659061980261
