47
Energy = -314.37657189 eV
Ti 9.626340557635968 10.582690015706266 9.01763016732002
Ti 9.052580881610202 8.778712505606883 10.736339226382631
Ti 6.98077582342126 9.919112309327865 9.09570040517318
Ti 11.101960250756289 8.242973873606143 8.905499797179889
Ti 8.024038905421506 6.5305242807569535 11.821191616786123
Ti 10.29176266817638 6.48737380318717 10.690740726169706
Ti 6.202724780594187 8.132137995120868 10.696552933500433
Ti 10.772178726755023 9.997042388160716 6.880037776876377
Ti 8.019078857000977 10.901215780226563 6.809955602860949
Ti 4.236337511807098 9.406185364950053 8.897777433532307
Ti 8.818769442671725 8.430833711333085 7.643736144613981
Ti 7.956760449218986 6.552919208407874 9.200275931626502
Ti 5.395305430446136 11.05755413096109 7.263725027662462
Ti 6.449856431673722 8.657761595953525 6.340854958036142
Ti 8.786038571752977 4.426944730293584 10.334413706589395
Ti 10.55156488696242 5.59436418346038 8.226875558784544
Ti 5.837419771765274 5.494427281568076 10.598731535810908
Ti 10.928717867929983 7.433460833405562 6.270330119704422
Ti 3.761303011242025 7.247393035782847 10.28710443241448
Ti 8.916447326887075 9.30304485853097 5.06076211945713
Ti 8.909163496579364 3.679936290189875 7.814075523792427
Ti 6.021481312836654 10.690877552742341 4.812127540725614
Ti 3.7972145030466242 9.400796912078846 6.224321504507959
Ti 2.670815271968202 7.427623062514429 7.958854575337296
Ti 7.922410616890849 6.017827575457954 6.394853844035213
Ti 3.5865304575215573 5.076809063336176 8.967067912501879
Ti 8.986164274678549 7.103290094777563 4.170425408735378
Ti 5.395262855421789 6.92684702224231 8.165412753802768
Ti 7.234216862483628 9.149928171355606 2.8366672019447274
Ti 10.083549982173901 4.879287117406949 5.545915609969132
Ti 4.559798487093475 9.15626220233766 3.435598610559605
Ti 6.433779808218453 4.101985200075714 8.56667026748092
Ti 6.114396218792388 6.982756648132092 4.051182186216594
Ti 3.9335494528682733 6.875937756117278 5.605617970741033
Ti 4.051421506172319 2.7698559875326096 7.962548505877299
Ti 5.603026968519314 4.51426486599292 6.188262976803509
Ti 2.8443953716413914 4.693905205846731 6.544150351256458
Ti 7.801276241361524 6.63808162382107 1.8868294781542077
Ti 5.536308780044768 7.8172221582386605 1.4644171012130491
Ti 7.574533786805516 4.742619442385576 3.8893273131378208
Ti 8.030764595417551 3.0982440904185498 5.645708746904015
Ti 3.606340072165048 6.791748032059276 2.8582859079943685
Ti 6.121888442030488 1.8306483372477966 6.855737708273272
Ti 4.26926698794347 4.629270338894444 4.0320138113876185
Ti 3.8653990822288433 2.4010673264190765 5.526270150181098
Ti 5.662333548153633 5.241388968399556 1.9167866241651446
Ti 6.010338015580393 2.5204362199998154 4.238224346188561
