48
Energy = -321.73629409 eV
Ti 11.583312160947989 8.615495420350388 8.303311466029733
Ti 11.2540056355554 8.418951076350085 5.684922926763632
Ti 11.23554112895624 5.711701334649338 4.69931657748141
Ti 11.288516637697699 6.204658175420513 7.4020522054035895
Ti 9.595616719789755 9.721705797921857 9.472066493783595
Ti 10.378622943547889 10.562590167282883 7.182563741601077
Ti 9.785687938203179 7.068573530652986 9.716125346820792
Ti 10.585557568080413 3.8285981877240403 6.492207170111501
Ti 9.621592191646059 3.5305513707026215 4.297923832383757
Ti 9.141128210070397 8.181333691760459 7.284634163738106
Ti 9.17168805159044 7.858733740776531 3.9618047563692373
Ti 9.285283057547225 5.4121031701611235 2.6559489566206924
Ti 9.1621334232419 4.745087672537917 8.530231355545713
Ti 7.415969505237691 8.404819082727903 9.91245724651886
Ti 8.862675963281552 10.041190018838956 5.239075267897879
Ti 8.890165936012638 5.737398101545942 5.78170049584149
Ti 7.697566296484372 10.419959474533808 7.593878052366704
Ti 6.280272367316281 4.105832811729715 8.570769608161307
Ti 7.888452756376323 3.2736268646688913 6.488058385493138
Ti 6.97838573517108 6.523537820174645 7.864070808767434
Ti 7.484157179188503 5.812218117046332 10.361566295012503
Ti 7.071584804671199 3.5708624151822774 3.955884531397518
Ti 6.789778810511422 8.378206386489559 5.85205852624023
Ti 6.969348938187968 6.259511867081607 3.9137742221234073
Ti 7.78909539247519 7.258282731485992 1.586514750648064
Ti 4.038534290388506 3.9577650460757567 10.022931825330328
Ti 5.677104724769385 5.061454670382704 5.993601481644206
Ti 5.231365615240864 2.551189741708578 5.560920418944998
Ti 5.449887504135193 9.14797703206179 8.391798075531113
Ti 6.791809529196239 4.838613955921991 1.6203023679433832
Ti 4.30460958492413 2.345898184589173 7.930140400614458
Ti 4.600100856645601 7.380036489110458 4.530024492111704
Ti 5.0273138616995805 6.507537785869595 9.660869330375823
Ti 4.739047064646028 9.912629201843353 5.799561289147914
Ti 4.054480515070009 7.604590371925057 7.093492096919593
Ti 3.681981178713313 4.988496805047846 7.619060025398314
Ti 6.502569776196979 8.83009628052662 3.216712681506241
Ti 4.599678079288736 4.524686402356437 3.6965650651851725
Ti 5.192472957258609 6.819401508915147 1.9777220573993561
Ti 2.8477443202449613 9.850529113923102 7.666927405521769
Ti 1.9816528437436203 3.2107168456317305 8.470311152708403
Ti 2.7055468730321555 3.301964059575126 5.809177293283726
Ti 2.05344137398779 5.77790610249982 9.500629488269652
Ti 2.343419731401886 6.057800244536377 5.147562984295913
Ti 3.0830356711361553 8.255572138079115 9.56117383703919
Ti 2.402612612931213 8.77416101557255 5.299583360582388
Ti 1.3812382552549796 7.560412533119621 7.5170548271030215
Ti 1.0281433228842614 5.018965337510835 7.0348907546006
