45
Energy = -299.95697808 eV
Ti 8.653909784749786 7.666224058533285 2.881127710108146
Ti 9.053286155430706 5.076838678656141 3.010855800903247
Ti 6.096098793163185 8.137717168966525 2.5811827144874755
Ti 6.585907853998815 5.729122419211475 2.6628348866003377
Ti 10.177960070495212 6.383588623972044 4.829839482865297
Ti 10.183064088239997 3.6653552033215635 5.199194462291447
Ti 7.565790449826471 4.023699962791687 4.738785519421613
Ti 10.943236872136346 3.154742004956992 7.653222089740097
Ti 9.365425403808572 8.812755957558933 5.557928120603413
Ti 11.508401017899352 5.378444619959288 6.740169190855828
Ti 7.187589721397845 7.038952864508216 4.9995777607467655
Ti 8.986641853343622 6.960782900332916 7.354241375650631
Ti 4.806740258916686 9.53025681923453 4.425706973617231
Ti 8.503669843064552 2.158678242281349 6.8790179817084915
Ti 5.862016584052725 5.483607865598269 7.049802146102852
Ti 5.117670013503757 4.428055916319729 4.462366204003779
Ti 4.391927682148671 6.844588297007853 4.0635633143259025
Ti 8.569499773470556 11.26585699490232 6.190745625851432
Ti 7.366393050105602 9.855807261812897 4.217196154203144
Ti 8.638169146448964 4.581236283977926 7.342074957300452
Ti 5.812613903288525 2.846444474010094 6.413140863469538
Ti 9.214753824193604 2.9535464421956212 9.389713988399416
Ti 5.871250819270293 11.513107594052459 6.104596572426621
Ti 3.2910555451066976 5.554182339956711 6.086951948080313
Ti 4.471953180132748 8.025209676103264 6.86509262838766
Ti 6.684009350946702 7.283562269217755 8.75199772786457
Ti 2.402499122201176 8.43471399001164 5.341045883524162
Ti 6.644219235725049 3.2490688277647966 8.82954827305765
Ti 9.20277825674854 9.641123898943583 8.326918250639162
Ti 5.325998003950276 5.313429043018896 10.249305182588529
Ti 11.227372437713768 7.812845915126305 7.824958591430626
Ti 6.979056492886794 9.268358496948373 6.8505856219403265
Ti 3.379306135308056 10.544820963680198 6.3875898427301046
Ti 1.488307514313057 6.956288940491085 7.227601432707383
Ti 10.683702576650138 5.332135896104037 9.201382512924692
Ti 4.063844085640773 3.7675552229081783 8.11713795750352
Ti 7.2673777041756304 11.541415665401125 8.316268646562385
Ti 9.165187321980529 7.6579115309615915 10.005205727403277
Ti 7.98702657224699 5.235469620841275 10.031829557548017
Ti 3.5604869445525287 6.2301983187942405 8.656054873678292
Ti 6.812208853709004 7.266624429303574 11.307044228270165
Ti 2.4448852933236935 9.042837314153264 8.194015725877062
Ti 4.584298234372759 8.233578965382655 10.040049000171093
Ti 4.8678043318372595 10.483882431947082 8.552430453958914
Ti 6.977286355034343 9.607619705669906 10.069373270463775
