40
Energy = -265.806228 eV
Ti 4.317046449263379 4.2346244497914425 8.710976739035704
Ti 6.360715798314179 6.6874912886308655 10.376371309770501
Ti 7.605322297110755 4.300543110874307 9.62473061368657
Ti 3.377792150205121 2.630555702591903 7.022494177647149
Ti 3.902494879549089 7.24023884945808 8.223834440938102
Ti 8.938221597944214 6.240861028201633 11.14317138526342
Ti 6.191187909792202 3.085998221157617 6.940484525869092
Ti 4.515078897828966 2.353671976001545 4.627928612891206
Ti 2.173426863796158 5.161269148660886 7.139957597271244
Ti 6.06160041673042 5.706801691732983 7.899053636081148
Ti 2.2544697527450452 3.570667462497802 4.92161034935852
Ti 6.357238317525164 8.801774322502743 8.688451177609915
Ti 9.01239707657701 4.137526217855305 7.363353627936017
Ti 1.8499570834371397 7.773127857296718 6.691270232762721
Ti 8.252140727708964 8.574294991457698 10.453645067351735
Ti 10.247933050338665 4.936775466317341 9.455379889450255
Ti 10.61260565653176 7.65660737538568 9.392643345165641
Ti 4.534040531446577 4.640131257864313 5.822036063437764
Ti 8.370661194872856 6.67205597183637 8.60973085882579
Ti 6.549714265834224 3.8503733224055097 3.9826158976990955
Ti 4.022670622821258 7.09770751310941 5.394087402718042
Ti 7.230191084614482 5.438261322801359 5.61234696099647
Ti 3.9993669167759984 9.423261376290332 6.585734998351225
Ti 1.7910043755559455 6.12356044962414 4.442409854992578
Ti 3.9365734619470594 4.684366592903046 3.1554835504164953
Ti 11.091423345409833 5.948832252882051 7.139360523427862
Ti 2.3293173510753333 8.837502127395112 4.447183201821531
Ti 6.284553605275923 7.932288953455399 6.227854543326141
Ti 8.973359577218243 9.642714522177656 8.11670866366275
Ti 9.840085129163763 4.94622231560127 4.9970570764751026
Ti 8.919115150203256 7.441361774888936 6.185641865167527
Ti 7.202381495457442 10.222346254884473 6.045652610293925
Ti 11.163325210393936 8.613779577830705 7.008828736250935
Ti 3.560960944466287 7.360996267636846 2.782880534660027
Ti 5.0847116436611195 9.179330876467686 4.10312937156148
Ti 8.66609364866695 6.154424954088366 3.4087246734719607
Ti 5.999693369779631 6.599702910052252 3.459055327025267
Ti 10.72563124259985 7.558293804707245 4.502501700315424
Ti 9.66789384424783 9.894695172680754 5.464215276142838
Ti 8.031573137941036 8.648931342829938 3.8353736556978966
