47
Energy = -313.89640403 eV
Ti 11.15302524688176 7.548719108947295 6.7802849039882345
Ti 9.780477128155086 9.023895444228021 4.78554890565252
Ti 9.586014185432282 9.677492362816606 7.196581157223931
Ti 10.296761292363366 6.424720789505128 4.477469141606587
Ti 11.353219375781338 5.7504025267731915 8.769213902316237
Ti 9.75024525879305 7.780282819542663 9.146068596891183
Ti 10.680987433454645 4.823417867697545 6.517084595531413
Ti 7.24378597180394 9.721939211342784 5.813076033367487
Ti 8.460508247427558 7.262330489842016 6.344927866581416
Ti 6.728657656781527 9.82269081795402 3.16905494928664
Ti 8.015868816256638 7.375034503116677 3.6612782797100136
Ti 9.789137333405437 5.6382918915450455 10.707546321546083
Ti 8.200179663518513 4.788622532151682 5.007816823207208
Ti 7.39300989474519 8.921181896202416 8.413549884568281
Ti 8.454517583033821 5.15867151707919 8.320261047092497
Ti 10.18724446846515 3.368028850017013 9.115958235376095
Ti 4.794184693207282 10.592098167387505 4.85072611517131
Ti 6.793724671590689 5.144376059637475 2.4776589712737143
Ti 7.274321992012154 6.708796135782769 10.236105668338295
Ti 6.262383675044791 7.828638206385533 1.7249337499714277
Ti 5.343142061504598 7.897695861707148 4.483095519469302
Ti 9.113687907321713 2.7630906512208564 6.610379190330996
Ti 5.668889827131097 11.166876784153866 7.996141817698864
Ti 3.0238225239419085 11.00387622139252 6.91404925920267
Ti 4.389392619996495 6.324148151208102 2.12939992176639
Ti 6.777898539324677 2.8478476018001664 3.8539857082774356
Ti 5.645899865792614 9.281513064807287 10.002692772111194
Ti 4.06788385311799 9.0678771823034 2.6017031317230424
Ti 4.71348882575603 8.963898791510232 7.16465229731289
Ti 5.384789507961302 5.329702482776532 4.813599044677708
Ti 8.046619836606855 3.983522674216078 10.785155196993914
Ti 3.428160605769293 10.104534889094904 9.285568389745043
Ti 2.6976264533621226 9.067478852736294 5.138847895943547
Ti 6.868245907136365 1.4925227178608813 6.226386968164342
Ti 5.987500380652229 6.538395873473072 7.653513301417839
Ti 7.537524950587653 2.442538270409139 8.694769097087057
Ti 6.1007124116879705 3.940214346976826 6.816722462389073
Ti 4.326474964597833 3.800978294978548 3.043100993239665
Ti 2.9096997450861424 6.324732162593849 4.022891552305861
Ti 3.3734512094230333 6.611041513724191 6.5016360497950165
Ti 2.026724110789271 8.646501590489052 7.684604892041804
Ti 4.002950451205446 7.328778859952406 9.266233137318276
Ti 4.693638210815764 2.0860364727229124 5.061968156147398
Ti 5.8029425353065225 4.454787398011322 9.4824340278054
Ti 3.1514925945668835 3.847371568538158 5.829033346909494
Ti 3.6335982695585707 4.714482332483935 8.185133591311837
Ti 4.6736907160941294 2.1981276641540615 7.8253606033627126
