44
Energy = -293.74679953 eV
Ti 4.361921584401023 1.440179789380191 6.679629898025184
Ti 2.855307294233276 3.7123666362015784 6.301362978974271
Ti 4.343186220927781 4.740290017546299 10.616633148331386
Ti 3.93715275094257 2.09118355604985 4.337703672661592
Ti 2.891919421383659 5.362542833737171 8.547216087934752
Ti 4.183856341932194 2.940805551992627 8.698376272850355
Ti 3.943954995501829 7.31824195681638 10.079557155265281
Ti 6.3009307914806305 6.299727392827099 10.783526217712494
Ti 3.0550850768075066 7.763748078496193 7.501604168028913
Ti 6.351920706095356 1.3499294611178947 5.066894427805484
Ti 3.8457796653383105 7.926946483695232 3.9293990459059556
Ti 6.658673770603076 3.614389255140906 10.030405707318343
Ti 6.733234217718691 2.1661958714435565 7.6625994519252245
Ti 3.5806158430212496 4.472176440560756 3.8140708201266134
Ti 5.439849638295297 3.773007914184927 5.75690137815983
Ti 5.589110219160229 5.1262899833409445 8.270367637457161
Ti 5.825326852638836 7.757106564017205 7.964839035786196
Ti 6.154684329642803 3.228310347625279 3.259729923745905
Ti 6.153246032964852 8.875507825605938 10.340850537641648
Ti 4.1744041865224455 9.638145856804 8.814485604358172
Ti 8.451621842009553 4.069141244724796 7.985000568745443
Ti 4.302975073698055 6.245267013979666 5.833321769334274
Ti 8.203757935745607 3.1944436950506803 5.501547634466337
Ti 7.216006277276338 5.818913647269078 6.184963526960711
Ti 5.6002855303284464 5.8067615798553245 3.292390318940234
Ti 4.8119635406289 9.332584582850341 6.146446091786771
Ti 7.976505048821165 6.423717543352846 8.900506433408893
Ti 6.650047271389132 10.41396971092922 8.238216033750472
Ti 6.489831939323866 7.906119989238442 4.454250593477558
Ti 8.3265296631022 5.126981575543514 3.7345463839005264
Ti 5.311076645956625 10.147984767171982 3.6376019184499
Ti 5.5588306791328 8.214346504996227 1.95271685828787
Ti 9.675055041993618 5.728703580886115 6.10377419496846
Ti 8.76935377559681 9.119405662315222 9.406124973238608
Ti 8.590347720557808 8.409873416791124 6.829989889073091
Ti 7.7834688690194085 7.064153756961772 2.1076400403126865
Ti 10.407103659246037 7.087137793276582 8.398100874721646
Ti 7.332597261606498 10.508176844891565 5.4003180896219725
Ti 8.975585317635288 11.038519847152461 7.461830020211174
Ti 9.328286505493821 7.68238711236032 4.143968188373324
Ti 7.793007855556155 9.570699963217379 2.854875175884147
Ti 11.180855232304362 7.840640574718122 5.995059714782214
Ti 10.907915004118413 9.585243820654693 7.759545803077012
Ti 9.98688452091018 10.077786106290239 5.231163885273817
