48
Energy = -321.78931345 eV
Ti 2.432237564682118 6.1455209762012 2.979739471406491
Ti 1.9859595358415714 6.051229103867933 5.683399334931418
Ti 3.7751908648930375 7.9518620120461065 4.327232576547982
Ti 2.047383945125894 3.838451038265056 4.02881105844811
Ti 5.178529834565691 6.467044409123688 2.424960648885002
Ti 3.961204038447974 4.07790118846184 2.2713553413787295
Ti 6.4358015505879385 9.073607891745743 3.1999077876187942
Ti 4.9952915992389775 10.022242110872659 5.438311294308832
Ti 4.235415637375307 5.2568283221049 4.600395198825117
Ti 2.9176334352942987 8.556002796750441 7.039921933009725
Ti 7.328065092082799 11.111280754524145 4.424041360121246
Ti 2.6554038497907997 3.302048538560043 6.452056778130969
Ti 8.14596693160383 6.904976788329566 2.755294860767428
Ti 6.40868556012194 6.898354969231928 4.6708841379128225
Ti 4.3647227624692375 2.436834793660808 4.339412740832421
Ti 6.760265786511956 11.559128864830264 6.8373470270252925
Ti 6.404626458549753 4.234786344450072 3.3952730889043563
Ti 9.130362835845778 9.237837685322935 3.7161595483767904
Ti 5.555042856608541 9.59355910732401 8.19001342597423
Ti 3.1394356925134925 5.599597979285061 8.132587089299689
Ti 7.363705683810667 9.09750175564861 6.1499607119750594
Ti 4.157444687319714 7.610771687855018 9.610126086784415
Ti 4.9159775133383885 7.284984471630669 6.841966939804097
Ti 5.086694595411984 4.172114193171529 6.688297950157154
Ti 9.361512971906905 10.796552262553687 6.076880684515194
Ti 4.965795300532399 1.631263462842944 6.799670722272824
Ti 8.124469231790375 10.168222655481369 8.657685537995736
Ti 5.523924099375899 6.378805421465952 11.723571343283655
Ti 5.873441331368944 5.531166286153869 9.071765574737311
Ti 7.4976056915035905 5.19167352457916 6.394281263713941
Ti 4.436007390091679 3.207256784886228 9.021040142320992
Ti 7.573943791035656 7.484609273276417 8.188322788538814
Ti 9.182829195508543 7.040916652607187 5.555963918932836
Ti 6.615701576478674 8.45509362670729 10.575157093225833
Ti 10.661913034652732 7.015078232532482 3.3805598680340534
Ti 6.934191790904173 2.6995591498260727 5.375521832797062
Ti 3.789438511376312 5.077929634822926 10.71230824045478
Ti 9.270538097659168 4.778675328330518 4.131447579574655
Ti 10.152501017222173 9.03334795368294 7.837868503765888
Ti 7.004425838993967 3.010110146260188 8.065277377256091
Ti 11.305376430442015 8.42376926618118 5.574651062138938
Ti 7.85910768393065 6.149670654000941 11.096939736918124
Ti 9.31064767532969 7.887327077408399 10.01187565603828
Ti 8.753873820833347 5.123168547791739 8.892628596609832
Ti 6.274358742950525 3.9190886434677092 10.98156457939847
Ti 9.857113107260705 4.2028700789877345 6.620569481444458
Ti 10.773587021703896 6.59442432782234 7.727822919724894
Ti 11.526641305837886 5.72494619578679 5.339162075602108
