47
Energy = -311.59337045 eV
Ti 7.247948433448884 3.397542251366442 3.7649342377127524
Ti 9.820254636248261 6.648867576667392 2.0879749319602228
Ti 7.862779432826646 5.21748580919091 2.074094819947767
Ti 9.837552585883829 4.520010645571605 3.8166793082387533
Ti 11.137457274859756 6.864773018695191 4.201137296038981
Ti 8.852731313598097 3.1514891029149084 6.071807529061773
Ti 10.29398130689372 5.802278415542126 6.486683230467246
Ti 4.582363243417398 3.8868832294555267 4.788006825797659
Ti 7.365742073805582 7.915454404964872 2.2285555446469796
Ti 6.148975863887563 2.4907994998406036 6.287057768753749
Ti 9.65902688791796 8.933096422703027 3.3121434868893758
Ti 9.986415935737377 3.6241081004922746 8.270697654637868
Ti 5.702331382954417 5.767492068463915 3.213491135425364
Ti 6.987016514738864 5.000110731647656 5.686404002798387
Ti 8.417229588610823 6.766460843347245 4.372312069349661
Ti 10.29349330505096 8.63230971704599 5.860719917050901
Ti 5.037603422414088 8.546829232656451 3.5334434057393405
Ti 7.444793004515752 2.934147566537062 8.462450656539493
Ti 10.076648976585615 8.01168749761977 8.452042046783045
Ti 3.510174760510334 2.5274743576310605 6.9562584493527515
Ti 8.064333222512692 5.566288262020045 8.1331065737642
Ti 10.518282040477567 5.7454538969776205 9.335877191591212
Ti 7.54748112664409 9.51624523578054 4.782844590156097
Ti 8.578468561357704 4.330277755921066 10.411256111788111
Ti 6.087262838396546 10.636576104452955 2.7296552374882426
Ti 4.908401159969993 4.794269604328104 7.416921870841515
Ti 8.567318516300316 10.463619472381263 7.231472874768205
Ti 5.7793430047389 7.365074655160161 5.611290164898945
Ti 3.441911865253756 6.463989254148847 4.975512532731571
Ti 3.4120704533515207 10.40831895319455 3.5357314035839624
Ti 4.851368053669027 2.606899486230038 9.041753774154596
Ti 7.8820745915379025 7.985673473961937 6.9700769469695985
Ti 2.3121244101083374 4.545528363447174 6.339954853709863
Ti 8.449896347039061 6.97380961407502 10.40545020206981
Ti 5.595033829466939 7.27460106435552 8.516713996983578
Ti 5.92770236743666 4.944435943452324 9.970642561236636
Ti 5.315974939697523 10.824148648551855 5.150326964283445
Ti 7.644467907488657 9.009412285346912 9.419138600499393
Ti 2.8228977004880673 4.278724825524903 8.866739247739206
Ti 3.6895487856451132 8.93708852623723 5.987783460320792
Ti 2.8114145093577974 6.756957340142867 7.62048118483219
Ti 5.908707731792971 9.764081139689281 7.543653781252703
Ti 5.688228346662947 7.678677413512766 11.179240308197889
Ti 3.5925202345419605 6.603441199416684 10.224333225533332
Ti 3.6615422410137386 9.049708315352024 9.128252106305093
Ti 5.502558706179 10.237423243182555 10.403289720391621
Ti 3.6087596844655514 9.08097486951163 11.659038671351857
