42
Energy = -279.82212088 eV
Ti 9.242828658206793 3.7875214213538633 8.160393546956401
Ti 8.783782273514028 3.2331163717648947 5.6464857965936
Ti 6.924804663016235 2.5425473008090607 7.656451791319645
Ti 9.620774223639739 5.802984534030568 6.332641856089326
Ti 7.298634660881105 3.927037106600925 9.991877152106657
Ti 9.478378167959313 5.597838504472776 3.2842605900963284
Ti 11.087508552523298 7.312996978554099 4.786704942028634
Ti 8.846968072403252 6.308236641358841 9.053980935107445
Ti 7.220190240348666 5.0386496759607935 7.0101442896324
Ti 7.272386400533001 5.209111983107895 4.328583401029906
Ti 7.385207449292587 6.230073538412808 11.43535857952776
Ti 9.984089138110717 8.132705366839685 2.5560823644218424
Ti 9.912945874281432 8.568437066866906 6.895353147637818
Ti 4.754875949136456 4.199066568247123 6.1957868692000515
Ti 6.399943321508757 2.568526319956203 5.05193425347545
Ti 5.139593647353747 4.873426626747419 11.271517742463542
Ti 4.745085907885812 3.678026173742815 9.012818224035327
Ti 8.45276744438547 7.811039075403181 4.751008145817388
Ti 7.6157203320870765 3.1145118800913845 2.917864124435751
Ti 7.470694466793972 8.339852993573087 10.03913179234011
Ti 10.329148969296119 9.774701144019465 4.590055919397131
Ti 6.865433439308988 5.118867361187095 1.7053914247419018
Ti 6.102415023365857 6.163112335889699 9.143554727968286
Ti 2.6979541790195 4.612538844340209 7.573598268962787
Ti 7.359131316380628 7.628567436783486 2.230888081588224
Ti 5.079578858157151 4.024803050155647 3.377076942724828
Ti 8.249054482651859 10.004885807484248 3.146445540336158
Ti 7.357507580550141 7.915445541856806 7.351419158733419
Ti 5.578434459249278 6.9058724386240655 5.4004716235588255
Ti 7.946347384480056 10.20417440943678 5.819509031252587
Ti 5.003493560173308 7.5543832230530015 11.083004496797546
Ti 5.0393009351598845 6.659174229979338 2.908169668823483
Ti 6.000128495059236 9.226721435432138 3.9165350725975876
Ti 3.075990483864085 5.772139853276368 9.877148370813794
Ti 2.9574386508077417 5.86545039650086 5.294710924408525
Ti 4.179881446377525 7.014203241840711 7.533221051204286
Ti 5.310171236115411 9.332408043028249 9.027088373938648
Ti 5.22928335819505 9.565675218244042 6.361037244439896
Ti 3.218560127155686 8.280240585041513 5.279311961855834
Ti 2.914677001616025 8.299873933688776 9.665850722717105
Ti 1.6899282186119524 7.107087988349307 7.58724750000904
Ti 2.9986791799471657 9.513685183298007 7.569602178219488
