44
Energy = -293.57017115 eV
Ti 11.738560324115983 5.455180046662882 8.5195124450141
Ti 11.652334862590699 8.028089461709694 8.233371752699206
Ti 11.993595684172004 6.471805011851021 6.195959508660464
Ti 10.031316001859231 6.826438973296344 10.027985379081398
Ti 10.522474825855756 4.234625238773516 6.437143010390059
Ti 10.481833428366041 8.749851428031036 5.917311327787356
Ti 9.623265435515245 4.168405173436617 9.132970794963905
Ti 9.298239302471366 9.328223083470604 8.244691953924498
Ti 9.54348788954454 6.591307887143891 7.4898062311555345
Ti 9.947915833771498 6.482198424942454 4.645174950642838
Ti 7.941086955872021 5.62584388524143 10.612158842512454
Ti 8.388987611374297 2.8491586175109256 6.957065421537527
Ti 8.945221645715508 3.709510517614518 4.1039171497390186
Ti 8.491154050993796 10.518837556606998 5.886279205048379
Ti 7.281701105441374 7.955205803013404 9.302562931608604
Ti 6.9495755401769514 3.338606120895642 9.57321483389817
Ti 8.330339181290366 8.669860199376334 3.792044999584254
Ti 7.590256658959255 5.2069805748506335 5.525322184833471
Ti 7.1504700219740505 5.266967502293182 8.067260012072381
Ti 5.453765499865112 6.133326524839335 9.978561759276294
Ti 7.783673130774566 8.097796997465188 6.344024074752926
Ti 8.188490249658212 6.143789119843158 2.902422411340306
Ti 5.404554450271886 7.2327490218358355 7.366123784319535
Ti 5.850878212368982 7.082246151943374 4.545273911656803
Ti 5.826558444380892 2.807678209851559 7.202560012887596
Ti 6.498306035988166 10.105898631077398 7.669091631533427
Ti 6.220506828946198 9.846415526478689 4.8880287326201515
Ti 6.001080410016681 7.670951913918329 2.299332593157572
Ti 4.511848452332925 4.518826527282379 8.460590091859716
Ti 4.748915929435572 4.590768144088061 5.559592437136648
Ti 6.308287429923117 4.659675896508996 3.1887039503220738
Ti 4.5086498051766615 8.74630561301743 9.16938309093339
Ti 6.668572506921353 2.7023184897640933 4.885960239879173
Ti 4.127086192789871 9.65847295518139 6.425760847552086
Ti 3.624223166164162 8.65610138585364 3.913325810575835
Ti 3.7022231909383083 6.051024795339998 3.2766454975293744
Ti 3.157395374045048 6.746055370165946 5.94318346667111
Ti 2.2936210714446355 4.299968951298729 7.055058637416964
Ti 2.700788312097642 6.311208277797378 8.780815572623538
Ti 1.9460963537897387 4.705710350515729 4.7780149075719365
Ti 2.270102312584018 8.543276769758979 7.959596626998173
Ti 1.6462046231011387 9.007923598602472 5.643125141098461
Ti 1.3753062704887213 7.113734608693478 3.9772790484301854
Ti 0.7702135089466529 6.57984478466842 6.612956909213818
