41
Energy = -270.79651665 eV
Ti 7.83451934199517 2.7323812877832516 7.353958469222662
Ti 9.382319225968978 3.2603589394707875 9.529746916489497
Ti 8.293004076477265 4.021116148857998 5.135372947898386
Ti 10.203676422559095 3.4384705929234176 6.967601636044095
Ti 5.670124428079846 3.3675178494482623 6.003820295774112
Ti 6.326341317348363 3.8867552021581497 8.837007731784382
Ti 8.659520327718317 5.2111799069937526 8.296942228623815
Ti 6.6657636322095275 5.67557381928268 6.5270445389969565
Ti 11.318902863618135 5.132567651994801 8.616848624918255
Ti 3.749025858747946 4.984735166213358 5.319064954237445
Ti 7.775296483049982 5.77258922617921 11.075625649492377
Ti 8.246263237812975 6.6069686238238186 4.3194083143832875
Ti 10.133467067560304 5.406595003162521 11.007893196977998
Ti 4.07073579135345 5.089026790638132 7.758297915341268
Ti 5.965813269840142 5.084412496771642 3.9083851283577045
Ti 10.186949959138925 5.9641734910252415 6.0337773548174605
Ti 11.423522053408238 7.757925983556663 7.597374472627906
Ti 9.159340930007192 7.4907153164832545 9.31557544493774
Ti 9.998686635206873 8.821230334677411 5.332200818463555
Ti 3.684578087533273 6.918980248608782 3.781958087320864
Ti 11.687908495477503 7.158571553795416 10.339740747584301
Ti 10.326684307786644 10.057760932307279 7.628253709248364
Ti 5.009382731463817 7.648254360361037 6.026384740869352
Ti 6.135677771684981 7.611188070712417 3.3214937368864703
Ti 8.207432620105262 10.707056411522988 6.688931073127312
Ti 6.174204042089001 6.409042079730939 9.064768496527217
Ti 2.291658545328644 9.06491645745421 4.884211672076306
Ti 8.35778172155301 7.949160700098651 6.9217903308256306
Ti 6.2548239309937115 9.018742410462236 8.1987947739222
Ti 10.970465364631542 9.403035167981862 9.852578290593334
Ti 9.415048620432678 8.096829057770606 11.659111968133876
Ti 2.4793439865193223 7.014656750101398 6.448047473057446
Ti 7.164048020077299 9.280747187839522 4.9223334753322785
Ti 3.92799578089918 7.534451067189357 8.650466679933205
Ti 6.0847988675258815 11.844206335922738 4.592380865636702
Ti 4.611862370524861 9.641999273535834 4.118700521187761
Ti 3.373075411269737 9.552772088993722 7.180057530067221
Ti 8.442556733224702 10.113852490112574 9.621489871360936
Ti 6.87608613511939 8.263502291188063 10.69879515423649
Ti 5.50025056969527 10.905521916915589 6.672431563999696
Ti 3.4184743779528053 11.557870729939852 5.248744012674098
