49
Energy = -325.88648187 eV
Ti 3.0172073157452024 5.86728811420412 9.080267196952876
Ti 4.19724541118964 3.6260870365987827 8.772273435543312
Ti 4.577121033404603 5.3781166251468076 11.140640388151297
Ti 2.7172325661220653 7.60514263599338 7.224159462419415
Ti 2.771636593681932 4.83052194148039 6.731234436965455
Ti 4.631149687284965 2.9995401185915163 6.011684695552934
Ti 3.5882878867842094 3.922180831511957 3.408911453310331
Ti 3.4194814911835074 6.561194813948306 4.73533119419147
Ti 6.460600664700195 3.1334691158514913 10.24526494587321
Ti 4.379444732436844 7.9575529563616145 9.685304045118597
Ti 3.6473562136430338 9.091194780690168 5.41364468961844
Ti 6.358040557790295 6.005723893453846 9.51419669218443
Ti 7.138191844213441 5.17420358448847 11.912024845612514
Ti 6.9212392825007605 4.204595493732387 7.654680046294717
Ti 3.672491735038469 10.425420850492126 7.706436285519556
Ti 6.175794690212517 7.517954619481669 11.697750759349095
Ti 4.978874003408063 6.10779452124728 7.03913230097802
Ti 8.45614393261693 2.369291485410594 8.351947676324752
Ti 5.696372272260678 4.919201785874874 4.54332761998462
Ti 5.738513038132664 2.4497860525579114 3.547308609544412
Ti 7.250042852980609 2.4796846349648174 5.6844540179314675
Ti 5.974450331727677 1.7590008813449958 7.9816688283117205
Ti 4.293062983987071 6.195159845965245 2.3413396298658515
Ti 5.227990608276987 10.61738487249961 9.37301382742004
Ti 7.205902707832574 9.080983374906415 9.902034845235345
Ti 6.081026176254594 7.649360172181044 4.8919999761946595
Ti 5.804763093830726 4.288586354343701 1.9030806968499296
Ti 9.484242634676427 3.4286884739188053 5.974904741533801
Ti 8.731930175911085 4.313785919971731 10.163873110952268
Ti 7.931559848732274 7.361830479843019 7.954356147766911
Ti 4.850789783206224 8.744344812656877 3.016242374241628
Ti 8.705064600553666 6.9339115670109335 10.65554845603044
Ti 7.66117898625979 10.760822469481042 7.810039099567787
Ti 8.084778410663997 5.7867172709222805 5.791735503675296
Ti 6.840903971505025 6.714425788117654 2.3508891647290358
Ti 9.629970215252957 5.29148611025028 7.946996031440384
Ti 8.194341803734556 4.292110279621117 3.540383683346267
Ti 5.82047122783587 10.372844399764611 5.296137187221344
Ti 5.624587536003741 8.785765321710276 7.487694953924239
Ti 8.276106170385232 9.149804870175311 5.82905596109583
Ti 9.61790902340302 9.103824163185411 8.610160630965765
Ti 10.48400404598623 5.416016501351808 4.837902594515018
Ti 7.484454331365789 9.424016641260991 3.288000320399115
Ti 8.97304844326769 7.233263496525028 3.7540590142929755
Ti 10.289382530150808 7.6356110987613235 6.318471267982678
Ti 8.485793858738553 11.574085860746566 4.92362915607285
Ti 10.384361107424144 10.688019092567538 6.499094615071278
Ti 10.268106194338213 9.620434360095219 4.154011236000041
Ti 10.841861245953009 12.171863485452432 4.311689854051565
