44
Energy = -293.99551506 eV
Ti 11.940949203187264 6.513953316786848 6.094179914557561
Ti 11.220029127616518 5.019854444132493 4.063873498862673
Ti 10.504794773872748 7.676006256530947 4.091863350648943
Ti 11.189255502813872 4.052040715730149 6.431435975455529
Ti 10.312002511468256 8.362058482489715 6.838617762751646
Ti 10.406119979846235 5.9225244774025745 8.246832242866736
Ti 8.847682542070508 9.49458346121862 5.066796663708062
Ti 8.902836640155252 5.4619247450244055 2.893912337581064
Ti 9.351544228166016 5.939131810892765 5.762011409851911
Ti 7.956161732282078 8.006866650259097 2.9984270137878717
Ti 9.186444974386 3.3730829882789513 4.7206437167381
Ti 8.147810484415224 7.528587288717866 8.12157348265704
Ti 8.923141516274663 3.5295685110697237 7.576371874944537
Ti 7.172495693365074 7.475930066986061 5.512090200578202
Ti 6.212643351959089 9.761753269840252 4.481467372601602
Ti 8.088496665881243 4.9989645977520105 9.697768406107567
Ti 6.983535858354127 9.975963240599139 7.127362292164955
Ti 6.779748258853878 3.5092241722346853 2.7083473761272296
Ti 6.7066483206175596 5.038162318911811 4.555092167983902
Ti 6.465475865706568 5.997532485482382 1.997853949290464
Ti 6.731579152053462 5.109850520930721 7.360713348132151
Ti 6.893125894526443 2.5150044089916808 6.116295819370303
Ti 4.944522207578734 7.5119890110014325 3.641761990412995
Ti 6.42241957731984 3.0827478026730604 8.934471796021345
Ti 6.9618583887527405 9.408108288739145 9.688982923196674
Ti 7.388433108885457 7.2156590108431455 10.764900431724348
Ti 4.715527474561251 8.385389623848967 6.409048891711213
Ti 4.601782044783223 11.074023735163923 6.276754317596976
Ti 4.317734458560532 4.96432700106004 3.1728903508807993
Ti 4.7182651453957565 2.9819397318900327 4.537864125018808
Ti 4.527873697939628 5.569116762784013 5.9400385713010255
Ti 4.542064920223284 2.793582235610148 7.001772202137581
Ti 3.4829248691685657 9.699540777861797 4.423893782516908
Ti 5.407859191235375 7.238991637580286 8.75531011888179
Ti 4.670647394368633 10.218115276552197 8.747685661438778
Ti 5.575554172665634 5.269939873791377 10.679880879273183
Ti 3.9299804356156955 4.559619923199496 8.528224955453576
Ti 2.5994821404154513 7.290408989468347 4.997377279056314
Ti 4.921744592160857 8.197514502431192 11.106744522812805
Ti 2.4357644247052086 9.462765888232653 6.881685626904304
Ti 2.514211806851195 4.283193382256404 5.97500116416074
Ti 2.387103629039788 6.7122432228840445 7.609138982246927
Ti 3.223638363085472 6.332882525116437 10.228081078867394
Ti 2.9018163212793833 8.599063209212746 9.3486908140806
