42
Energy = -275.94332814 eV
Ti 10.566666935616947 5.916505605021596 4.738515085031314
Ti 9.867596902342742 7.98260610681035 3.2263978134496765
Ti 7.331784809363291 9.044954296169262 3.223802052320265
Ti 9.57079414254432 3.6861722601843776 6.052808994006368
Ti 9.678592326274215 10.380706741564682 4.362390480609765
Ti 11.378349615593743 8.360644435751215 5.299256672712479
Ti 9.133473289447485 4.25363339144123 3.41224389640877
Ti 7.77221432348374 6.582873307809682 2.9629249715372974
Ti 4.506190069368251 9.29332317439545 3.8609394232401177
Ti 5.172837170786763 7.011289450940973 2.9826968121248023
Ti 6.700129965777442 4.273493628997915 2.7111490770231788
Ti 10.921127991074387 10.162528869551233 6.672943956445052
Ti 7.2918275947694795 2.9177503078884195 4.75034242651995
Ti 10.397547458436497 6.165945916528444 7.2420580681859965
Ti 6.7722958728454925 10.46319304928995 5.112135232790643
Ti 8.72724824951869 8.404817617380901 5.7273273895485515
Ti 8.74112664023484 4.351735454097124 8.641666607750512
Ti 6.027182617619175 7.835119349946354 5.463535659902049
Ti 8.602649170223318 10.84729288784817 6.953467359434564
Ti 7.993980038747005 5.620090945966611 5.602881970845822
Ti 9.55622544398318 8.61723516435942 8.245431724206094
Ti 5.487837216258329 4.9832416954348995 4.75848653925071
Ti 9.801877279550267 6.518751331980735 9.787378711513618
Ti 7.988774722163085 8.39615389518312 10.329049001637426
Ti 7.5352143788840635 6.7386579137096785 8.32472806558794
Ti 6.727791450142669 9.214743471924274 7.800902556631074
Ti 6.688152017038069 3.5951116279054873 7.0372283831159725
Ti 4.292034644646256 9.830701730875937 6.242209691779808
Ti 7.6977048614353825 5.8465292566931755 10.919675656440312
Ti 5.119767265141246 5.626997910157057 7.3567009348512435
Ti 3.992867012749944 3.6023123345910877 6.00824104396265
Ti 3.5522750895772184 7.096993838975716 5.312867651632106
Ti 4.152259229756601 7.915493541220665 7.848370919794554
Ti 5.499226546240881 7.296608929529813 10.246081144516687
Ti 5.97799170342652 4.560036475955085 9.755278812128171
Ti 4.82789750038126 5.42427216658178 12.04657867032268
Ti 3.7934368846381155 3.4241893046205547 8.340765101711932
Ti 2.3429349153377883 5.995399508178484 7.486476994719502
Ti 1.8396440376324152 8.514596404896247 6.681256450816027
Ti 3.5153467542642436 5.635684384856168 9.732035022038168
Ti 2.1924630404545473 8.082025316154024 9.33663442804892
Ti 4.1100553735895815 3.4350385685505542 11.302435536037043
