44
Energy = -291.23052031 eV
Ti 6.552224409397032 5.6385347606054355 11.876224615511376
Ti 4.649073511240251 7.069524653723262 11.199582172169178
Ti 8.75903835939696 6.165042757963763 10.951919325413927
Ti 4.974942368143441 9.077053624921389 9.482625643770973
Ti 4.861222359273756 4.61283242241859 10.224269598312585
Ti 7.057572842131099 8.255130809876436 11.2467636829748
Ti 7.458228723256063 4.037504524215997 9.87595094475443
Ti 3.7373809646834406 6.439969189917568 8.798363343037098
Ti 3.4590582214357295 8.446350004375272 7.266204020413565
Ti 8.953549424895414 7.997557721768541 9.176131322276694
Ti 6.543588776250771 6.618309138274207 9.256036489245828
Ti 2.7505400750519504 4.169017218410041 7.549699289598721
Ti 6.249234748350352 8.308291741490182 6.95269807616333
Ti 1.6931589218790442 6.292156350628959 7.136063556655862
Ti 5.521244429774064 4.013682855805011 7.762010284025515
Ti 7.238913122649494 9.966415226584497 8.95049987343402
Ti 9.492725516408948 5.2909870005390065 8.697216670454528
Ti 2.027280341199365 7.514931026117067 5.045837141995754
Ti 4.323054588441064 8.812257123229182 4.820960475846531
Ti 4.216989395765387 5.9411505896667505 6.002313502447109
Ti 10.38027505292046 9.968973903542054 8.126906587395622
Ti 5.305972113562262 10.58402760629149 7.076633262084446
Ti 8.175750856255316 10.466031779822123 6.537404472026007
Ti 12.588141770623858 9.291139739391312 6.7958810165564545
Ti 8.997255903614343 7.784275343860227 6.592325573404265
Ti 3.9453079477162833 3.1436336198369186 5.644833461489495
Ti 7.5873573560601715 5.588075472528802 6.835837366628141
Ti 6.350281135340668 10.038499684337651 4.598483442732929
Ti 2.1045763575346186 4.8554676903858915 4.867731257958313
Ti 8.394227867058815 9.152904733513575 4.090613623299494
Ti 8.20971814615736 3.244798019139725 7.2675491081929815
Ti 11.341051835453847 7.434644397153001 7.937771182533495
Ti 3.6816098248195974 6.767640331313971 3.352000483063554
Ti 6.452767794029992 6.689686846202269 4.685712381217726
Ti 10.470525418579843 5.276339753508747 6.162720605912848
Ti 6.3693328398437306 3.781103851341777 5.045012438368716
Ti 10.54370714928594 9.793447970493723 5.527302613308924
Ti 4.595094277952793 4.613905115314903 3.5233860765979683
Ti 9.193260031057777 6.833761057929752 4.143910152465523
Ti 6.247160738402411 7.992178021870067 2.7529818164316553
Ti 7.460060025048013 5.16664853915204 2.782532320038655
Ti 11.684214473376347 7.331929021225605 5.199191769655913
Ti 8.757082159407288 4.064643500110251 4.727189882109717
Ti 10.464888801847822 5.299842257675191 3.2774174969412986
