41
Energy = -272.59104577 eV
Ti 10.580457739175786 7.075616576247171 4.915285029589223
Ti 10.592594567652721 6.49945469257339 7.642182440201901
Ti 10.645413712147649 4.011778235954572 8.286251858924546
Ti 10.765380911690231 4.405828741397111 5.716656037044778
Ti 9.7636677530961 5.180677576682172 3.297089945229898
Ti 8.721888557706531 8.211616672932731 6.363993915703082
Ti 8.671116382935391 10.071412990811691 4.446968514614997
Ti 9.419461155795279 5.541145329673258 10.180306137008664
Ti 8.32791477041889 7.452389089182826 3.416542535467846
Ti 8.631496749946493 7.797868389020622 8.90239297878482
Ti 8.912394896942873 2.668067873218178 6.8042476830284055
Ti 8.425620256455284 5.646927235128069 5.518672122133907
Ti 8.770669805135167 2.9210867978973636 9.458170120317929
Ti 7.340754312881656 10.453309534681324 6.746970612953096
Ti 8.674734955753028 3.2063773199906667 4.351125149136164
Ti 8.158845202554465 5.153140998683529 8.07680431530622
Ti 6.937135150090388 9.629089333502352 2.467797011135885
Ti 5.417628070254567 7.311714990425267 2.6544566606861997
Ti 6.253037803927872 11.260487150684002 4.446172641686801
Ti 6.4306153265992085 8.74396173749202 4.902097517270284
Ti 6.95489573929253 4.207301500361609 10.44694576483252
Ti 5.648326183801778 5.382375816259115 7.8703471749171685
Ti 6.991094822751079 4.998804286409465 3.3523703146724144
Ti 6.76708789643928 6.648958455199834 10.182275021904353
Ti 4.481036984293336 9.752304586768618 3.316090340940147
Ti 5.893232096467866 6.398959926120508 5.375066354669723
Ti 6.198657069717744 8.13216729074417 7.839117912640698
Ti 6.372062855459742 2.785919723645223 8.222631354571806
Ti 6.3465051344781624 3.6854034278165977 5.649325579093225
Ti 4.477563258288825 9.819806925151378 6.157627197575116
Ti 3.3692905090199394 7.629038484378337 4.242684042603701
Ti 3.869627175934628 7.222713936767032 6.9302677780081705
Ti 3.7296563050957108 3.871099309016826 6.747607188576045
Ti 4.431228182039582 4.15835984446601 9.640784170251617
Ti 4.041579498765628 5.060601499112892 4.34683224502617
Ti 3.5774638404880115 9.26966865890248 8.519427597684912
Ti 3.897611552119081 6.883287608021083 9.819216961755025
Ti 2.003023385009245 8.848445624572937 6.305470882542762
Ti 1.893495725500701 5.922724700157928 6.019963293407897
Ti 2.4460028144284403 5.146475371595033 8.501466682673044
Ti 1.6906260259786374 7.454526894885237 8.441194051957886
