42
Energy = -279.78322816 eV
Ti 10.615611789733713 3.5331643295730513 4.8516601510454045
Ti 10.876630122135445 4.461653579989567 7.494957163523982
Ti 11.527225489250927 5.966842909236984 5.322891695615051
Ti 9.292347546905807 2.4109409383946243 7.016183118639777
Ti 8.495731907325116 1.7212947100557578 4.7270916276534845
Ti 7.796082958900569 4.215173621129028 8.38614106027456
Ti 8.644378506187186 3.559456394295968 2.875522245439734
Ti 9.623798692629078 5.968697410667607 3.5167669694062504
Ti 11.20006592858151 7.254454192933591 7.520954178352835
Ti 9.203706561305582 6.317941000311663 9.245848077257481
Ti 8.178013155602269 4.173122954569772 5.33975942144932
Ti 4.975504060670118 4.34508273643705 8.491612784833656
Ti 6.61051147890118 2.447520286894892 6.654100300761587
Ti 9.17956265039717 6.120290915213172 6.616787261674891
Ti 7.935498492814361 8.454748995693885 9.982255637681098
Ti 9.978106287655363 8.21974661419725 5.129193386995171
Ti 6.765827503783989 6.083539250918673 10.574808664403752
Ti 6.1554727303647185 3.0936923949532873 4.073919801857862
Ti 6.650887082479846 6.780284645298798 8.2414298949345
Ti 6.893207920052002 5.503592871587805 3.117054659482697
Ti 7.903808985783569 8.062151276362146 3.1209294861436656
Ti 3.632165015913442 3.8734806221942826 6.191376628499372
Ti 8.82903164227775 8.669409354900345 7.5008131866403085
Ti 4.186176211498138 6.203908082623651 9.757435584974036
Ti 7.355400142178312 7.280173961692918 5.452767739286241
Ti 5.936436790384225 5.036251763173718 6.047220984677414
Ti 5.3447465897819075 8.523456681564893 10.046318028846843
Ti 3.8646885256139734 6.494854737782759 6.74252415088312
Ti 3.9674097658075507 5.435543239450888 4.140188518060421
Ti 2.089370515994493 5.420453876586799 8.189491171579938
Ti 1.7135080997930285 5.549720146237521 5.509755223450198
Ti 6.77558130847172 10.266718799810768 8.31023924492345
Ti 5.330451392315324 7.683738386506954 4.070319300640783
Ti 7.10835331298041 9.82402957101903 5.335015512808544
Ti 5.181253966679627 8.743222110306672 6.8526998565448
Ti 2.8222130348916594 8.162193529185082 8.87465821978839
Ti 4.190164613110063 10.466617013845381 8.72201587767054
Ti 2.6654991194198043 7.945945781690132 4.597972272188937
Ti 1.316145598168509 7.60433151160331 6.845314103429615
Ti 5.055376641101235 11.308157632256972 6.4572065978979865
Ti 4.427816985576065 9.996940714246247 4.475078295482053
Ti 2.710174460553942 9.821404038576503 6.585665498269656
