43
Energy = -286.61651968 eV
Ti 8.722507627414002 5.286143638248701 1.8053093673818215
Ti 8.168945874552822 2.9883254199467344 2.899355048718268
Ti 6.518671502244396 4.090296727658428 1.2554427258953633
Ti 9.5649650955266 4.822821690802511 4.2928406433661275
Ti 8.435167281002643 7.36968964969119 3.426531940158079
Ti 6.567949952173051 6.76835195747455 1.5444380533328121
Ti 9.165346308140093 9.775014588112326 4.457308200009837
Ti 10.144572536675339 7.600369348447524 5.470522558120555
Ti 6.764494009085528 5.118638692367318 3.7847062740680277
Ti 9.31827572627958 4.0698120462143805 7.973731209599735
Ti 5.45703571188656 2.8809880630073503 3.3727604491393204
Ti 7.866506686356243 3.23909179603261 5.504859479079048
Ti 6.6981049322566415 9.58380597158784 3.530940608399319
Ti 4.527360251347004 5.288148217904319 2.2429600849542526
Ti 9.348698288734493 9.500591775645582 7.17912482654345
Ti 7.296946608720223 8.297629504827647 5.718110105784953
Ti 8.180716430173964 5.805170820592938 6.220459746858085
Ti 9.955417005407588 6.960160103925924 8.07027261561778
Ti 5.232263611806902 7.458122936537905 3.8165071717065073
Ti 7.302452647309161 10.965767647744771 5.708660161761898
Ti 7.2681456803923 2.2191680203615327 7.832689350783479
Ti 3.811119689381557 4.691378138473896 4.592228077074341
Ti 6.549653418688986 4.885275948009828 8.34330489170497
Ti 7.311351391060124 7.529986984926952 8.365273299649942
Ti 5.369287733607769 3.3692439307865776 6.2517605214232015
Ti 7.901531423795792 3.2004677746943884 9.995174709376075
Ti 8.63526430361712 5.751764658357532 10.113361439431683
Ti 6.974992424213843 10.286318128202177 8.07851522033191
Ti 3.041272751882176 7.320472399962917 5.558793586724665
Ti 8.635288011170998 8.68641055610517 9.864385540156528
Ti 4.899013390630041 9.50998620569336 5.783342211963075
Ti 5.405114193416208 6.168768735582711 6.177799538714021
Ti 5.231661110797045 2.965308690749709 9.330870238483056
Ti 3.5921543382723984 4.690077478708854 7.400410717364715
Ti 4.7968385234511635 7.941148442145331 8.087628374125709
Ti 6.261807684101485 4.6719432970117625 11.082266626167597
Ti 6.001988050996849 7.253959701151659 10.739125547369747
Ti 5.897326536987625 9.550583743300383 10.138668648666771
Ti 4.297871799806671 10.607023299430615 8.393021733380486
Ti 2.6090274569401406 9.24920429008556 7.338366973525188
Ti 2.3119925849674137 6.850074831078684 8.113390137459977
Ti 4.196155158164744 5.698735944482751 9.708082782422679
Ti 3.2827973566891897 8.551811304051574 9.954751663329269
