41
Energy = -272.10333992 eV
Ti 10.792979276325715 5.924706918745426 10.172575075761635
Ti 10.740791650366793 8.031639983378403 8.510502131738436
Ti 10.467808538117117 4.5405229125933815 5.287042887649109
Ti 10.532737866259243 5.484314153897109 7.67298437680964
Ti 9.714791691485607 8.12784854159769 10.98260557840712
Ti 8.752496855879826 5.8402315350554215 11.663032363099747
Ti 8.88294215449647 4.062175812863151 9.669260023705272
Ti 10.91323958776105 7.221089664161917 5.663333664844796
Ti 8.630215585878242 3.573780160404672 7.004899825785687
Ti 8.395037722800675 6.631277114794182 9.094263616224964
Ti 9.966349665651538 10.0558432239119 6.538851407547189
Ti 9.786235508613156 6.092580842325166 3.4583452964236505
Ti 8.587003298250458 9.538691727537744 9.246659864164242
Ti 8.544797107688654 8.291034522719606 6.851415854711097
Ti 8.118712697417779 4.103807106428584 4.193955704565085
Ti 6.35310507616391 3.2185292757241433 6.071606380656668
Ti 8.296080213202053 6.080959722514971 5.733692256282571
Ti 7.081042489181604 7.89214126248847 11.170861478280859
Ti 6.130190818296466 5.509924806159081 7.711220538052251
Ti 6.3595957290347 3.1239548826531833 8.70342252735027
Ti 6.568290392663465 5.126854201976785 10.77199806772358
Ti 7.206678049020346 10.737256658054243 7.278773762587095
Ti 5.934591156536131 8.143323258170522 7.935664057496998
Ti 4.177105317616932 3.9889777840654324 7.0848127222440285
Ti 9.200329175035991 8.573054708993526 4.148790096001491
Ti 5.674791505347525 9.779963436448941 9.786587894064207
Ti 4.356480575125866 4.4686884334413834 9.652447271328702
Ti 6.154639706235412 8.394853118686504 5.323799656984065
Ti 3.7890644857560773 6.7534135283404755 6.106915875552207
Ti 5.632459389406693 5.474799264470846 4.833570287890448
Ti 8.066941794922656 10.73986299820953 4.845703167146857
Ti 7.270350173038481 6.7318912647139175 3.210201525185081
Ti 4.720023730322915 7.117833665707995 10.295195335740942
Ti 5.549373481735307 11.044832743242035 5.051575054455463
Ti 3.4504623513907697 8.710593304783414 8.548733967927552
Ti 4.686455918168035 10.691219451807907 7.522552269372165
Ti 3.2659792399465046 6.125722783706726 8.334965417741259
Ti 6.76436772536159 9.471825624029952 3.003691747783398
Ti 3.5161456414830323 9.296423464028624 5.818696886884236
Ti 4.548123451014865 7.385552045955032 3.48409793637248
Ti 4.226744375174231 9.703555259385656 3.366247315632323
