40
Energy = -263.63975607 eV
Ti 10.916495792612508 6.077916043453336 9.30657848344452
Ti 9.73438108257846 3.8011409409807073 9.806591395787915
Ti 10.780434796377813 6.125179799712409 5.865043923301832
Ti 10.4435200375178 4.216784166234594 7.477030946267198
Ti 9.641409790282406 8.016599211655457 10.059559364054685
Ti 9.618012415186525 5.808986154719256 3.640218616208547
Ti 7.347107702478209 3.771196074104322 10.379757037258171
Ti 9.080694435558453 3.868020980005014 5.375869628097746
Ti 9.853896866627428 8.041595716902322 7.474622538118657
Ti 8.746711133029619 5.897109703090645 11.199356296474042
Ti 9.525362126308448 8.250573839780843 4.738525364815341
Ti 7.044067357521732 4.766074798652306 3.6270757376510256
Ti 8.346669224866007 5.7445454874458735 8.55375361721715
Ti 8.534256861995532 10.131458889517685 8.951867443015429
Ti 8.033762687950018 3.039739098594293 7.880396372280765
Ti 8.056625050105453 6.266642801320624 5.783235877009088
Ti 6.241570246169712 3.8515339788918563 6.021870330798
Ti 8.201947537367298 10.476617735916037 6.4535575071374085
Ti 7.145745921034902 8.062112641094787 10.340807106692345
Ti 5.850951125031418 5.794264243354106 10.691246296187956
Ti 7.22081623561846 12.449010058055588 7.737087563474575
Ti 6.001849528883772 10.422254988041585 8.710524129503588
Ti 5.440709494034378 3.583557507174613 8.81274209783173
Ti 5.684201609317513 6.03727762462399 7.969876290325745
Ti 7.109961030156702 8.300785897298892 7.548578784558773
Ti 4.4344958326300645 4.3783841496293645 3.960445846289927
Ti 7.661361037729538 7.2881461513149 3.1165756237451476
Ti 3.5698825508700414 5.399062135503055 9.336064254387088
Ti 5.672523249086035 10.935447120428526 6.072957325789271
Ti 4.486237059392713 7.872099857068546 9.54891367400752
Ti 3.7599606101506424 4.619681281496867 6.620977520689658
Ti 5.354982951379227 6.474646888674155 5.321944949720999
Ti 6.73327913417453 8.859844464112888 4.927175070875349
Ti 5.028543966083261 6.726864873465293 2.6808099276865667
Ti 3.1718258497400735 7.002797217021805 7.231614879396098
Ti 4.312663830587904 9.12522663830993 7.271484471807923
Ti 2.88921965516414 6.338732670707787 4.346478469935272
Ti 5.425279602393688 9.421102182783653 2.6682341967064835
Ti 3.9040968073223823 8.72810201364649 4.643147667553903
Ti 3.165446720699486 8.367365333489342 2.2294853474737364
