40
Energy = -266.5475262 eV
Ti 5.629742799874949 7.882275629251097 10.566440046016535
Ti 3.2342296426495203 6.924213031431168 9.894011422093424
Ti 3.9216038553726396 9.244136263991566 8.969996296001403
Ti 7.4242341008728685 5.789194004356898 10.76062259196585
Ti 8.319784864976864 8.016938678442902 9.992539394577031
Ti 5.1619511029195095 5.072631672505026 10.094925847954292
Ti 6.631247271180297 9.48820016151693 8.471862387877286
Ti 2.588395506977904 7.495616392142748 7.277978493484608
Ti 5.140553723153779 7.111910987981504 8.015375844355908
Ti 7.34648608979967 3.635556824382447 9.12946740607398
Ti 3.122154671455152 4.916262921067891 8.234458894974138
Ti 9.636537307758303 5.622683032192368 9.268225875996931
Ti 6.5053910978327725 11.07904708260053 6.147138956727208
Ti 8.841730271440705 10.529204007421894 6.901768523061895
Ti 7.673768923547843 6.2627285298823026 7.976736709113615
Ti 4.5075547098946425 9.409106243262181 6.461173827924518
Ti 9.717116036690177 8.24342024615994 7.959144893793345
Ti 4.859751608964251 2.8829288646417117 8.773777809347315
Ti 7.247959249558279 8.488661164837218 6.078664536251469
Ti 5.88522229216352 4.553150856620521 6.803234763483906
Ti 3.723145896193283 2.8706282467524353 6.565213778251325
Ti 2.890945420632369 5.267218886484824 5.617838649273664
Ti 5.247361857166645 6.778277881127648 5.1478801742132445
Ti 8.251109744835963 10.279158949255196 4.314206469923981
Ti 3.198051044668047 8.009731471297568 4.434441322493949
Ti 5.655714084317413 9.583562297872225 4.022713753309857
Ti 9.896287068936612 8.499191674106173 5.390882991622119
Ti 10.395188409455997 6.02621679811561 6.536852401344891
Ti 3.6469152559643305 5.641604675584316 3.254645672251106
Ti 8.743892622358382 3.8324026667250903 6.962767688614304
Ti 6.333076298858139 2.1273203975922614 6.641377065084596
Ti 4.85131168714062 3.4972149398421646 4.431874759700814
Ti 7.776925647514254 7.762635162027924 3.2881888050442725
Ti 8.010879264487329 5.821986681236034 5.084359120803963
Ti 5.194829480747204 7.510611570263911 2.523796624367569
Ti 6.2352749328551695 5.077644016675008 2.82825352206214
Ti 10.350697240522058 6.549835670965782 3.7772008414470166
Ti 10.044228152886461 4.132652768418468 4.671573735460645
Ti 7.607457015408424 3.2023809903499445 4.324539331500724
Ti 8.745580873342103 5.07614478599459 2.598135897530092
