43
Energy = -285.96793062 eV
Ti 7.4835407788189 11.298132569955575 10.593033356037289
Ti 11.196292877271516 9.901380846510676 7.624854121817391
Ti 8.731731603234685 11.491221277832413 8.386333668456999
Ti 5.974771931108708 11.668021660489412 8.387768163812394
Ti 5.179138660946284 10.340266736716677 10.58260794966395
Ti 9.553703000346257 9.621638746118947 10.038123805864307
Ti 9.302341365997872 8.955483821770613 7.302214258542307
Ti 7.212449626199422 8.853213414623868 11.571823642345208
Ti 7.017722130647562 9.340843162629191 8.789021096683147
Ti 7.491753638946484 10.680143115733376 6.284771140740358
Ti 5.157091466973486 9.995799145566789 6.3007203773202125
Ti 11.088373604622008 7.272676435982136 8.796122616900107
Ti 4.130110676981327 9.031295095448217 8.639654302826138
Ti 4.794387490747453 7.793702489373353 11.136728368985585
Ti 8.68020515055467 7.1527616476698155 10.023737012980952
Ti 8.979044112245708 8.00432937510329 4.409970925582705
Ti 4.347724010428253 8.029419028471098 4.639859175431402
Ti 8.772842903295668 6.289750846819203 7.5251978498789445
Ti 11.218317422242809 7.383745041737559 6.148105763290144
Ti 6.571319080841484 9.172967624847473 3.860809702668833
Ti 6.975388187030783 6.075525034214071 11.497718894056025
Ti 9.85108706340884 4.853838405378783 9.470145658937565
Ti 6.904276891598492 8.01424221204782 6.311092773474942
Ti 6.007026724610648 6.716110149645218 8.975893778401202
Ti 11.144834230027007 5.089100226886216 7.236278050337901
Ti 4.910910116621921 5.133307788471632 10.85451957770484
Ti 3.362357643241552 6.55713294513886 9.233658288257894
Ti 4.43320871309855 6.839432008068102 6.807968454302468
Ti 6.762832838693229 6.290126353441312 4.222723380037941
Ti 5.162100428615755 7.424275172996188 2.3045478806859707
Ti 9.47575226378785 5.3962933749554995 5.158371810752617
Ti 7.182111363268463 4.389177787957806 9.117764122778024
Ti 4.117133995909409 5.519416610829702 3.700830907027372
Ti 6.488155805531502 4.920135228986825 6.414680245200964
Ti 4.638044248969021 4.329873445604105 8.312942677689286
Ti 8.879936421260272 3.6492848945161773 7.087354805649758
Ti 3.8867084083698207 4.148664060059558 5.973862019108651
Ti 7.620622672765309 7.496037773239597 1.9888543859165475
Ti 6.380366967625914 4.997646650255071 2.054354573225499
Ti 8.947666898177097 5.654076224293903 2.7299008193911605
Ti 6.069429638881295 2.5679235110538547 6.610792800258652
Ti 5.427390920006409 3.4255595697374486 4.102979281426038
Ti 7.842242553757442 3.581300301438754 4.179110109267791
