48
Energy = -321.62007831 eV
Ti 3.4588369980911415 3.280644091203197 3.8264338614266307
Ti 3.149529382672748 3.448890490752611 6.433042990556617
Ti 2.8160687568749103 5.750238714479846 4.785369685741019
Ti 4.548733263359354 5.730875846209359 2.898850474999239
Ti 5.68230811741694 3.2168396886525183 2.8332885749541075
Ti 5.362569897084073 1.9183760017300213 5.187509050464393
Ti 1.394197100205694 5.476053948895939 7.047050899821024
Ti 2.9168130662500036 4.461516513933768 9.074141859616473
Ti 3.518046349379231 8.309130185001584 3.5394893477370784
Ti 5.430893881191827 4.43414037129855 5.293223732932999
Ti 5.155882814118 2.9873115104429417 7.9443012011712115
Ti 7.164897042705355 5.437126713663339 2.910660719170071
Ti 6.146852739281161 8.007230545634725 2.6886119786181233
Ti 7.71420556732684 3.0615435584075907 4.193274379646432
Ti 2.0596418110104047 7.088399066095918 8.856078910374185
Ti 2.359693432496364 7.979139228692023 6.264421185114814
Ti 5.046808651738344 7.387132305677137 5.200518236193977
Ti 3.922617633511999 6.044514173992661 7.266648541064541
Ti 7.619871729835023 3.3710871027674574 6.780993102187176
Ti 4.244270475751707 6.663808675288981 10.159458937729841
Ti 5.177671338631492 10.310664403735723 3.554620051417329
Ti 8.782393561334615 7.799688432016381 3.8784099825555782
Ti 7.508052251419721 6.261944967650776 5.6130817056042375
Ti 5.2122147056980275 4.219118154908228 10.347424636354564
Ti 7.054392401294422 9.268050972614354 5.387655497656717
Ti 3.8906696477467957 8.887118610425844 8.346793522334242
Ti 6.289396644711861 5.404334890100279 8.173757123401394
Ti 7.608722598413331 10.231374324553205 2.954662830474682
Ti 9.370076051662219 5.077559504175824 4.0928996137416025
Ti 4.357113818295573 10.052268078607431 5.957852938301357
Ti 9.293674363881198 5.3907909256792665 7.525470379958477
Ti 10.426515215490538 3.622804834810616 5.875145863081571
Ti 9.364310126210768 8.355394658457756 6.711313394318159
Ti 10.969423915666027 6.399392960698503 5.714250809153895
Ti 6.728747313805422 6.111665837991528 10.846596409754195
Ti 6.467424300005969 8.04609519213823 7.618533481294446
Ti 7.868529718058007 3.967146909669601 9.513485207911582
Ti 9.277764512394164 10.448937005274347 4.717939561146422
Ti 10.033984350956596 2.9641778030464145 8.344479892399825
Ti 6.7721729911138135 11.740843616250366 5.157745117177722
Ti 6.072705903561775 8.689210743986102 10.048994561310513
Ti 8.523372174450738 10.985598336465802 6.978662832957265
Ti 6.046310307858428 10.74434407195657 7.983052491580689
Ti 11.861686212761768 4.763561380813732 7.754937089633505
Ti 8.460678079952402 7.117162678967843 9.30657284697935
Ti 11.062890392571564 7.180917100960425 8.393227940000177
Ti 10.368559049219328 5.127211321481423 9.911452412097868
Ti 8.273753446769026 9.614567653978305 8.943558242118582
