44
Energy = -292.45210673 eV
Ti 10.160023475165099 7.611101062415851 9.416768753987833
Ti 8.185246733405913 8.926627973612183 10.956179621109039
Ti 3.6215035221842538 7.514399282244 11.18035302123055
Ti 5.641027549428049 8.864560516244195 11.07959712674197
Ti 3.6164750831064714 5.18084658472844 10.32720799960895
Ti 7.407173288702906 7.675333062176514 9.049610774579909
Ti 11.1957341457966 5.839128598357044 7.9881732730127775
Ti 6.087592422435565 6.327553321415696 11.037231403967835
Ti 8.687845158498863 5.207270871240701 9.095198360960257
Ti 5.995102091864336 4.394490460377999 9.471533373397348
Ti 9.934320274112167 3.7341142754707715 7.125814791538089
Ti 7.203675118781978 3.2231137220987103 7.450176027170904
Ti 3.815903545494443 9.631060983487636 9.432463973508629
Ti 2.0473019693946592 7.448700003204514 9.07061005816345
Ti 11.15475662971692 8.37873220863254 6.96716689472231
Ti 6.5419109733974565 10.56706159099206 9.415240627196951
Ti 9.072117294518346 9.84924645661943 8.553571285384333
Ti 2.132787439927004 4.95851550702385 8.31811196425584
Ti 4.546184141699907 6.961730178932456 8.577279399095975
Ti 6.2115343033790404 8.806060860302454 7.143198490023621
Ti 4.461258584607162 4.254018428817615 7.433901169829275
Ti 9.079064613396694 7.036686493681284 6.9669097207895625
Ti 6.573828862304744 5.839338085355619 7.197761575284489
Ti 7.266377538380347 11.296231951839847 7.057040470441453
Ti 2.797131771900719 6.4774305541217565 6.473856066652613
Ti 8.378773435621909 2.193078813001655 5.500706046118181
Ti 11.139412755489476 5.709841315756196 5.389313408102399
Ti 2.8402118994522274 8.9801274853529 7.149393327818079
Ti 6.084859771608248 3.4751105052868536 4.910017073566878
Ti 8.33560489959515 4.913271552706996 5.2581813870316285
Ti 4.674211047627207 10.858279594990918 7.146493858850802
Ti 8.75038020089099 9.571593988111914 5.832337881569829
Ti 8.172390265571869 3.188732245103121 3.1962572282472146
Ti 6.207425085700127 10.148788031757919 4.78962014482624
Ti 5.013337630833266 5.855075421017083 4.921229181950857
Ti 7.248038127647433 7.467620618469909 4.748904946712236
Ti 4.446344503957612 8.368174944361717 5.2215300699358
Ti 10.427334865243877 3.376949933514543 4.508881828479458
Ti 6.700851139958468 5.291101582830478 2.837584672076882
Ti 10.02386417546542 7.853919095125407 4.219442480889957
Ti 9.644937653670425 5.431347511196044 3.010755606756331
Ti 8.096501038199738 9.499522447202205 3.2006671555009385
Ti 5.737361509943207 8.047217786969677 2.7875879703311925
Ti 8.176033802683028 7.3239679427503885 2.1484747781475066
