48
Energy = -321.57069583 eV
Ti 9.664285111432001 8.721682920702554 4.3214316592490105
Ti 11.11241682525917 6.4393057720566125 5.061151112849381
Ti 7.318835053809512 9.159208196196268 2.9301726348094452
Ti 9.027944474246096 6.7493626678167224 2.9640103474116684
Ti 10.291105297901748 8.618213854208998 6.783189465945088
Ti 9.012024318449756 10.735553722091321 7.93990836016066
Ti 10.849218980410143 6.304636730966114 8.004509117675195
Ti 7.85674445590092 9.976842566962357 5.6753584056212185
Ti 9.9185273929713 8.645205680969628 9.547204938298183
Ti 6.6040893126482745 6.748552711797775 1.631754859152234
Ti 10.400199142260329 4.225598712501512 6.558119776975765
Ti 8.845030792409215 6.3566496084890485 5.89405635200125
Ti 9.249250264592385 4.32550135263072 4.168321857190687
Ti 5.437880249128209 9.845433614745792 4.932828654274639
Ti 4.793743813486097 8.10936456189563 3.139073976102382
Ti 9.869537726222205 6.118683222479524 10.501680357648313
Ti 6.925158917572923 7.541626232379619 4.741795099275956
Ti 7.771513189689019 10.234279206116119 10.057971333152514
Ti 7.736014948153426 8.45559397211905 8.09808987908259
Ti 8.231570235219893 4.511479499896524 1.819734529098392
Ti 6.27102541135329 10.684630217654872 7.8247624443967085
Ti 9.460715266136418 3.981594153120477 9.016881742553878
Ti 8.081229700648514 5.943364933986086 8.496847167719796
Ti 7.771625572307847 7.689217659137738 10.9144738413507
Ti 7.563151851288801 4.98778704231528 10.852179849733245
Ti 5.884573421017867 4.0437142222955185 1.3928063742197843
Ti 7.813871410730904 3.6338816062818555 6.2869978508027975
Ti 5.436811006970962 8.059518666450295 6.980937233143084
Ti 4.208107302920307 5.739333325629084 2.2083894620545803
Ti 6.551729187243266 5.01546131925356 3.8776748570736213
Ti 5.645266999087947 6.558006629476451 9.520686560926086
Ti 7.035421699534414 2.5868337010429068 3.3785644625377715
Ti 5.512653517392157 9.058402628491805 9.866886119667106
Ti 4.194952094790241 5.957632436409693 4.8663359945407425
Ti 6.427261920883459 3.80623851078121 8.815591976158766
Ti 5.980367456367691 5.406437393841371 6.833988030520368
Ti 4.328423096429707 3.464887442153292 3.384071781889574
Ti 3.461736761800049 9.039899728486073 8.204655012649932
Ti 2.977281181641036 8.2543119327421 5.7221897557542984
Ti 3.5008125010683506 6.049520771715196 7.490117287082806
Ti 5.2706430371865824 3.0710405913004544 5.651253765647592
Ti 3.913817429231182 4.655627479748701 9.932393402777837
Ti 2.8348788313796884 7.001949390157924 9.892486401262428
Ti 2.656352783498636 3.8361808342577985 5.964094440573263
Ti 1.564927647284005 6.044310405688094 5.680577048149884
Ti 3.822739958524214 3.2140745433107636 8.009754512500281
Ti 1.344920096329761 7.5747932215300775 7.796756184878666
Ti 1.5796563199600249 4.828618370488576 8.377327688227995
