40
Energy = -265.84994996 eV
Ti 3.7838530304391678 8.781234132216674 8.170833356760426
Ti 8.490629838480471 6.91616853440647 10.445050944114627
Ti 6.101684438875715 7.562272455318036 9.388943520844526
Ti 1.6506285277561463 7.248270717771312 8.647752880941264
Ti 3.8124209934642 6.280638666627762 9.666473284669577
Ti 8.28560114481905 9.038578458047175 8.899259937885429
Ti 1.7203112635691629 8.605603908249867 6.409333033133983
Ti 6.555380754917624 5.072582027435753 10.033733168641303
Ti 4.030960301250984 9.001809010970504 5.421057726091054
Ti 6.104739839026063 8.3098101846698 6.860286008616498
Ti 7.720885931593492 10.453300737915121 6.61109011518185
Ti 9.356459047440087 4.621313525318922 9.311240308585692
Ti 10.41740869574626 7.363765179540097 8.615147833429521
Ti 3.38107682967056 6.561542944790078 6.657914228503149
Ti 4.430669844599958 3.7887870260868683 9.233352703047524
Ti 7.976528650525896 6.033319562523982 7.961303991333487
Ti 10.204183663137623 9.8568287085216 7.463012917688257
Ti 0.7592804720814512 6.241638176275824 6.437935436274333
Ti 2.1681003111789217 4.63479785927188 8.181262120939495
Ti 5.532830607511556 5.46738208468317 7.3928619193250515
Ti 10.676986354664653 5.538613411396265 7.029805288502122
Ti 11.257686614039214 7.915148840927475 5.759785712700292
Ti 9.67612362843394 10.03406433571431 4.934465358333129
Ti 8.77786041998842 8.003149748905381 6.300132794618253
Ti 6.888741495425093 3.2582073694990425 8.1781869688458
Ti 2.4657065006245413 6.888438157478313 4.322672757633143
Ti 4.051067524269509 3.1882360447882556 6.739697056875457
Ti 2.0348851119604388 4.385620491461558 5.466292684653272
Ti 7.174312239875759 9.121331215161211 4.340533827793701
Ti 4.2869134324398335 4.663084163071161 4.589066500680175
Ti 5.419883106537653 6.916991507202879 4.5953546207913245
Ti 7.907913868161247 5.965248349115731 4.760337662462059
Ti 8.983941003424347 3.844415771314152 6.439129797583245
Ti 9.602006993361108 7.954758465232693 3.4544193488458586
Ti 10.540593178418778 5.529976351597458 4.455395194367954
Ti 6.49438239198918 3.637920140264473 5.427615596621786
Ti 7.122276050596517 7.318024568836107 2.4729253847492574
Ti 8.60974253540307 3.5731409913036245 3.80876809211086
Ti 6.544493851143337 4.818492573660464 2.7994228283435785
Ti 9.01208684239931 5.616730931670042 2.3293844167225335
