41
Energy = -273.08201562 eV
Ti 5.12262791375609 9.37105323760881 3.998545570077438
Ti 3.340066187455376 8.880479314480224 5.84470654436819
Ti 7.195107521960599 7.382007402631922 3.2915761624785707
Ti 5.02650980516795 10.762088430501953 6.659275691050255
Ti 7.53500325964495 9.935660420537179 3.0409963073218593
Ti 6.633049768331257 11.522960030209191 4.82568531023318
Ti 6.887488117579753 4.5695024487897165 3.1358918848690416
Ti 5.401358153216095 6.60265964304145 4.7672999111533745
Ti 2.731172551400952 6.065375720864536 5.407698272807415
Ti 2.411436665808983 7.435099373428185 7.589693230769941
Ti 3.7471280165366854 9.22899185428366 8.70611785435353
Ti 9.496428846557789 8.259743586998896 4.078974249196708
Ti 5.331360232728069 7.901775351496016 7.246845668255355
Ti 7.224374481074985 9.005537333039833 5.603855755054392
Ti 4.559635597006125 4.09388653296935 4.469778265433264
Ti 8.2540875374988 6.547038780297988 5.714881346582133
Ti 9.104779055214538 10.803289367801725 4.925345179658299
Ti 6.444227035693247 2.1524716249734097 4.2023540197562745
Ti 7.735075431136452 11.016144318518124 7.219996709258184
Ti 2.682109304732737 3.415718597295941 6.228743057661109
Ti 6.141508067120586 10.029102575111965 8.924333771933723
Ti 8.812256156452781 2.998129429775479 4.211308591363126
Ti 9.812508297858026 8.786890127983426 6.662514498578491
Ti 9.52501027255443 5.373318097741335 3.7481449278218126
Ti 2.024800299277112 5.095272129210978 7.900747888654321
Ti 6.967885188613452 4.1363486066748045 5.804312497983507
Ti 7.130800758276602 6.001481640758102 8.001750558222241
Ti 10.89726426399095 6.555661923322382 5.630030428699132
Ti 8.163679974969753 8.41343095557464 8.528572859414732
Ti 3.7788878674595545 6.21649840710577 9.531877462005772
Ti 5.0519710855565165 2.2452735853377224 6.48028609460992
Ti 4.625280143048705 5.033937986966918 7.133638846790224
Ti 5.9813362533793475 7.57257627730444 9.904957169553262
Ti 9.906990111986326 4.178161910282945 6.280203831987039
Ti 7.975426366568878 1.9452431050648928 6.523094137015502
Ti 9.967163640389774 6.212352438552939 8.112822143014583
Ti 3.710532131881431 3.3499083089561825 8.843815500491173
Ti 8.569963369998487 3.8879653084473276 8.704808437237432
Ti 8.31724169428895 6.208565015181326 10.214621778824146
Ti 6.2989438350561455 2.7689772014269485 8.466944190945092
Ti 6.104004462872062 4.665901323553495 10.059433118619017
