49
Energy = -328.60087158 eV
Ti 8.994525367013043 2.43893723356474 4.290015992007451
Ti 6.542307956354867 2.9591765077424266 4.27980266055051
Ti 7.755570735670734 2.6762438132962267 6.63893042850115
Ti 10.39657084555278 3.003077557417029 6.290866173860764
Ti 4.757541167659991 2.9125707292136367 7.583115308557434
Ti 4.411673479431419 4.1505782914705165 5.39188233499912
Ti 8.088212828304243 4.238833507334801 2.5746452618319373
Ti 10.766833663210448 4.5574765530682715 4.022506078665471
Ti 2.289048705353481 3.6124684121720896 7.113273947967589
Ti 5.287150330338622 4.573989057330403 2.4781286134092624
Ti 9.064654073913843 4.314133878469244 8.140664997999647
Ti 3.190167506586082 3.7047677061587403 9.565204871732897
Ti 8.812259293222189 4.935249882648561 5.3433921140729845
Ti 5.929682064843214 4.2707256984934805 9.593458689694478
Ti 6.408782488729406 5.850479530725956 4.296784590331007
Ti 11.110349092287246 5.578388457993234 6.826138494128863
Ti 6.53245120018747 5.166208270990023 7.096829219810212
Ti 3.117066220635385 5.671548705655204 3.6690191553421645
Ti 4.012473061949021 5.539168976937985 7.9387910717035615
Ti 6.917677906868702 6.3554068146298395 1.606009611715767
Ti 10.349135452934755 6.844933774256903 9.31794186251179
Ti 9.172108148834104 6.753102494302391 2.8216028002058415
Ti 1.5836058740215087 5.799189209020975 8.654918097016445
Ti 3.661441134248317 6.086632200591031 10.647951422818874
Ti 1.7396874469487265 5.888223005326217 5.886299235993301
Ti 4.7503532102921024 7.434079861752754 2.73880590848788
Ti 4.306575609998552 7.040424361631458 5.743484453816717
Ti 8.82458141859833 6.902498591738081 7.167847087752947
Ti 6.209589280100194 6.117587824871995 11.739263384443461
Ti 7.20185099787081 8.796575276356569 2.393319836057581
Ti 5.882622397634613 7.0875049959800736 9.338594704679473
Ti 10.73533779984958 7.406673233800954 5.001778027775661
Ti 8.140648287529928 6.076720698950914 9.849504041433136
Ti 6.16890135342259 8.199443937743524 7.11402886745333
Ti 7.662761099072241 8.102064295119773 4.877607705542177
Ti 4.833145008229731 8.364474834662888 11.387088499334896
Ti 3.415260751363449 8.23461714709734 9.100248063627033
Ti 2.548412380138223 8.219590818793675 4.512730955633977
Ti 1.8434477414707147 7.97359669711917 7.094173222107236
Ti 9.633169904763685 9.24841178985614 3.4956902988143184
Ti 5.243749868107776 9.450788164615176 4.515468440729185
Ti 11.016372628145364 8.288782394730696 7.542197806172279
Ti 7.434247625967684 8.399771654619324 11.10397984822841
Ti 3.905690860670404 9.620016359065433 6.847235403333195
Ti 8.338346627650898 8.847585994032135 8.685841785007907
Ti 5.744897740785791 9.824339431134286 9.364207871538747
Ti 7.665287961192756 10.679354386893337 4.213542197341931
Ti 6.734659025174765 10.518032804464383 6.523784758536835
Ti 9.397565351881736 9.814005151170024 6.109854771733685
