46
Energy = -305.63466939 eV
Ti 10.333379796399834 4.842398404800168 8.40410349221389
Ti 11.455039286209304 7.220083997428932 7.972950261930071
Ti 10.177503697922138 5.287775954493089 6.04126747247601
Ti 10.026414781913177 6.579805313711568 10.264178007179769
Ti 8.64493479203621 4.158513730427645 10.16744560902777
Ti 10.873903490350754 9.610440964280293 6.731648118532241
Ti 8.918679455201808 2.8046217687745214 7.585639618397555
Ti 11.304798193184736 7.5385691710395095 5.346416287858269
Ti 9.979153157812732 9.195561865406567 9.335692032564591
Ti 7.775872252049066 6.074059463365167 11.80164078625477
Ti 9.481795424763597 6.711087958341832 3.8127354526375754
Ti 7.5056319356889825 4.921668517926197 7.709211879665935
Ti 7.718274484237986 4.367785142427044 5.044116160951187
Ti 6.782187618019199 2.6976362294282628 9.219268419293066
Ti 8.487909296989116 8.444371712278604 11.382463277507918
Ti 6.476651968193985 2.552416634276744 6.688081656096267
Ti 8.594446318259731 10.416510420832742 7.473908279451088
Ti 9.049434545296561 7.620250658631007 7.172864796397019
Ti 5.979650829534043 4.874143554560134 10.42933780101979
Ti 8.70358428538083 9.168083001550237 5.047683229862483
Ti 7.113719642366463 7.029740410334565 5.238422550902771
Ti 7.441342064349467 7.117655824829124 9.344288115879175
Ti 10.478687007767403 9.220548770324925 3.4931375267695355
Ti 7.740240671602231 8.173312204817842 2.7465017383484036
Ti 7.312202294403938 9.841738712548864 9.616865582198267
Ti 6.903274163246604 5.567325635674981 2.7292172451063146
Ti 5.810487081342334 7.873552598133025 11.194813487898411
Ti 5.396561758631021 3.5602812637532284 3.500903472548774
Ti 6.521331460819913 9.086736150111099 6.839337989010536
Ti 4.693071890878579 3.9155983115629116 8.293344278990329
Ti 5.304079529396264 6.724568197574907 7.546144688642417
Ti 5.927385895022791 9.4379543710172 4.060433647490097
Ti 3.9057279852957456 6.391617641553482 9.807218864178786
Ti 5.158298594649987 4.498924983434335 5.773424120961663
Ti 4.714400504592099 8.945259701100625 9.020527529915123
Ti 5.191061233798117 7.755615128048157 1.8760542071505146
Ti 2.896279065981889 8.571928600685206 10.6871631665238
Ti 4.598593755673608 6.630597438760423 4.193953903742562
Ti 4.4640493507193275 5.179895101595223 1.8375595023494722
Ti 4.05585041320408 8.759038880090154 5.983806259374032
Ti 3.1043457360771547 5.695411772483303 6.526963767488729
Ti 2.6391742579541924 7.769378852684509 8.038404072773503
Ti 3.422807900397242 8.987977220596026 3.429435828499617
Ti 2.806254039177797 4.70705847790125 3.9702391730475344
Ti 2.659288490931165 6.808660342330734 2.3312005324062035
Ti 2.021006400692555 7.285313724847961 4.847025937543846
