46
Energy = -307.57140264 eV
Ti 7.1701472121614 6.556164508870484 2.696127594613565
Ti 4.578581002757173 6.758283107582737 2.9429198744089975
Ti 8.274274534659703 3.938610574136497 3.3872150994694614
Ti 5.960360513149143 9.133928678248166 2.709318903925066
Ti 6.463347352134957 1.6995955904971871 4.2059961795048855
Ti 9.10047531501193 2.0818556266020685 4.934282091471206
Ti 5.811452807698797 4.3518239113718575 3.4224901587718506
Ti 9.914032198501967 6.130512529637672 3.6791490111393133
Ti 10.18213701345651 4.257218169758911 5.6356766478880616
Ti 8.536547943685626 8.41327334164624 3.8872714541470987
Ti 5.964545382362882 8.220665023398242 4.917871943308332
Ti 3.4655202581421216 8.768904975737945 3.8671904681427813
Ti 4.200466982803681 3.3639839740686863 5.2330399206891345
Ti 7.696180288129236 0.8662045688478751 6.530669471146867
Ti 6.865793674090351 3.3557562813221478 5.997814691653986
Ti 7.991300862797899 5.871300134335752 5.330712101623051
Ti 2.802615087143181 6.61743863386562 5.1987266287190055
Ti 7.516581209737413 10.539618149818484 4.981207184564855
Ti 5.268626374252396 1.2712334750704426 6.619713576438412
Ti 9.253818105640544 2.655983400294121 7.71329487383794
Ti 5.38990764027372 5.738993794853025 5.753445792055457
Ti 10.077106016540423 9.682315093862394 5.6117473368214625
Ti 10.262179368123995 6.973200966242181 6.29584584470285
Ti 4.509226536157718 10.616828630270012 5.152399573089128
Ti 7.956307597348348 8.473178064492046 6.770807780198184
Ti 4.579933728448066 3.2391785190431275 7.849321957043874
Ti 10.389285613277595 4.96866735952643 8.097940826834668
Ti 3.631473031098107 5.53907029874783 7.600953491332138
Ti 1.9367064700968215 9.356990584971262 6.029871770150782
Ti 4.078410454462407 8.41434687583292 6.984321858080983
Ti 6.843588840425719 2.26246334828319 8.70431109323282
Ti 10.213161191631727 9.080067504768047 8.12359248648996
Ti 8.534702108084723 4.321061996034593 9.990668286045297
Ti 8.66642520551152 10.988604137641374 7.3706478497971535
Ti 3.5350661035235103 10.997682094869498 7.581776722585402
Ti 5.9918858394712124 7.2210137632589095 8.173854963363391
Ti 7.604764877631253 5.005219226475049 7.88878591710132
Ti 6.092410910856893 10.523118877088656 7.363417732361992
Ti 9.13084497711162 6.960978815974321 9.079589443950052
Ti 1.6956193327874838 7.186428056104539 7.604363934853725
Ti 5.54738588778544 4.661425103602871 9.649510503633616
Ti 7.783313097370969 9.326499045022963 9.332018156127608
Ti 2.1855724076899783 9.324936162841707 8.73768390887285
Ti 3.6301294607650907 7.185692134111264 9.571420208020289
Ti 4.814300912980385 9.471603326110847 9.465366425032673
Ti 6.926821253494118 6.651414546124583 10.34898124402374
