49
Energy = -328.7309433 eV
Ti 2.72114911587043 5.970698811550241 1.1297131858195044
Ti 5.128953983702827 4.889709621557059 1.4017315290373105
Ti 4.518549692470889 7.641933612425792 1.2151797502317796
Ti 2.8525869755700355 3.791753608611112 2.5418578459159686
Ti 6.618057892741127 6.9541555300442885 2.4167313472128784
Ti 6.935299378886466 4.630654227245649 3.4991106172724704
Ti 1.2504702896308508 5.853231806854691 3.0663806409558214
Ti 5.170860711532816 2.5812244160066866 3.175490535684286
Ti 2.4453082330616898 8.175036482136864 2.742866543699473
Ti 9.151870580310966 6.766190483639266 3.870595937427983
Ti 4.066780376899485 6.16618395854372 3.5296602070707026
Ti 5.1088749028681395 8.775707548992695 3.49953789753497
Ti 2.849956936296016 2.143638610120327 4.507947634886366
Ti 8.028713047538602 9.108818454094507 4.377071342351955
Ti 6.546816383731594 6.94035952101778 5.008221332042243
Ti 1.7899462205277004 4.342414057198302 5.151229066310406
Ti 9.38015201260906 4.708640901161125 5.548080617911006
Ti 10.55998653703257 8.869991014914103 5.120937820311203
Ti 4.91690511251076 1.28435822466492 5.4957062871658104
Ti 7.095649958992625 2.7177657742761245 5.163293178869451
Ti 1.734292106400829 7.034961736873336 5.2449789636063056
Ti 11.242613494402276 6.539002452929358 5.517418916895336
Ti 4.663505930652023 4.047293082942892 5.494226085320237
Ti 3.4316055508634324 9.17433446333196 5.404590222453784
Ti 11.095560698856989 8.153500107407094 7.714030495118196
Ti 5.877619424383675 2.49582891037742 7.477436271516511
Ti 8.793539315175103 7.48044482625644 6.376595718700696
Ti 2.199659026072553 8.125273405800863 7.4954902864927035
Ti 9.045616881850412 9.977405950356088 7.09106879617951
Ti 4.5349802709374165 9.171187662512146 8.055682659600107
Ti 4.309912631421665 6.853003944436441 6.505330064406046
Ti 6.28345396806963 9.52622356685263 6.123145205060851
Ti 3.0910657391301664 2.597506510233495 7.0588357063591145
Ti 6.911420016253286 4.861903358738474 6.870326714604195
Ti 6.968182384144976 10.068620127435508 8.639462168863213
Ti 6.5446816528868785 7.392555849880624 8.156859750288067
Ti 11.304671383544303 5.324125493353926 7.773966416070955
Ti 9.0491235273339 3.4184739617137514 7.684580587114415
Ti 8.850360985116321 5.9715673342587365 8.476494961272666
Ti 2.221149293729055 5.430036186419991 7.516036848653047
Ti 9.022543329729078 8.732737612579077 9.556378080892271
Ti 3.9559826291833247 6.954860353698117 9.201093852326046
Ti 4.601250751313327 4.4914853633169685 8.443253804351983
Ti 6.346054232163576 8.377387212648426 10.506872260631216
Ti 7.437710276693318 4.005958749015287 9.636094873063026
Ti 10.828881637383324 6.823759694606499 9.965764335745515
Ti 10.065217500492293 4.384477377305598 10.042687844776427
Ti 5.942486518570787 5.763276157121464 10.397815616510837
Ti 8.41557776346188 6.415949145543614 11.017746438415923
