42
Energy = -279.51178097 eV
Ti 9.89895872570212 6.156396489152966 10.62927292026721
Ti 7.678021194624682 7.53156512594117 10.272719884868328
Ti 10.281409618607212 8.426976454537064 9.186238651946915
Ti 4.988697612871029 10.789713980215286 7.650678175701223
Ti 5.124883049104882 8.670294080844796 9.947668432531314
Ti 7.742166179722087 9.719314432359894 8.956995323529608
Ti 10.106159212012278 10.122784164496002 7.0306044652111765
Ti 7.622007768035968 11.170816885224403 6.970526305625873
Ti 10.198822645745121 4.090472098591733 9.041431220702037
Ti 7.762550644403117 4.693643186849601 9.900002175672252
Ti 8.6085245501703 10.480395181506239 4.689973145999175
Ti 11.646415167976743 6.151451102072277 8.717828516578898
Ti 5.328272296333555 5.957606231674587 10.788283718864031
Ti 2.899043446646522 8.549067234854036 7.66390642956274
Ti 8.998324032411269 6.303077943835103 8.104080855825728
Ti 3.2272035675115083 6.907094236952262 9.42589823169206
Ti 11.177352263794422 7.5819521976217885 6.6662285040837705
Ti 5.9344727410497295 6.314964693270445 8.566355851470425
Ti 5.756980562170351 8.615156684684834 7.322014908297898
Ti 8.305549313740402 8.499341774410254 6.4328650228950375
Ti 10.490420760464177 8.780937506180702 4.581886331391357
Ti 5.808487970970072 3.5107586256839425 8.320536297749532
Ti 6.0387222161381295 10.506625257600673 5.133660502263335
Ti 6.642370946502735 5.451953239407232 6.07030200186506
Ti 8.486463644175968 8.213152902856837 3.143159781045152
Ti 3.6337698863611068 4.590397575037864 8.989522864862916
Ti 8.982527280997397 6.371987691673218 5.25451380385882
Ti 10.224278597889208 6.1006628523165745 3.4575923329669442
Ti 8.319653234900496 3.6582328106498214 7.264642659066716
Ti 1.8657811054695523 5.758920916309496 7.278439649273628
Ti 4.147615150662099 6.451721165447388 6.389605688137331
Ti 10.722702358227286 4.765458225991025 6.536067465105349
Ti 3.8690176669415157 9.183176085428897 5.433461512741117
Ti 3.823961356905387 3.685611638874298 6.4998371262919195
Ti 6.2842945325222 7.8558411732458415 4.628118156956661
Ti 8.171819277114087 3.9461901583051313 4.4927866401903485
Ti 7.350638901208696 5.945059417001098 3.07635502142133
Ti 2.597516913761786 5.041370226984526 4.71323913588151
Ti 6.209176709122774 2.7933758789257257 5.842993633388329
Ti 1.9670154000799118 7.44605506555328 5.247381183819711
Ti 4.0988362429916245 6.9371549560353865 3.6762742127116317
Ti 5.163090317321286 4.428655036700543 4.091855445246441
