43
Energy = -285.57421993 eV
Ti 9.816860276560721 10.17234754776367 3.8975384130654422
Ti 10.890560063923141 9.010143610935755 5.95564510792139
Ti 8.751695557455006 10.587965714995041 6.330621050758292
Ti 7.410740530562909 10.77222255533956 3.784401608491229
Ti 10.42902948616003 7.757459903365687 3.574442852174039
Ti 8.047659398459325 8.286218112231976 4.9452256917885276
Ti 8.2675357834153 8.826468619079023 2.2957997480996584
Ti 9.971020772557257 9.464510198703593 8.467192686694393
Ti 6.1315516244964465 10.425893408443686 5.863189526123646
Ti 11.805936860821012 7.707201724933456 7.905517985796941
Ti 5.682847944006182 8.824826630832359 3.4404829636080296
Ti 8.745179589712109 6.35361787910936 2.416845935541765
Ti 5.341430701595157 7.6839596669945385 6.06603015371733
Ti 8.641863686050653 5.394397187084604 4.7001055796436315
Ti 3.7405588592952705 9.565049843867769 4.951152800953592
Ti 11.12386243376277 6.165444953609789 5.7754657528016216
Ti 6.858859504547017 9.051496453690827 7.94846058367163
Ti 6.355173607224517 6.463972169932913 3.6327756838563956
Ti 8.06930944523486 8.761219512399999 10.176057776912595
Ti 9.04918045332001 4.6933579076716825 9.628848348104428
Ti 9.261725327785001 4.246235404458394 6.93839003083908
Ti 2.6437606105816407 4.041205789222355 8.669493956968001
Ti 4.771783113034503 3.225379499678138 9.553026760785277
Ti 3.8548388935444957 5.562883543281935 10.578794081761407
Ti 2.2264912071141216 6.5199293060686445 8.702496275872575
Ti 4.542614371227603 3.2144105564690806 6.870416235825109
Ti 4.705398805641941 5.614187137759829 8.088648494113285
Ti 2.7055875151573074 5.262558467751381 6.271567401326659
Ti 6.393035702831333 4.7435507277890405 10.932809501113828
Ti 5.812260809061366 7.385244194527982 11.09569476021417
Ti 6.943941858021863 3.410834379262673 8.374253809831027
Ti 2.6274652883851743 7.945290478079271 6.622991624599622
Ti 4.8918297913470825 4.662590356567188 4.806469521416222
Ti 4.214900837012937 9.914885421269657 7.44101844305275
Ti 6.936780281995578 5.557394053233057 6.5474740480152915
Ti 4.1397720826872035 8.208012147493779 9.050629434551672
Ti 7.031254513551395 3.166112546742742 5.661980108397268
Ti 7.100093812432747 6.496367250569005 8.999063250064818
Ti 3.6135860319543744 6.948662382497191 4.245701123757941
Ti 8.16125891947345 6.523282955994348 11.451616888258782
Ti 10.216873357015219 7.193481144940713 9.994876645226862
Ti 11.155088272451152 5.362860130934508 8.306308143294444
Ti 9.227644714939867 7.135711220832222 7.34932190739764
