48
Energy = -321.49375926 eV
Ti 10.277855391748677 10.33342890100528 6.57142563455157
Ti 10.128457258049147 9.12156644539344 8.916911546008539
Ti 11.084939275094413 7.158904826987088 7.829136341493362
Ti 9.677599900508602 7.805638566936757 5.708939270094318
Ti 10.851828422397782 5.430287028466695 5.306716948414195
Ti 8.867390801872721 9.938432574278124 4.380166168253497
Ti 8.39299598416971 12.010395624992052 5.862397751933345
Ti 8.50704668527115 11.384080962627637 8.538991348776465
Ti 9.179785739259515 6.666076104572804 9.985241384959444
Ti 9.87311675370675 4.952004139436877 7.827142741081894
Ti 9.373370005501256 6.648465180214907 3.5118073673940846
Ti 7.627860975873974 9.66067325986169 6.824967696108472
Ti 8.075779385774178 9.15186942544353 10.076657641772037
Ti 9.949242704210858 3.187258816433419 5.831549913383223
Ti 8.244899590377608 7.301109398502906 7.886944820745967
Ti 8.011211734594065 5.2232191429116845 5.5896308789366085
Ti 7.080362890040202 7.962322555454684 4.482062312953556
Ti 9.304822623834825 4.068947228532121 3.4865314088485175
Ti 6.274078457738707 11.957391012075353 7.18328300524143
Ti 6.2949742943342635 10.695919277282309 4.717136395802668
Ti 7.2705979909416065 4.929267614893227 8.670221230170032
Ti 6.00838941118502 10.128519444261075 9.059101059606661
Ti 6.159885427319094 7.21549070418387 9.796118788786957
Ti 7.073100597702089 5.709999009838091 2.941354400480263
Ti 7.581558460618118 2.439065638203373 4.919719273791137
Ti 5.075279905499606 7.6584748786936085 2.6084357621508225
Ti 4.866406223444956 6.0222348027774295 4.738297120638694
Ti 5.344138309820913 4.6584952149754315 10.498869008414127
Ti 7.836381797568338 2.8556902126893218 7.438938290280639
Ti 4.1937124312278735 8.791941900380355 4.4899481320257495
Ti 4.538716333204315 10.148285521523713 6.812768788214868
Ti 5.823834965815282 1.1993055301504882 6.732901940072876
Ti 3.5615414386367936 6.2559490266802955 10.481511563751292
Ti 5.695545006443576 7.637795755065768 6.824347166356555
Ti 3.8024930734713838 8.324850775573053 8.768582473974032
Ti 2.656747179415534 6.473183141988929 3.7312142260547003
Ti 4.65570890948098 5.680774774941234 8.104913175706127
Ti 5.553373183114374 3.7735730907194043 6.150999002010076
Ti 5.8940468671270825 3.4423964034446515 3.0972390309508544
Ti 5.33915385320181 2.689024655972924 8.733829731451557
Ti 4.912824930339325 1.6816071133351602 4.5173883670339015
Ti 4.454485861005104 5.217304085150155 2.195217025697036
Ti 2.976783288796979 7.654259197898664 6.304677024574259
Ti 3.407758047568814 2.4286696544678796 6.669019935413229
Ti 2.036295820651102 6.341928069358515 8.431106201219157
Ti 3.0162324519876815 3.953309837275654 9.064711033764366
Ti 2.5200517444670822 4.990475677823936 6.259749722374688
Ti 3.314250389458245 3.687050570196945 4.088092722152289
