49
Energy = -328.46947613 eV
Ti 11.39507914399947 5.228912947777334 4.0895406486360875
Ti 9.860040651559927 3.0658757153036964 3.9993583073374763
Ti 10.14662367724991 4.819567645872447 1.9356206391097066
Ti 10.222024916780564 4.4890570278451 6.368953484235033
Ti 10.166999407189293 7.346118079548659 2.9672767104804776
Ti 7.624646122721287 3.7370418071381333 2.0869090910985406
Ti 10.531337562548721 6.960712205499363 5.781890047125936
Ti 8.151463421383935 6.262592381386838 1.5492412102794535
Ti 8.39851804030612 2.540753780359569 6.261597388365523
Ti 8.73841898268219 5.533398544426631 4.154602045718436
Ti 7.571398475133446 1.8991939368767692 3.8367455831931307
Ti 5.9209164085528965 1.6499324985753518 5.590232513879281
Ti 9.705901574199418 6.274186673007132 8.81951652868146
Ti 5.18234139052506 2.9155202827781515 3.2854825139747303
Ti 8.22811956030275 4.193429368164353 8.624965835836525
Ti 8.012388437256316 6.170333201381348 6.744131790721675
Ti 7.269934288221286 7.778825916434841 3.460572548707245
Ti 6.54961870689264 4.246187620317788 5.048250691761311
Ti 8.719896173489127 8.64053494478658 5.244305308746327
Ti 5.819937939993661 5.597960888559839 2.589795009178572
Ti 9.08127426556894 8.609283862386855 7.914155370395263
Ti 4.049004879740743 3.5258495335170688 6.027940655586711
Ti 8.48287112733196 5.329714753658896 10.91722702275388
Ti 6.027995284220431 3.0949788393999973 7.747069024378325
Ti 8.067108115518662 10.815861770295692 6.593675262934103
Ti 3.8378919613914695 5.242135361446487 4.140212823085465
Ti 4.62931985866902 8.256132153902207 3.2176489549347913
Ti 6.5900269210103755 8.730895934118248 6.969744332807535
Ti 8.797008680629569 7.969251479180899 10.962201032763351
Ti 5.537008579796919 6.920821546261051 5.257514476242414
Ti 5.240560203163905 5.602080528849082 7.447172532433042
Ti 6.62917851055138 6.589474853806179 11.890354902394511
Ti 7.040505344807258 7.198516708775835 9.271942709160568
Ti 5.983599039677448 4.624925305210991 10.09027140953481
Ti 6.26495475870612 10.092683886876163 4.642557228885106
Ti 7.39378198569447 10.068133895520669 9.19911772803892
Ti 3.5278887095907248 4.343587734700223 8.66136870840822
Ti 2.6549580511051825 7.552014742608688 4.570660432278211
Ti 2.427815235829276 5.7372413035094265 6.399152480775902
Ti 4.018502867193199 8.016082697861902 7.569466856514962
Ti 6.277381304917238 8.827329509678242 11.438631455886748
Ti 5.465495469699482 11.095614909401723 7.079559409338697
Ti 3.7008642823784337 9.778367081656503 5.336975034889468
Ti 4.474596356303116 6.958201593510321 10.148264758958586
Ti 4.919835691074051 9.908447972096008 9.482115795815703
Ti 2.078925607007598 6.498270260031975 8.81089610050524
Ti 1.6158302877250412 8.434011657286748 6.9366935558304705
Ti 2.968048972257326 10.540753107379121 7.790845654285144
Ti 2.5143522834532734 8.801391067035997 9.559765909118893
