45
Energy = -300.62495179 eV
Ti 8.072677168139386 9.975260769632317 6.524601436997581
Ti 9.79449798195482 8.326943097481982 6.44211473295632
Ti 9.63613938919744 9.550845178360797 8.881574716702337
Ti 7.032064138070293 7.627232261574967 1.851034678341957
Ti 8.192675024096435 7.871253899862048 4.322393375898953
Ti 10.23821788988118 6.817943551641322 8.168671112906278
Ti 7.3446489819647836 10.818489289322361 8.808111101703535
Ti 9.038679221363584 5.897347173599933 2.4073650427988866
Ti 5.553891057035513 8.842443403508174 3.7659892109903237
Ti 10.028678590976604 5.8781648373621485 5.07251369504504
Ti 5.378103136229794 10.667378863277197 7.21086648595209
Ti 7.763473701909453 7.881140884257272 8.646702213718482
Ti 7.593646467176918 9.334657244720704 10.929588288336733
Ti 6.467417926307324 4.99576107364996 1.5496657751155467
Ti 9.514581758257822 7.458133777222724 10.631012622047045
Ti 6.083281430221753 7.987101308642745 6.1297230276064925
Ti 10.279751191896128 3.7064861623886025 3.74924628551212
Ti 7.952389420663809 6.038081299950629 6.714311835439974
Ti 4.564303894199297 6.983994455506782 1.979026689118267
Ti 6.076170956891342 6.303503624963581 3.9294510246398096
Ti 5.085489600213425 10.574143613786239 10.149491360394647
Ti 8.484357790937331 3.3145661708038983 1.9462168478961468
Ti 3.619966141888515 8.924027819058878 6.260753462681049
Ti 8.57405443770623 5.2899392859872885 9.350587368877132
Ti 3.0376760648602072 10.203072091863081 8.420957991577458
Ti 5.043677792009951 8.359811273861146 8.727824438112338
Ti 7.867306836748958 4.422338862765901 4.2775725834027405
Ti 8.512284497106261 1.8606047817951996 4.109502084802015
Ti 3.5087282334048258 6.851752686741072 4.399424916252292
Ti 7.030864350140191 6.556694716048348 11.024632878295204
Ti 6.005836510483923 5.41193777442929 8.728709295279042
Ti 9.16743157572153 3.5612309722734534 6.349278640267756
Ti 6.12469748492941 2.636792398658655 3.1032054071045696
Ti 5.6657183739307335 4.46714793120481 5.775827423317731
Ti 5.29854262957297 8.203933947218134 11.481063399588034
Ti 2.33284940152802 7.663619201399865 8.276625103599669
Ti 3.0910067936468386 8.715596626153197 10.50674445002836
Ti 4.119384932547926 4.482559864486557 3.0805220655314796
Ti 4.189049536499669 6.289313564464004 7.083448639652816
Ti 7.118084047707813 3.3217131278362406 7.945974797696975
Ti 6.5515020713305585 1.9214080878102142 5.815167059736933
Ti 3.908973769897415 6.245779937923348 10.019922897653416
Ti 2.947799792049297 4.532038723983893 5.54442207897403
Ti 4.431278793109598 3.3168497540751067 7.496325682880088
Ti 4.173333873436224 2.406149286285963 4.907020432411475
