44
Energy = -294.06351298 eV
Ti 7.130691157088542 7.748842361631024 10.874227962740205
Ti 9.209799121710185 6.005231295501253 10.604921796900815
Ti 6.870742156653272 4.965093394926142 9.911755794738497
Ti 9.326430773212705 3.949712809249545 8.870459955674262
Ti 4.663568457431578 6.482855157206426 10.055581765193244
Ti 4.477274449246524 3.8818262764852345 9.474965623903165
Ti 10.828423276169891 6.355261197468392 8.653875812691796
Ti 4.994099644794512 9.166777233573285 10.288163362327168
Ti 6.640764368503998 2.901732472901572 8.345177451978614
Ti 9.297102854603743 8.372553855152972 9.66993755895487
Ti 7.306604808210928 10.141916107886328 9.413405117541155
Ti 6.292451920655787 8.095354645891794 8.3111314909406
Ti 10.521617097325842 4.617921088563655 6.731442773923456
Ti 8.363742730091275 6.32962935788336 8.050242820079967
Ti 2.805628096415356 5.300287623582459 8.073870917811737
Ti 8.885740518524345 2.503528982360489 6.248878251250452
Ti 3.513792407517666 8.007041860319951 8.308291681635254
Ti 4.192704478439803 3.026213173327615 7.017890898485492
Ti 5.28931067081927 5.609268519364746 7.564248069344241
Ti 6.254277734005131 2.081686566146188 5.883467908687814
Ti 7.688449108529671 4.443849213084666 6.344105523144743
Ti 10.360284443543403 7.018443272124613 5.901158431082891
Ti 2.6843308301003077 4.457745618995959 5.582056949809725
Ti 4.942920372573184 10.558977499964698 8.084276822726052
Ti 8.89010471638979 8.838423063938846 7.1895578879995625
Ti 3.065938254842905 9.61939979042049 6.411687309303411
Ti 9.574044334069823 4.754950070427069 4.347136629237556
Ti 3.3737400398352158 7.0276708445539136 5.647242203010502
Ti 5.589380690742961 8.561896323196695 5.738376242594947
Ti 5.434250441516434 5.110304717446908 4.893737398636319
Ti 7.747292094862608 7.058073000982722 5.206103752523242
Ti 4.361185450160614 2.9027272397251096 4.135078116390493
Ti 7.200876103153215 10.707381331758866 6.512777691142569
Ti 7.21477032277106 3.1003474464597325 3.8007387333230773
Ti 8.89311385073998 9.428628423099433 4.553848506453095
Ti 4.872185102619815 11.164572007059496 5.506803433139948
Ti 9.706682855797341 7.185834284544094 3.349302142271521
Ti 3.2729401789189545 5.380171286478554 3.398368074465928
Ti 7.652589426936904 5.523293619745164 2.840345696328452
Ti 3.7523041605391003 9.25383077666186 4.0105985297265185
Ti 5.256703903994229 7.245052966176276 3.2766144973808156
Ti 6.385446976259075 10.123470168404172 3.757388280282342
Ti 5.357523087078917 4.56120751254489 2.2833047811366893
Ti 7.576462346467037 8.14930135664549 2.5957411669485917
