45
Energy = -299.00345454 eV
Ti 10.835296273966373 7.100652769020973 7.866797325261414
Ti 9.321513746461463 6.804451114332972 10.085456527150443
Ti 10.664484561086763 8.387664892376185 5.675955836845123
Ti 8.702028411815803 6.557424309542379 12.497717243119256
Ti 10.907554818631022 5.660196634228386 5.66980533108044
Ti 9.007405646737704 9.069991185874448 7.764458418730557
Ti 7.540862701656987 8.811617234436024 10.397560483543517
Ti 9.992370593335291 7.027004785893422 3.440334719692864
Ti 9.727589075764344 4.736847045864898 8.086340362488851
Ti 8.086647174768311 4.447749853693418 10.339220549860505
Ti 6.260434340228426 9.100864349386404 7.928737499096757
Ti 8.630523542762347 6.863429572394107 6.371595269313605
Ti 9.080100987673452 3.5017868347066843 5.810437572754128
Ti 7.4138448876848395 6.343434497876314 8.625966039899192
Ti 6.548748580938987 6.356551585204 11.085091088256558
Ti 7.384316344843894 3.0600251600175246 7.985480877629381
Ti 7.810461529180397 11.080043566051865 8.69742162879804
Ti 8.160546275921345 8.691529076415405 4.529253709046148
Ti 10.171822547174887 4.376818117660339 3.6092319355271796
Ti 4.783828481438181 8.408940891463777 10.66260780359254
Ti 8.845962165669187 5.225944281264474 1.7532137624391806
Ti 5.6804046514209645 10.740554850221566 10.074376522400968
Ti 7.446240773750374 7.457238949734316 2.1906698037462653
Ti 7.699711521574174 5.580751783724215 4.203122196138872
Ti 3.912850677362054 5.791470271473278 10.503357903877953
Ti 5.479126958189306 11.66260924993985 7.7079857717819555
Ti 4.890905050306604 6.847641088790253 8.250448362027026
Ti 7.847905871198325 3.160138892752456 3.229700609176046
Ti 5.4194378692583065 4.210692429090324 9.359203002708975
Ti 6.751565366328581 2.4747436069316335 5.521008592726021
Ti 6.328466434508857 5.030777324820009 6.616583254241387
Ti 7.201637979708303 10.671774282294924 6.023236067263569
Ti 3.6321077702353546 9.85287633996081 8.62616104414784
Ti 6.435921448195121 4.962729652053681 1.8536704146579943
Ti 2.5832504279108504 7.556357936304156 9.34138961736822
Ti 5.861418352147225 7.5755359909449735 5.45350215052269
Ti 5.737519736378624 9.329074015065913 3.469966827837672
Ti 2.9757548783423813 5.2540589182037944 8.009542206961434
Ti 5.2456137304890476 4.005962341922806 4.067498028663105
Ti 4.496794303049425 9.948135593118383 5.947607084191246
Ti 4.717356369428006 3.2224149756552762 6.918627708594705
Ti 2.901247389473684 7.896932055860497 6.732608756376461
Ti 4.995681118353642 6.638152000274182 2.9510879867279742
Ti 3.789783120388738 5.769815917500965 5.385690163167214
Ti 3.5443781572354713 8.209412200450833 4.179199561302961
