40
Energy = -265.43498007 eV
Ti 10.404639918940038 6.414773819946458 4.209935992844761
Ti 9.483319028478249 4.13347156072345 4.73890180102574
Ti 10.971579600606903 8.195152206325178 5.90319407509287
Ti 10.798019289053475 5.661993023755616 6.656755761116044
Ti 10.13073093594813 3.2522760678191065 7.2472156596129915
Ti 8.232602969384894 2.1378380264715537 6.075258488176067
Ti 9.283148020694115 8.642814644024927 3.927760662388417
Ti 9.633416308568876 5.185357182061446 9.018838175429902
Ti 7.863616172458558 5.992569727950811 3.5535758230315397
Ti 9.890560391847908 7.762624445691378 8.272809967868696
Ti 6.873027395272452 3.546623023752126 4.286294739431366
Ti 7.827476486665494 4.638876402852345 6.8199146247760645
Ti 8.3763014228597 7.272259043525142 6.026076618336375
Ti 9.186420729680297 9.879403317455463 6.51680874557442
Ti 8.259835877195965 7.3014537208224395 10.52496293791771
Ti 7.925669680938988 2.7818291964773096 8.644589162041157
Ti 5.825992435105648 2.734048623164156 6.828819570474896
Ti 7.490910048384999 10.273132250117234 4.676128813736173
Ti 5.869025271438549 6.049729201340058 10.95715513012072
Ti 6.730527424902802 6.656674213782191 8.467429892086912
Ti 7.785430414644184 4.699214545162977 10.400336930471807
Ti 7.932866859738188 9.414748308581338 8.839552023590791
Ti 6.470277599606335 8.057176973490867 4.015339275174137
Ti 5.779727262930032 8.503885839597709 10.268546058427946
Ti 5.630739349162625 5.992278380854129 5.738582097900448
Ti 5.111863708587274 5.611089613539684 3.1838118105199875
Ti 5.542070855547323 4.052411293265342 9.231695288012608
Ti 4.463059728508565 3.6177432313021782 4.850000976267306
Ti 4.994369645749414 10.68908983200707 4.869344579297055
Ti 5.726417971519701 8.962230834678811 6.802658690214782
Ti 6.859311514091924 11.469673475094329 6.7890877088545345
Ti 4.060642320699545 6.4759437844546355 9.24250059233504
Ti 4.080973529149526 8.031527020152295 4.4353642492829675
Ti 3.827377423158468 4.588192845868893 7.288619379552311
Ti 5.851624032991783 10.745443693848996 9.075921275249947
Ti 3.1364739044869876 7.205185484722747 6.9007473943608515
Ti 3.088672252484763 5.635767950281683 4.889939997460446
Ti 4.308683243229176 11.364775416752806 7.304200222724148
Ti 3.675616283097842 9.191210861808964 8.741659372248733
Ti 3.0159032279864473 9.578431452273438 6.178585972768736
