47
Energy = -313.22115693 eV
Ti 10.087361306698341 4.948335269576163 3.4599582858478017
Ti 8.34532953884997 3.170681850456652 3.3942801571286023
Ti 7.733445214766644 5.589146388057846 2.4865585798644116
Ti 9.848152001056269 3.2846634906024135 5.593650504615715
Ti 10.62985812576519 5.836342099003235 5.98733646053326
Ti 7.455982047582252 8.3993365668073 2.3695055050963014
Ti 9.514102950924613 7.4150909963399645 3.7971545420681703
Ti 7.130261484707294 2.336929190692361 5.496000775066196
Ti 5.908967466596957 3.8432456919978573 3.46468421835936
Ti 7.007855906782216 10.811467286337713 2.9604362566440083
Ti 5.434526952291228 6.623208202626366 3.3722075097855897
Ti 8.917437118618102 10.025513187778563 4.2320853869106125
Ti 8.068500846960509 5.320908093724682 5.155510687485992
Ti 10.102610462339346 4.21770990832684 8.156060876148862
Ti 8.965549769610718 1.8721784253878135 7.573278178500079
Ti 9.519907185924398 8.356229351037062 6.367007712213903
Ti 4.992488605181505 9.191705683719809 3.3672210253791066
Ti 5.492566605837564 5.171400578637643 5.595408967678834
Ti 9.14644449126205 8.986985138407126 8.775481486981588
Ti 8.257547984588957 10.895163238730708 6.993417041702955
Ti 6.603221490107072 1.5105077369436413 8.003941391140863
Ti 6.363128349124359 10.907160146844307 5.364432908409415
Ti 8.10470240460281 2.967530910952642 9.856842715665621
Ti 4.800128207987837 2.872573450003655 6.703420039199071
Ti 2.9773064862730925 7.784533975034542 4.112224830606911
Ti 7.837245902660562 6.724833735651319 7.793824937066672
Ti 7.114985481437818 8.206987896547854 4.992580791334453
Ti 4.669092545998645 7.70866091957269 6.160847840139152
Ti 7.3625544013764435 4.03437295555715 7.668851785674142
Ti 2.800778169780526 5.719218161490952 5.908202596156964
Ti 10.522933679755052 6.783891974011784 8.391785542247101
Ti 8.996935150184479 5.652276444046201 10.092536128769567
Ti 6.429597831715407 9.073749891672081 7.869136984159181
Ti 3.8146431205690585 10.125653007805957 5.576748988527908
Ti 5.215489977050678 3.2560969914056073 9.365726546255084
Ti 2.053503483064027 8.293586800153154 6.287645678264168
Ti 5.1681308594822255 5.817061064627137 8.051450382501832
Ti 7.61709873569798 10.873533884452971 9.527201703864785
Ti 3.0144011994762736 4.185614971519925 8.059170896133745
Ti 7.259180711559653 8.106817228477848 10.285720498991205
Ti 5.667128715284926 11.591864631685311 7.863778403571688
Ti 3.5666792951605326 9.571272843419212 8.185684017129912
Ti 6.558203213883204 5.306480245202317 10.266404357581607
Ti 2.595166510560895 6.828158958404499 8.349237455034555
Ti 5.347710476391682 10.215848657604333 10.073868784746843
Ti 3.762345088993803 5.3072303324212085 10.2423467371424
Ti 4.688618476917823 7.748047577684959 9.818948933114385
