45
Energy = -301.28388778 eV
Ti 11.073053050874508 4.6944899429634805 6.09272983858065
Ti 9.83617007061655 3.157820659537946 7.886188066019931
Ti 9.389653084350142 2.960407898240931 5.241446927670581
Ti 8.926547598745652 4.905983331095504 9.816149860355319
Ti 10.554318323202283 5.9891407455458525 8.325004148161748
Ti 7.184171975081325 3.14085710025387 9.03912528096532
Ti 9.594780680941993 5.167749205252163 3.8709213401792177
Ti 10.115592621941271 7.1674647078338785 5.897939203763008
Ti 6.982711566482856 2.706764982786243 6.415956965359035
Ti 8.889136601037254 7.635610375454553 10.38711790583898
Ti 8.468386232363068 4.9493556827023575 6.849421230715133
Ti 7.997890851082322 7.0849240609992625 8.303755999872003
Ti 9.957360341497239 9.770545843534427 5.257320745046096
Ti 6.634386502610675 5.755982010112264 10.627187708813118
Ti 7.245599969626607 3.7072414885972385 3.902275642997106
Ti 9.847719034610781 9.11857568988541 7.794612178813514
Ti 4.866319540619302 3.7478887838583357 10.158001855372877
Ti 8.980465086301207 7.9553189356337555 3.511642487711547
Ti 7.266035519216794 6.299114218608119 4.9370975652509586
Ti 5.75420910453591 5.084128802251375 8.13151678682969
Ti 4.6520425985603415 2.5054910725846855 7.634815041892838
Ti 7.572167513842745 5.93430898343912 2.3414747560581297
Ti 8.03893692756399 11.075326480318367 6.6136786313562705
Ti 5.174868369977176 5.157778199202017 3.064912923661759
Ti 4.548653319284932 2.704153219736531 4.675673495923596
Ti 5.071502555501283 4.712380283652882 5.779058521102411
Ti 5.89818608872469 8.331801712579507 10.07446338636732
Ti 7.77580765610503 10.294775485077546 3.9917453670890333
Ti 3.0260722359642047 4.376607183920455 8.602084878116342
Ti 7.691282528360844 8.670841709053041 6.138997451586061
Ti 7.794854352925956 9.762847671794376 9.005917376943794
Ti 6.264486046256344 8.222936336199483 3.1838213293848074
Ti 4.116177951284267 6.35961057622604 9.975882753705271
Ti 2.8979172861370386 5.2035850671628765 4.192881042801575
Ti 5.312461078796372 7.678202655204713 7.465237779794077
Ti 4.502838593095931 7.354441338280786 4.867173303928159
Ti 3.593547976520649 7.279190898826175 2.4221025657372133
Ti 2.6235607538232615 3.766596049675905 6.352203136084136
Ti 3.433159840317161 8.660447786522836 8.920278656312187
Ti 2.90626359522058 6.517651864153253 6.939885503898157
Ti 5.5454794322149175 10.156456590383435 5.304523439788232
Ti 5.509187530034064 10.240408698908515 7.980836268759275
Ti 3.7202374955034907 9.517796989878978 3.599069563385414
Ti 1.9681123885259553 7.714832413927018 4.522391717021107
Ti 3.2552445162019352 9.259722654626012 6.363035757467898
