46
Energy = -306.40224139 eV
Ti 11.365518549777896 4.9387466297136235 7.193831510872476
Ti 10.423827199367183 6.674273182630563 5.429872150702748
Ti 10.553808478592334 9.652571446919604 6.800407444918153
Ti 9.213696945970916 11.053850111245787 4.9734787992061875
Ti 10.483840158721744 8.966812143559572 4.021797486481454
Ti 9.94284336618677 4.841233095822848 9.594273046407167
Ti 10.705785321620228 7.278072330868394 8.180096376312973
Ti 9.818092576564252 2.9872071671035942 7.6633294145554816
Ti 9.808380856912509 4.0619126881730425 5.243304386713922
Ti 8.746585764990073 7.045313482496138 3.21630048951266
Ti 9.831058063622867 12.037229511987041 7.836953726196854
Ti 9.69919759616279 9.769100863832913 9.338412644048853
Ti 9.509771585941493 7.2187956379968 10.465757601845779
Ti 8.408201835964013 8.414742508126624 5.463161991108171
Ti 5.245420954111135 4.1710561346903825 9.884954377438463
Ti 7.910082944316148 10.770560016766614 7.118036787570574
Ti 8.155213194840494 9.598298492162801 3.048541182683298
Ti 8.749577298788447 5.492902614296274 7.248838109492926
Ti 6.131089710962659 8.060106108878546 3.6361705625308165
Ti 7.586135050509561 3.0412010450546245 6.446952126865766
Ti 7.536430330993499 3.376894279482481 9.041534790803908
Ti 7.92871465034311 8.258877029667115 8.22278926705248
Ti 7.857179824937151 5.200924725653392 11.380852840621635
Ti 6.383164722201117 10.33345958184616 4.967079298568148
Ti 5.875599072493606 7.705320742812105 6.585971887148093
Ti 7.488653073972633 8.449195361082097 10.87917430449487
Ti 7.127329499271081 10.592384897544516 9.520110446780633
Ti 7.436167772201921 5.6399192388762645 5.082548548415723
Ti 7.071213313881701 6.130530587319536 9.395728947389069
Ti 5.170380428722715 2.3801286910818016 7.608867121968801
Ti 5.681230293113884 4.909177869586132 7.324769521624479
Ti 5.292359344008941 10.147423786343753 7.4752437476671005
Ti 3.7062864812812784 6.21809097293134 8.971288312085246
Ti 5.631334903501647 5.629220841032342 3.3736743699460483
Ti 5.513993723413692 3.4075889268360497 4.909970621622013
Ti 3.2093070225572524 3.8954598799777855 8.349174296979712
Ti 5.365819985444064 8.447392032689233 9.308237301428703
Ti 3.8778643118224867 5.9781106679003555 5.519953901459967
Ti 3.566050021929268 4.220066598527784 3.4026910680967006
Ti 1.7245970588893416 5.567288223420701 7.0764137674918395
Ti 3.9549553679780245 8.743236745793523 4.981163675242864
Ti 2.9512263539988397 3.32078426103364 5.845267350501398
Ti 3.1986622342723616 8.045917999733273 7.3517228029664246
Ti 3.138048036187171 6.829543126542049 3.10221037041857
Ti 1.5149876809006237 5.126616618244617 4.460097977653991
Ti 1.6739833941137894 7.5265424704228066 5.22246699659087
