48
Energy = -321.81843287 eV
Ti 6.5017732590713715 1.197628551999068 6.600337538122467
Ti 8.866501921042564 2.8013516352845094 5.4144170027005805
Ti 6.844920864439734 2.2839667901889666 4.161942316609629
Ti 8.646447497479159 2.134270143813324 8.01238203048841
Ti 8.181535038460892 4.19981679420059 2.7420582248429244
Ti 6.32261075005139 2.076517858977917 9.142454624682932
Ti 4.062666855053365 2.359620583471262 7.758957581401573
Ti 4.467070061470724 2.833610284796329 5.120580753202618
Ti 6.758536584916849 3.6081810379536616 7.014337254926364
Ti 9.33140625885831 4.7122649180981675 7.366543147579972
Ti 9.862963142325281 5.480533763769712 4.810031178528678
Ti 5.483798877166818 3.739419022533022 2.8143280196718674
Ti 5.146282310465072 4.173712721736091 9.840257855792661
Ti 7.13814373481982 5.031198858599762 4.8150950949624916
Ti 8.031255291652329 4.129708631074146 9.726603483864027
Ti 10.033517409497788 8.241005444266882 4.500472744873481
Ti 8.25469838283215 7.005682581906306 3.2220388893250194
Ti 6.816574193655237 6.0106108724217835 8.352056879784271
Ti 6.6286129862367185 6.325684619030854 10.867462636585216
Ti 3.118273285003612 5.016266097823772 3.1848146926196694
Ti 2.545037755961368 4.4626710824365485 8.886547271799145
Ti 2.3080651030232606 4.259346232070606 6.020475804073794
Ti 4.432943458095537 4.842649587908767 7.320219511849384
Ti 5.830562353442605 6.134914426539969 2.4285292339839044
Ti 8.311093594999905 7.03040847096677 6.252381092901762
Ti 8.950103915790313 6.991481788713711 9.266062527823312
Ti 5.069835780894273 7.560090158100416 6.954087682880538
Ti 6.25444020747536 7.984836156861436 4.700176526405326
Ti 4.148349724419543 6.682033284422701 9.536189490899458
Ti 4.501010909563131 5.737100074154424 4.88205766776507
Ti 6.443923903260004 8.904254698837262 2.3311415696576314
Ti 2.4180626245481913 6.767277639380822 7.431832274793339
Ti 10.788074535182774 7.43327504738988 6.893193555121452
Ti 2.044833990304754 6.7718581241479345 4.938658334976434
Ti 10.569731180629226 9.081188082385527 8.815703047382046
Ti 3.9182838294037245 7.879959288961548 3.187908157736347
Ti 8.106219189508135 9.230690051376211 7.555490290381739
Ti 6.173697183146364 8.499720881592147 9.326858560654241
Ti 7.89731945398983 9.910380994607774 4.609510980478255
Ti 5.696326154688192 10.205186705516514 6.640084316041
Ti 10.263970942062585 10.107041869398195 6.302577917368572
Ti 3.6938148373006783 9.181472766044589 8.301531905813546
Ti 5.161077081838508 10.271013206109442 4.052747170281677
Ti 8.46902125398057 9.53362236353417 10.254013358005093
Ti 3.282921207770165 8.986400526906962 5.591541410704175
Ti 9.458420089579365 11.328500616086506 8.60069428325084
Ti 6.840991192682167 11.146387604106193 8.900406489341954
Ti 7.9311123809450015 11.722019598482735 6.559040156050307
