45
Energy = -298.08393413 eV
Ti 4.618861715753122 2.9922996283000622 7.142640870795746
Ti 6.339323813475782 3.4364784880630093 5.1692487960810976
Ti 5.701270325326616 3.385228743625927 9.490366385490395
Ti 7.088722416364711 2.3739154409605834 7.378102764585117
Ti 4.046666329645645 5.01994512628094 5.575904160814695
Ti 5.664021431456162 5.075214257734866 3.540703672754319
Ti 8.248317271095964 5.399924059187462 4.159665520234953
Ti 6.674229720006636 6.9525955475072605 2.6053436487476125
Ti 3.868909786419434 5.239334703200736 8.372533224982622
Ti 4.2874790574102155 7.3337808029539495 3.8515335208625
Ti 6.33082401820795 7.043265844766417 5.354157646321455
Ti 4.041465540804414 7.422679929426808 6.705955794524045
Ti 7.890702579601558 4.212665115295088 11.357131905155942
Ti 8.999322160263036 8.032286178638168 2.8418489058205165
Ti 8.405159085905478 8.736343918646272 5.247833940319533
Ti 9.033754766595138 4.339829349618992 6.737143929619914
Ti 7.781612299818834 5.968469830000683 9.609087516212357
Ti 3.7411937470722956 8.041232122106003 9.541862444792086
Ti 6.3890311825806565 4.990459262156176 7.320305481713569
Ti 4.534794405484672 9.8913849800937 5.1769126163223556
Ti 6.345346148909662 9.31645011800911 3.263464938462459
Ti 5.233691083744447 11.726102434465416 7.3406002947196125
Ti 8.378850146286222 3.1488333007438185 9.0788691148046
Ti 10.74716808267732 9.497973695103983 4.408399930526044
Ti 8.769500752103692 6.952779247572967 7.376091697656829
Ti 6.128477095382921 7.5334504042501145 8.541186146676889
Ti 10.378936617342651 6.8331561813449655 5.08431947141627
Ti 6.710538334365778 11.348499663123896 4.791921333976226
Ti 5.573226314672118 8.308898970138168 11.227793218366283
Ti 9.074491387373143 11.147401476533148 6.063283572359257
Ti 4.021845430745368 10.80146296321405 9.983443557557061
Ti 5.116539473758304 5.770854536852597 10.613443707534241
Ti 10.166921416665096 4.822153172694848 9.558478020378168
Ti 12.713794532699193 7.771383788564153 5.752327595248225
Ti 3.719661955937764 9.750072073479064 7.647673978708576
Ti 8.692817182281477 10.635098095450383 3.3776138360757266
Ti 7.147103376323899 6.557977034729957 12.19933011256873
Ti 6.116198959006184 10.054723052243881 9.32917283513313
Ti 6.5679442299030235 9.610906773492314 6.829833234628554
Ti 10.667444181340281 8.824716935266807 6.971978976560893
Ti 8.760325514727612 9.54941961681701 8.460794533247473
Ti 11.318963510710649 6.105515404176407 7.417482991406601
Ti 10.505160973396746 7.558910313676899 9.509795027085081
Ti 9.554863064053048 6.3323394828586155 11.598613652193318
Ti 8.292244588344845 8.554492174810509 10.75627295133348
