49
Energy = -327.9550201 eV
Ti 11.220300976871034 6.878697147600092 7.898953747092009
Ti 11.040404546984794 6.198849865082391 5.495540039037955
Ti 10.509542241569214 8.816469462873009 6.410564997629146
Ti 10.594509440466885 4.4195805993626145 7.707969951157111
Ti 9.665104345125416 8.084372402192445 3.6996788769304554
Ti 10.094547998513695 3.9355008890865175 5.17376805157832
Ti 9.64705775556057 10.554919244408845 4.727673892889302
Ti 9.762425389190248 8.837254419667108 9.001654736473467
Ti 9.39617923125143 6.1548331189336505 9.568313609414464
Ti 8.755220330711659 2.5475847391425424 6.797083550901033
Ti 8.753340684969828 6.121410598363558 6.81987253967631
Ti 8.590946012485167 5.617624045723048 3.9925018891910677
Ti 8.81456276845179 10.748836073164021 7.279567385627721
Ti 8.246039159371684 3.746756924191869 9.192942463925428
Ti 7.808885911215776 8.829436436968379 5.507147489253753
Ti 8.140908779181975 2.7114940113435853 4.079258817522453
Ti 7.918582200360289 10.007835384530072 3.036832724747112
Ti 6.731348167277667 1.2864878142139091 5.7229868306355005
Ti 7.769891669123139 10.432040283775299 9.715355678836573
Ti 7.814487234424402 8.064227713984833 10.880848433339194
Ti 7.484298559318673 5.4462064615896315 10.975915745745684
Ti 7.2404697943691225 8.20085172622493 8.273132664926349
Ti 6.26754277059159 5.586556544545623 8.404999964289422
Ti 7.015600574197983 11.340812879346228 5.115573540287271
Ti 5.546937809355179 4.005052863398893 10.361795171783214
Ti 5.199629677265699 8.660466623729029 6.456454932223872
Ti 6.4545166427264205 6.638501070386541 5.167984954362713
Ti 6.606271073765468 4.025161195165232 5.861581428928434
Ti 6.302992572629869 2.3135251014787666 8.105628517353544
Ti 5.435205302187956 9.487696440442024 3.700262976406115
Ti 6.2540285676144 4.8590394572352125 3.0974178106138552
Ti 5.3510108125683065 6.80443697325141 10.858537112206697
Ti 7.120058036282299 7.594487065276049 2.7421907715254035
Ti 5.580624414560764 2.4501576259665656 3.8095754412179033
Ti 6.077439198698078 10.85350966360228 7.721854465875371
Ti 4.1283141367195055 7.854643367697208 8.795031314014972
Ti 4.313051711756304 5.9483933391433546 6.410340289212029
Ti 4.3098703656973765 2.4207023130241674 6.067116399672833
Ti 5.541408038433725 9.493927821937822 10.05436250936339
Ti 4.321803920694121 7.017026519204733 3.4389403008346555
Ti 3.449247029741797 5.583420568772268 9.212738025112412
Ti 4.392760096547304 11.026865984034952 5.57042083319748
Ti 4.077306684092864 3.490795890151631 8.296008850461888
Ti 2.173271189916957 7.419946539068829 7.176960448346052
Ti 2.945714106699629 8.839293740007008 5.047431551351422
Ti 3.2714235306421675 10.029068437283883 7.561547400938261
Ti 3.91629123338668 4.415581420490859 4.161690167064297
Ti 2.301904591999779 4.457365746307286 6.607830695927371
Ti 2.2067602359547482 6.302332968152038 4.798197532421002
