48
Energy = -321.53356599 eV
Ti 8.763464866097033 10.33873351168878 3.8300813421675803
Ti 8.551267561736903 8.808301197445628 1.4029834952295626
Ti 9.719914428353286 7.595682531683886 3.253314447252303
Ti 9.74691848954422 8.473618256999881 5.583985467567107
Ti 6.801864858088588 10.595703962793236 1.8509939961125632
Ti 9.564476371478673 9.84582112317107 7.856290137874347
Ti 11.019435693788711 7.667705466430218 7.84711220932172
Ti 7.342414163995351 9.59566914764858 6.238618753819505
Ti 10.18768411381399 5.716848771870272 6.0801004696658465
Ti 6.0713161005772145 11.034468664773971 4.301847436842945
Ti 6.053045523616936 8.156037146256631 1.072678904783903
Ti 6.9215545785855355 8.609690002968573 3.567722584672792
Ti 7.79263531910751 6.300373848929069 2.168772004607007
Ti 9.47806968037969 8.157527350126546 9.947547492306532
Ti 7.8750770450589895 6.534907688838215 4.844316353771191
Ti 7.391040224948575 9.841156908290877 9.300163819601272
Ti 8.40756377294651 7.454732585363765 7.666667010508117
Ti 4.543410020326502 9.485515253966076 2.6183682811956484
Ti 9.883463218974633 5.283765335330162 8.691211971666169
Ti 5.287084343783909 9.863056339083323 7.69184969668266
Ti 8.824099537838801 3.9907711334848655 4.528462860493009
Ti 9.552763114936958 3.195389541498743 6.889040614202832
Ti 5.394630942528828 7.165878909057341 6.293095689970994
Ti 7.2363700967299875 7.982513848014524 11.09402889440627
Ti 7.971567876657007 5.551926114193895 10.178501442373783
Ti 6.557662296709082 4.215026870748718 3.942049328726482
Ti 5.156943255910548 6.791452031225304 3.4516408935007385
Ti 7.673464062401213 4.971244807488842 6.837442345229166
Ti 4.500191286004566 9.034124564874642 5.147757873960797
Ti 5.9637590636640505 7.362152116412884 8.783764501604423
Ti 6.82597170716398 2.516573694038575 6.342347715704694
Ti 4.828168374123436 8.89410797065293 10.28850855704429
Ti 7.954846470710477 2.953402609259616 8.903315472147904
Ti 4.7676798736112165 4.535801198690484 5.960269871884815
Ti 3.94594516829485 4.467785208544211 3.2685555282937546
Ti 3.380862373318879 8.488190528560796 7.93017670011585
Ti 6.459139077254421 3.4988524899588027 10.92332984199143
Ti 5.4729329389477614 6.0225393790111434 11.089140531204434
Ti 5.571700858244161 4.624835028294113 8.647810529787987
Ti 3.0274974478362306 6.463469061362975 4.749837506002559
Ti 4.713823905692761 2.3603275956884033 4.457298268006832
Ti 2.6990669695589204 6.063503687541953 7.107274928134475
Ti 5.301801527945657 2.0962899518324716 8.94634852793313
Ti 3.4387404624417766 6.2612401286955075 9.508889988173895
Ti 4.0058550243582465 1.9885361127520043 6.706141046948852
Ti 2.455271859155382 3.707638642552855 5.3474625883807985
Ti 3.9781591032747388 3.782006455471863 10.608511362292507
Ti 2.946474212189174 3.662194489138312 8.261459978539422
