43
Energy = -286.77905161 eV
Ti 7.996627406952056 3.7164121045873975 11.170508346590072
Ti 9.90786497210059 5.106197694795727 10.177355204577024
Ti 9.532434620973023 2.672075111968373 9.355949005734233
Ti 7.633491061425721 6.3714903436788415 10.657385652663457
Ti 5.631422762571591 4.704323105106753 10.489935947009629
Ti 10.317516719416563 4.543952494072072 7.559792735410422
Ti 6.870362264816201 2.1336681856411936 9.18646531407834
Ti 7.684866364129543 4.459419038301635 8.616698271855883
Ti 9.185116139733873 7.0954475561045705 8.51063071613753
Ti 4.768853442837746 7.905515215797644 10.16056120330932
Ti 8.66092417940504 2.560551654127281 6.929456686399734
Ti 3.4148508689742743 6.185612234010847 9.016855971416192
Ti 8.001534827588705 5.0375463135624425 6.106708264739451
Ti 4.6672926492007685 3.746035358589972 8.436251344969541
Ti 10.210388024687633 6.905161911414518 6.259477608146646
Ti 6.002181867922398 6.368921815540901 8.42485234009852
Ti 10.079825804624544 5.205013097338412 4.429776176373903
Ti 6.295081532524717 2.8994245242851195 6.589808645139002
Ti 7.112617323846567 8.849820627008546 8.928577846955962
Ti 5.104458543432952 5.14958015923089 6.227783153179119
Ti 7.3849366272648735 7.790834516847224 6.3735440710388005
Ti 9.069567237689826 9.36979601542492 6.604193382893808
Ti 4.876791845937011 10.35542432243095 9.223404483217864
Ti 2.5853330553429528 8.968538875587933 8.820726923417082
Ti 4.616226533802166 8.361022975796478 7.4516217956074255
Ti 8.136769633798458 3.675010516279761 3.6709744351235742
Ti 9.246588264880083 5.807755128188926 2.168440085038872
Ti 7.3257244713759295 6.166303009154589 3.9142060652694743
Ti 3.367087843839546 5.339108344493972 4.1937141437273215
Ti 9.39086830153538 7.909198910348767 3.9787805094780415
Ti 5.11466707608774 7.415853517358948 4.829367905729581
Ti 5.508878119888025 4.1398330708045314 3.6012768104697597
Ti 2.3092509789272015 9.080324378357263 6.047756780052978
Ti 2.762008817012566 6.536200256157697 6.3293351779612514
Ti 6.342878905071278 10.388429257854016 6.80789206262239
Ti 6.937162170444116 5.002887816101888 1.607601160095775
Ti 3.608924854787667 10.85246470742488 7.195458047858366
Ti 7.15979115806821 9.513960427478743 4.120901934532664
Ti 7.350491322294751 7.788962450289715 1.950094675334521
Ti 2.904478519997271 7.963766702610181 3.7882818257908286
Ti 4.813284961493123 6.384263737138759 2.1754684224697285
Ti 4.523594737105234 10.125831980097525 4.8142123892408755
Ti 5.087176437324681 8.948253789742914 2.5981097293800524
