40
Energy = -263.03851295 eV
Ti 11.773657961616415 7.8872154612490055 6.742136525266272
Ti 10.965938737164665 6.752421281146812 8.754571545348606
Ti 10.757783691141816 5.478367695447322 6.431689451191149
Ti 10.391054247169068 9.712946763730427 5.959019583218195
Ti 10.296208668082226 9.277126061044365 8.544800445973689
Ti 10.322417792134509 7.450255673149543 4.556603981294388
Ti 9.128462068344154 5.040018827484376 8.586299860721399
Ti 8.823502100916627 3.209165453887737 6.886684805868715
Ti 8.967515290761924 7.479183373578894 6.934039025081793
Ti 8.716930360622232 7.532778300968345 9.887660480329517
Ti 8.543084923414163 5.3499800781428295 4.902311171251371
Ti 6.7137871511397655 3.1900753688660086 8.751610990628452
Ti 8.353400686852646 9.308474674162335 4.547217100428832
Ti 7.554815258634521 9.982717129458086 9.85041785463961
Ti 7.858896119235535 7.196639989854174 2.8539366629646885
Ti 8.178962290572667 10.308914942564723 7.212110475332245
Ti 7.236924011026207 0.9825586667096471 7.483884864093061
Ti 6.601358756423977 5.8041792225401005 9.460767062352174
Ti 6.7881541703962425 5.082995343115773 6.831767004951145
Ti 6.79234959459385 2.6855967106875216 5.582303638089054
Ti 5.043051726636022 4.919903575308056 11.040732435754958
Ti 4.951160256692724 1.958509550181431 7.337527754559837
Ti 6.522373528003749 7.3295135714893735 5.025094276959888
Ti 6.326050727565749 8.273192105013045 8.201884986339083
Ti 6.235895919901466 7.85184369792683 10.951158671860272
Ti 6.083697948809788 9.21850761685564 2.9950167121870104
Ti 6.068469670489903 4.9126846626173455 3.8534193171843847
Ti 5.80823244079266 9.91835111255593 5.802660585626176
Ti 5.346283487342278 6.859076960199241 2.341147400739896
Ti 5.79919065430287 10.958801795373704 8.13290176175829
Ti 2.5033998684282253 6.3791710860627155 6.825954406242754
Ti 4.377559409533408 4.571039728402991 8.399880373511213
Ti 4.663714867032681 6.7542778665077945 6.673703435160236
Ti 4.841838425171009 9.680493692103997 10.054301819909353
Ti 4.4142869117806045 4.102243522306475 5.762025025540253
Ti 4.102063923719759 7.102238237059716 9.401768545588352
Ti 3.939922950375328 8.545199340663185 4.801071620392499
Ti 3.6335941018659135 5.9857960894651745 4.076460675089172
Ti 3.803610039009517 9.2204134191162 7.652357181682201
Ti 3.448471336289309 8.353502519110327 2.541321286611796
