46
Energy = -307.76689007 eV
Ti 10.069927148501584 9.886740248453687 3.0840158724524054
Ti 10.42749103790769 7.394576529858346 3.782548219725875
Ti 8.345798286865472 8.070972907386631 2.188298692469095
Ti 10.68903490422131 9.52317335295642 5.678774825519787
Ti 8.923066922448298 11.466319691488303 4.81490330813716
Ti 7.504336860254492 10.455309767130608 2.83112923205482
Ti 10.753920046053127 6.769536657792496 6.307185945375059
Ti 8.08147603958659 6.195950865403417 4.0683171223951495
Ti 8.201914619823725 3.6573633944608064 3.1569206937569354
Ti 9.718087315029196 4.294711791031982 4.921822869220787
Ti 8.295851018915094 8.876450220757661 4.813697937557223
Ti 5.961393080762774 5.303188427361105 2.913229881110487
Ti 8.20424182251341 6.922594635523186 6.676193649309074
Ti 6.336293560462135 10.75127131473671 5.178470429409364
Ti 8.276735602530369 10.496948859137742 7.083442828671753
Ti 5.950689630301452 2.6063732416613696 3.5991104537604164
Ti 5.921331884497975 8.319772025842502 3.574946429149934
Ti 9.869352484815728 8.651377808815328 7.976305356416172
Ti 7.9698006910444725 2.0727440757844877 5.375784143774844
Ti 5.535312237701539 6.509250331036089 5.387546083664059
Ti 9.500893051623597 6.201671589968054 8.904196330803114
Ti 6.779509927246401 4.237144618151261 5.552325650411484
Ti 6.180775743281588 8.817388682555604 6.902241125483161
Ti 8.889835901274516 4.259465099369351 7.2183789721579865
Ti 3.7031900164454985 8.551614717120477 5.477901414187616
Ti 4.002786081764335 4.095302982148652 4.389591141463121
Ti 3.6551521912264553 6.622997869464557 3.543423207174323
Ti 7.636293482649266 8.105686118893049 9.373902275406044
Ti 4.996391448521503 2.1733822832259215 6.118163583726814
Ti 4.414191358427352 7.12395111123011 7.962451882531938
Ti 6.813662400699177 5.697367099997664 8.608296328987818
Ti 8.450128615636851 3.789856564880818 9.67919707824741
Ti 4.67986184309329 4.4818042853172795 7.473707351983788
Ti 5.288396166649223 9.217880966084365 9.538925175922827
Ti 7.814684268084542 5.867072333377883 11.042674661246256
Ti 3.6519478402299614 9.656501406284743 7.838258704803975
Ti 2.468420573325024 5.979185278519623 5.735288579029617
Ti 6.6990053934727785 2.6435973564043933 8.06381287900133
Ti 2.526396058119345 3.4366739736450995 6.429766069110989
Ti 1.8507316188724883 7.829721745657076 7.336199202085303
Ti 5.451021426614487 6.873434666953204 10.825227806471807
Ti 5.919387962127264 3.9388100696883352 10.429105757056815
Ti 3.8303386955151697 2.7795772515632144 8.790909863293502
Ti 2.8981090618664465 7.862036322937665 9.79576538325618
Ti 2.158130072998411 5.3151639355756135 8.38967657151999
Ti 3.7075932033854015 5.220975121754862 10.170858628093656
