44
Energy = -292.79676141 eV
Ti 2.452873132841447 6.997843893860666 8.967061648056427
Ti 2.444290355355646 4.584177168989236 8.225420252357504
Ti 1.8130391136833681 6.7523777931458575 6.498023201444973
Ti 4.064536874058929 8.29510140000187 10.487208439007217
Ti 2.4763915719564693 4.451768878750918 5.514467857964287
Ti 3.5930954243777795 9.028719796325127 7.694658662962938
Ti 5.264427154534159 3.450369000743912 8.878498230694534
Ti 4.24421110826136 5.5686079610284915 10.198502121724626
Ti 6.11328815167501 6.831795412254424 11.513732907417062
Ti 3.572536012732146 8.56600725090687 5.3122138611699725
Ti 7.053034119269811 4.8959555659211516 10.1535329897197
Ti 5.40878651406525 10.200237537111855 8.791688088693872
Ti 3.9266608606166225 3.0404968898231166 6.779389693473738
Ti 4.243147106501426 6.036562102816997 6.922696313679902
Ti 3.5869077577131003 6.463756627434765 4.1502923352018986
Ti 5.316791915100857 10.64950914906701 5.72196723843165
Ti 6.494341413742801 9.145348918166194 10.966270125535031
Ti 5.235031120153778 4.180665704514437 4.739605482680414
Ti 5.956477071189757 7.436644605099694 8.867601432606945
Ti 6.258665557951421 2.4556850925647153 6.628215463314368
Ti 6.8734628005712395 5.107950926291571 7.29251601908718
Ti 6.050531554738992 6.583782269853946 4.985808074077791
Ti 7.88755374812146 9.574460210991456 8.880045754044202
Ti 8.04707610252938 3.0403081840776633 8.25389926583563
Ti 9.924374975306447 4.630868842950864 6.6131294792158695
Ti 5.849315135697763 6.099931950518381 2.3226016787109036
Ti 6.223003153686039 8.692688925804001 6.505744953563195
Ti 5.458027970159136 8.688474706495807 3.526158643430564
Ti 8.492718308799553 7.373935803070946 10.016905541606073
Ti 8.592241893585852 7.4737071383586935 7.125604342148547
Ti 9.404420292619779 5.19151135330043 8.984761929132304
Ti 8.476183614353932 6.3976418264641595 4.508500724552906
Ti 7.61237623560323 8.087141827637225 2.2879329529861807
Ti 7.422318884758768 4.134978218331078 3.020420993798369
Ti 8.087080626551638 3.7270677408319806 5.315657683040534
Ti 10.355571693280385 9.067572445186526 8.314709497869597
Ti 8.086412334437883 9.24250804574835 4.469475351909552
Ti 8.579119851612335 10.260490996249711 6.646363610642626
Ti 8.49445143398328 5.9248076268764045 1.6649449154528113
Ti 11.127788006100365 6.773826392231883 7.582736295181103
Ti 11.230260626782298 6.368007404475232 5.098813093069165
Ti 10.029287995601287 4.691002283327264 3.4679447201474876
Ti 10.134272585983362 7.617416208643525 3.002841125152073
Ti 10.594557551425906 8.75447697184559 5.641321913325672
