43
Energy = -285.57244397 eV
Ti 9.751699698421428 10.85133878698963 11.425456411655892
Ti 8.465075308137106 11.6170203813061 9.147505826424274
Ti 7.141373650449395 10.532077674655927 11.099091413812689
Ti 8.170087076842256 8.502337288814452 12.140794825832307
Ti 9.323289631945668 11.674781351734898 6.482940745868894
Ti 9.512146003579094 8.83591187202658 9.974702417342007
Ti 10.767617406739372 10.58466155971922 8.390141883311724
Ti 5.81885987302359 10.84765144435228 8.630549503018026
Ti 7.752285377926696 6.076384756024265 10.921245122290026
Ti 6.8287376060776666 8.458715572264486 9.64678759910056
Ti 8.482405261833735 9.509556595340737 7.514204676568545
Ti 5.574802396960152 7.084857259055841 11.526682513363243
Ti 8.528588034411284 6.820616420033033 8.251280390586318
Ti 6.644175728814615 11.340601380816308 6.3401965759675045
Ti 11.221928031416105 7.800109762375298 8.03873281668406
Ti 4.217241635773253 8.94721349183733 9.17803292271783
Ti 10.321487106713144 6.095418180048881 9.937928637186143
Ti 5.498360111804579 4.449030281318727 10.41082455646099
Ti 5.954521483674226 8.664432001922297 6.938731263874964
Ti 5.910035304655298 6.134357451083415 8.616864560592827
Ti 3.6706437303012547 6.514976432209763 10.02268408250964
Ti 3.9780019223611527 9.988100103597313 6.531202170359294
Ti 10.679399178705786 9.428441340806966 5.793738194498297
Ti 9.073979505617855 7.1324820096566715 5.699400607360191
Ti 8.33115197478839 9.81899611663704 4.697008261369176
Ti 3.7248854325020027 4.637318234750439 8.42215607186483
Ti 8.205879560659298 4.254639189039258 9.27335356987342
Ti 5.747726552746526 9.792946545753852 4.464705383409576
Ti 11.75819785374164 6.9675727934024785 5.662228211759613
Ti 3.462035585575711 7.216228552079947 7.377097791906114
Ti 10.821771615479953 5.203700834071916 7.376492308502917
Ti 6.400338640970422 6.308213722435043 5.766824824011764
Ti 4.244104445133796 7.671664191124002 4.751935143847007
Ti 6.047033849769557 3.5718685452761614 7.565853705614101
Ti 9.898165783477223 7.46628697204372 3.595119059337995
Ti 6.877021816354039 7.669378487103356 3.4855896382731637
Ti 10.520820600102995 4.956263996822336 4.693485027244711
Ti 4.11407719776442 5.03246315034845 5.880795247597101
Ti 8.287452374404342 4.733603271395105 6.560103225431963
Ti 5.380220592488684 5.543185213765907 3.521952877630795
Ti 8.085104106876715 5.06980551039475 3.7937523661151453
Ti 6.231943897101217 3.6113723373995317 4.972324038675575
Ti 8.831866807529723 2.8399586918156974 5.736043283798243
