46
Energy = -307.85632791 eV
Ti 10.13811638130808 8.349416887374757 3.2605252147309662
Ti 9.787813637380312 9.459906198816245 5.763457089889607
Ti 11.059588001411615 6.9463463251211195 5.384754546469591
Ti 8.05989741334816 9.87882257392054 3.6833167344152975
Ti 9.56126050702908 5.675341200129526 2.880524499983873
Ti 11.01030952707239 4.458251851717352 4.590788977308464
Ti 7.6800203845848465 11.243180951523643 5.9556843102864665
Ti 9.231591478725665 7.368527691981495 7.604977516385707
Ti 7.816609612833149 7.5664303648238915 2.379673045455708
Ti 10.904142484328887 4.865528716423896 7.2127408816331045
Ti 6.991321417324139 8.82575689229846 5.928702657862838
Ti 8.29634824630957 9.691208192208588 8.098794382371194
Ti 8.793983027162719 2.9127250847753583 3.796806863612669
Ti 8.524570947155556 7.050462177648569 4.935506383653238
Ti 9.972308832273132 5.6106279109541 9.552309641258212
Ti 6.9787986022142805 5.172484484146248 3.3036559916417287
Ti 5.327891090518437 10.381053605192989 4.5801366224178155
Ti 10.314521325331699 2.5961630545091348 6.078064426887324
Ti 7.760102315769622 6.939755207992521 10.059489579308496
Ti 5.658028956910548 10.261689984574401 7.624276079506315
Ti 7.738786330414671 5.122424214671806 8.114271532233325
Ti 5.574717132960167 7.964677119066413 3.7134195295583914
Ti 8.51118069940805 4.545728045851071 5.620829983189293
Ti 6.2982593601354795 7.667708587538331 8.185193571552563
Ti 3.421023901189535 10.780855701463084 6.170293985985023
Ti 9.475688810879284 3.07332701379007 8.592158683238184
Ti 6.03270156482766 5.934709046384762 5.75826674870984
Ti 8.043406322308378 4.310295303609468 10.599943921602563
Ti 4.170490641630523 8.2141306810195 6.221763521292824
Ti 2.852109797981947 8.843793939304588 4.131510608412046
Ti 7.829177099427323 2.052720513548364 6.51271571836823
Ti 3.145474929865512 9.544875786156414 8.450363892039398
Ti 3.8355232637859413 6.241343369209146 4.11945700738471
Ti 6.199354747302193 3.2388790180917506 4.709808393461637
Ti 5.531062879329818 5.1739735122035135 9.609823454524712
Ti 6.807924709450113 2.703831620034916 9.090110908153449
Ti 5.638632923296256 3.5446755492801407 7.051764369739295
Ti 1.5377777392618397 9.124854627180442 6.447347579731641
Ti 4.132478137009837 7.607568120855233 9.851218598512903
Ti 3.8955049798990196 6.017236731150785 7.6715532758081
Ti 1.7283491873100083 6.649007146751305 5.645365073146725
Ti 3.3355663997308636 4.298494833814199 5.733937805205604
Ti 1.6861293859686737 7.398126716721352 8.440815073033807
Ti 3.505490298172637 3.4515770103249146 8.360415399870687
Ti 2.7183698478390106 5.370941136009073 9.912575099691091
Ti 1.4923200766815745 4.875290654894419 7.615616175533706
