47
Energy = -314.41507889 eV
Ti 11.722574616790034 7.938096022704669 7.988315182020555
Ti 6.868138223019397 5.680612614824877 11.86904468260871
Ti 11.547102916753747 5.250478981809493 7.761768831627913
Ti 10.890718550170403 6.527015580687394 10.020686344147158
Ti 8.995703615691026 5.086565180899852 10.903751139820017
Ti 9.866093632235904 3.8960287268958504 8.91887908876614
Ti 11.221614300489591 10.493800470788825 7.847697513705772
Ti 10.8493955107362 9.350072856480496 10.307479395910025
Ti 8.919743074360548 7.592963410626314 11.587407125808312
Ti 4.7935937303041385 5.6634067438723585 10.249901830744372
Ti 10.635862183719283 6.590784081235011 5.647743282793066
Ti 7.398889375885718 2.699557192865575 7.207225042325952
Ti 9.587665958755434 4.206859462967869 6.235849962803153
Ti 9.028160953828541 6.259130335042529 7.970053746553554
Ti 7.072764260986179 7.151927355988966 9.691192586483536
Ti 5.958287676112255 8.044300293164406 11.751645970770573
Ti 5.388557472023023 3.046303553358323 5.348727155325083
Ti 9.18118215026448 8.959754258957771 8.482688668931692
Ti 10.124944479991608 9.077107434796632 5.844682762343473
Ti 7.0389836055798725 4.433625401213393 9.237306583709778
Ti 7.981000701073446 9.926206310887578 10.820419718399258
Ti 9.515333510381375 11.49444522483845 9.309713426957995
Ti 8.888855332202683 5.366308729173093 3.7320335804609637
Ti 4.878598635637459 3.814543933313044 7.823011320066616
Ti 7.809059961646286 3.037701581045991 4.692712679569604
Ti 6.848794284748499 5.068172899900809 6.208833055123424
Ti 8.017465868707317 7.361435608702007 5.464014188023341
Ti 2.9816122325323886 5.644956425692587 8.176296826344396
Ti 6.893678375559809 8.93880152521959 7.302379344815451
Ti 9.575423336905844 7.908611756979001 3.4607408139213502
Ti 3.884599543728951 7.89489000624935 9.553394936053422
Ti 5.3139619427767935 6.637767324017844 7.721710445579187
Ti 5.580269383784644 9.800804212542982 9.840848041384906
Ti 6.266845429652178 4.91477027593424 3.571064355552012
Ti 7.0496548065163465 11.257186477692596 8.521281997785925
Ti 8.732648791284747 11.022241801744231 6.650155077950292
Ti 5.280280778175894 7.845014326987647 5.08190010687727
Ti 7.017050225382134 7.298184234934818 2.83780889382975
Ti 4.0525752241508455 5.4537589710678285 5.584217517442693
Ti 7.649501135886899 9.609111113681031 4.056957915842813
Ti 5.879193802056689 10.571791032391518 5.45097961847428
Ti 4.387390739642401 9.810059008507345 7.46153911222595
Ti 4.401579968703932 6.605497027811161 2.7609730529848844
Ti 2.8789148311394652 7.815543959971237 6.763028231228207
Ti 4.828287991896642 9.250432310616555 3.001839638206458
Ti 3.356447658553709 9.906733044529329 5.058410191670615
Ti 2.8128429755364595 7.648484672348516 4.073532771991753
