40
Energy = -264.75175745 eV
Ti 9.651653372172822 4.854913789714852 4.3564584975133105
Ti 10.738811344304331 3.8233517150252165 6.425912202423477
Ti 7.945490844635956 5.3712543358019 2.6037307506550484
Ti 7.37304108519556 7.80945579161497 2.2174518719242857
Ti 9.615642023905973 7.517790456612886 3.586598734488519
Ti 10.681944349572738 6.4969500818718 6.043982015981606
Ti 8.60075618338002 2.7496187206162004 5.6739178301936795
Ti 6.556856537351499 4.340090773643938 4.863392026737321
Ti 10.868272793061378 5.004181771541247 8.461584817654597
Ti 5.561106640941748 6.02135516925058 2.9274039404280514
Ti 7.707980016244914 9.560271877243558 4.1586355209884225
Ti 9.07397118074484 3.005765207794162 8.424468428321337
Ti 7.553070923090263 6.759827503797265 4.84494014900647
Ti 6.551816067699618 2.880205689944355 7.253658201290748
Ti 9.121888632621522 8.65954758123956 6.195586675487745
Ti 4.241640243906964 3.5172353704066452 5.840928279441785
Ti 3.978452789524176 6.190243410632986 5.003146434350322
Ti 5.312352603795375 8.689275792492111 3.258352316070812
Ti 10.36498008311537 7.532893325082419 8.549340585962725
Ti 8.438910558094326 5.0926800836830495 7.105930643636634
Ti 5.441596424168015 5.4994780075423275 7.222054646556366
Ti 2.7447639584382753 5.008723334100245 7.26941326923383
Ti 5.343912472064477 10.625660050737196 4.962018875716864
Ti 1.3093534869240981 7.12797576541665 5.5680204080859435
Ti 7.576414864530315 7.481763781381267 8.229736726987259
Ti 9.040423344427811 9.73615306469467 8.673622411448966
Ti 5.618607770819273 8.19864293869474 5.929398871352583
Ti 3.099156834208174 9.018293069805038 5.003223514469999
Ti 4.370503356692494 3.4294968700887423 8.534296696060887
Ti 6.942775820561104 10.04469472120114 7.185961109441594
Ti 6.677214214746013 4.290942636730709 9.520011582716496
Ti 8.968038239944555 5.553531759169741 10.024717265064028
Ti 4.104243420921787 10.115054219651602 7.137103310439415
Ti 8.823550454079864 8.059572272389442 10.62058262345083
Ti 3.3215741074736087 7.445458649531436 7.26070751062016
Ti 6.51464990457965 6.757666211657342 10.589795660815426
Ti 6.784606978623935 9.464518531344194 9.922659562558405
Ti 1.3381383696838196 9.093955154507022 6.952086158509525
Ti 4.869595961802162 8.379218580024792 9.046751808805254
Ti 4.169142320194089 5.787858482574883 9.554657499457601
