42
Energy = -278.76332539 eV
Ti 5.921692236410059 9.729209807554021 11.159206905698442
Ti 8.30647698564644 9.019267615746788 11.220011900259177
Ti 6.586498885323462 7.212378484721209 12.051354541262917
Ti 4.223605763350865 8.037423330353562 10.77502768455041
Ti 4.760558917415562 5.7824114448567805 10.931783283874031
Ti 7.264371359161431 10.371223396494466 8.921334179734949
Ti 9.727556950707799 8.982484139632295 9.089497697624981
Ti 9.090830103187214 6.609990566214196 10.46635591090884
Ti 10.987596100630663 6.718284312319795 8.547455292225806
Ti 6.602593622546135 7.6675634451025525 9.531256822145718
Ti 4.872384540967798 9.538909970565978 8.578053256406685
Ti 7.099152056092709 4.899839661826087 10.012331608962729
Ti 4.357156454822652 6.691762295448574 8.258230494249299
Ti 8.901731355517684 10.37922985213988 6.984342654821837
Ti 4.68915753586262 4.058669589534624 9.156921641200414
Ti 10.540011118921024 8.447859174947085 6.461674687101015
Ti 9.214246376267132 4.462621392909814 8.219133312705667
Ti 10.576122526171497 5.948898995901651 6.140751610866964
Ti 6.714784324018092 8.670404461694044 6.698830882055492
Ti 6.39084195499975 11.012738016566418 6.184288353963717
Ti 8.575282299924504 6.946629720274825 7.717449453626927
Ti 6.62078487712621 5.086595880660841 7.246617734005424
Ti 5.071978561708915 6.772209508702373 5.662571385966108
Ti 4.040858535487891 9.15263222008713 5.9281060645245205
Ti 6.1563076530278416 2.6349242579252263 8.075153119381742
Ti 8.380297564542898 9.938788624927335 4.592093452206862
Ti 8.450835935977492 7.420826759747658 4.913511160786915
Ti 8.682565209942657 4.640931248087479 5.4426937010099055
Ti 7.868422386316384 2.628876655016932 6.459198592432322
Ti 3.999581550133894 4.48944077792832 6.64573696236918
Ti 6.646460807144309 5.659083815443476 3.931524969763844
Ti 5.909720369494188 8.868517113000674 4.027164617546678
Ti 3.3754631999962244 7.809813163192919 3.831476866920597
Ti 5.644441434649889 3.3229709969267422 5.121907798842998
Ti 2.529447500662133 6.7385112286402995 6.03809272968332
Ti 3.4852708020418857 5.170733439941192 3.9790785681910394
Ti 7.553521420968298 7.606042403352783 2.323328429069741
Ti 9.166356837011094 5.630262642048876 3.0240189622193645
Ti 7.675305906521454 3.306708507616433 3.277857268168469
Ti 4.905161062543997 6.580750328782222 2.138913771961354
Ti 5.222858092439107 3.9042606275463063 2.5001615052539297
Ti 7.102680600091135 5.177886583976403 1.389485431771032
