48
Energy = -321.34900613 eV
Ti 8.655699060150267 6.70337207814143 10.23947318688339
Ti 9.008753264144602 4.149770918081068 10.596805485670226
Ti 6.644571686716032 5.2916238649765726 10.904863942960025
Ti 9.439633674516811 2.726264659036262 8.661385779652909
Ti 6.5982857002752775 8.243269097067644 11.600491151145233
Ti 7.023559370174195 2.6030403270390465 9.745783058285973
Ti 4.771748304345728 4.051296201475663 9.873762468203388
Ti 8.693890760529058 9.170491924741599 10.08298124619158
Ti 10.266646180442697 5.3131522784716 8.457580223182683
Ti 6.289730104401497 7.9040026421798535 9.138682934989559
Ti 4.298824507452948 6.58235299586147 10.413777375764987
Ti 8.469534110966698 7.366411311678738 7.75751847617063
Ti 7.575609066048232 4.661208950805285 8.267554480279054
Ti 4.389218263091168 9.243335227172775 10.586077584016623
Ti 10.73903594319745 8.702945923708114 7.69485054640452
Ti 5.1201293379280015 5.868848721882731 7.676314355926074
Ti 7.636827252330697 2.206587024265194 6.936888024047252
Ti 6.476062137317322 10.565339913784976 9.873284989755494
Ti 5.044350339870425 3.0297513382834143 7.678198227247226
Ti 8.83393734049435 8.508234247935775 5.6702141826796995
Ti 9.88752012909895 3.541389776456355 6.301505673577112
Ti 8.450654528188364 10.233278518045937 7.875901868881151
Ti 4.30816134128734 10.5847921459903 8.279706538654896
Ti 5.582800738121916 6.869547932326969 5.153175166348269
Ti 11.438965219192823 8.728374477844163 5.069690637105855
Ti 3.402216968606271 7.9107648763207585 8.455934420003365
Ti 6.10792733491772 9.196468987091478 6.691411524656574
Ti 10.73273804904224 6.350050680791898 5.990576685136284
Ti 2.8592214702395515 5.007576292345642 8.39758970867991
Ti 6.4802455063878135 11.834553228879598 7.413405609936255
Ti 10.018834770076426 4.676669489121452 3.926784891643639
Ti 6.024005294072828 3.8901480347359625 5.583246830629183
Ti 4.7733187531881445 11.288599924039973 5.721611066604468
Ti 8.0911163832921 3.1736019349957596 4.30785510567586
Ti 7.429297621145287 10.793550767320685 5.036570312127911
Ti 3.5106495823942745 8.919408172476798 5.994250627010998
Ti 8.14764756741332 5.622768304631215 5.580877993960525
Ti 10.16149595523952 10.827637078325223 5.985271208291915
Ti 9.623166959145204 9.941477693446382 3.616883256071319
Ti 2.518947660090023 6.583801619532307 6.404090104580704
Ti 4.976765858154233 9.268683042834741 3.9713859431370864
Ti 9.888348850409782 7.2237326567288696 3.4836208854811717
Ti 3.5481544603873503 4.576343516043984 5.543914652840106
Ti 5.073290811404205 4.809445373626737 3.345900396899891
Ti 7.61620272867374 5.608884867224366 2.9833434513180577
Ti 7.389568446234204 8.423682435095024 3.4158495353773444
Ti 3.2888973603687104 6.827119550167629 3.896167755865079
Ti 5.4033444871362475 7.105900215272694 2.4265416683503984
