41
Energy = -272.9085575 eV
Ti 5.443758660175814 2.361529003797978 9.945820896824776
Ti 7.814407399247641 3.3814053527233296 9.65949205375384
Ti 5.780703126689458 4.531794460653538 11.197063587132298
Ti 6.664336960380265 2.0966790021467285 7.502027912703177
Ti 7.468786738566334 6.231001154255267 10.161090444473624
Ti 3.5399825005222567 4.231375404862506 9.830074513514491
Ti 4.047489493116597 2.584434331563066 7.876347780129145
Ti 5.7528609633802095 4.694272429592823 8.514059381903431
Ti 9.062692772820151 5.589841989696344 8.338577293592197
Ti 6.840429988266574 8.769345134502336 10.264786821230636
Ti 8.98627626124044 3.1938774390457647 7.299575013293758
Ti 4.8046172885678 6.843893815622802 10.061716954345574
Ti 6.190128015233857 7.451340124979965 7.975120816067079
Ti 9.11131411110053 8.394252021483355 8.906410934028493
Ti 5.1256601129367185 3.1645384795233498 5.551491556882829
Ti 3.4607836207844054 4.98871098473203 7.11734284066958
Ti 7.722623619586573 2.9258897933975576 4.964050182141273
Ti 8.290601796710028 7.518091273382596 6.529805870698237
Ti 3.4089910412566464 7.582277054921134 7.654205392880143
Ti 9.726634251926587 5.188082123536999 5.78420531423195
Ti 10.7914498133883 7.348131579255427 7.123842378547476
Ti 7.110610003398964 4.955136471392892 6.237567534229157
Ti 3.3692822729138716 4.616548942857916 4.357813557612592
Ti 4.839743581157935 9.482383229028411 8.918935037027255
Ti 5.802260972282351 4.810684246748303 3.450029402020272
Ti 2.2514865979540644 6.588145344717162 5.430193607148125
Ti 4.971135579424869 6.56311111294525 5.444994875819906
Ti 7.302501519293135 10.089022878892496 7.97281118914399
Ti 8.241441662084057 5.57955635787345 3.7188344390369323
Ti 9.640896664941076 9.673514060377233 6.401865605856806
Ti 10.234866081764828 7.576821280070967 4.544659500274932
Ti 3.165125133952835 8.763317051563488 5.197360570439385
Ti 7.089886255248761 7.954331320123313 4.344614292070427
Ti 3.7521733199882146 6.936515896150287 3.1335193418504823
Ti 5.280801633749348 9.447916904213102 6.290659798625094
Ti 6.131480081573264 7.33168188697175 2.002198596145538
Ti 8.773041078362102 7.6805114827377565 2.2495523786216243
Ti 7.155864802689097 10.607157025483746 5.0075835480045034
Ti 4.9468764033700365 9.35890803597257 3.430638368157252
Ti 9.242417678102559 9.741103606187979 3.8028533152703305
Ti 7.199551090634425 9.708840860800315 2.34217805238562
