43
Energy = -286.80673707 eV
Ti 2.7054081658168307 7.471153746544812 4.736741569624216
Ti 4.122123499647269 9.140427102375371 6.516865613507716
Ti 3.8500341445730544 9.712390076196433 3.850669572675807
Ti 3.9404486668498855 6.987571114730269 8.624284768317624
Ti 6.222484337243397 10.876511370413741 7.520747204728253
Ti 3.7534981732979147 7.588943671136863 2.303672595072298
Ti 4.6174758596205 5.98114039822047 6.190025418843256
Ti 5.214441656746602 9.264143673080714 9.276356708045109
Ti 2.5851616095073138 4.95113199447498 7.268884077133
Ti 3.852424734747858 5.388318901762404 3.7201174704224687
Ti 2.7376861089538145 4.8298518925261025 9.943221313268594
Ti 6.355766691851992 8.331830541985388 7.051929317485571
Ti 4.796125831121766 5.84020084351793 10.9618612617648
Ti 6.204911112860392 10.239414972716828 4.963295831838618
Ti 5.338259370217584 7.64839405361617 4.4205170450512785
Ti 7.934941147163814 9.435822390290998 9.01185149204706
Ti 2.9305474755753766 2.7099777812944446 8.507445403646592
Ti 6.022030755769793 9.023051253736032 2.3262777303602054
Ti 6.588557165386073 6.929939072637306 9.340595254363558
Ti 6.0034394464 6.138980150507869 2.17623076733046
Ti 8.653654474154335 10.215172295864873 6.551015168492513
Ti 4.292543102822823 3.1573879680271806 6.16761699302866
Ti 6.945448681515737 5.314863824415855 7.014800420707832
Ti 8.645216678560733 7.418208824899449 6.896448483697116
Ti 5.0139464326508 4.397425235996554 8.597213033605852
Ti 8.489232231618569 9.429692315659636 3.92878892525465
Ti 8.067913941830682 7.531153255823218 1.8859496060083305
Ti 10.413627549098203 8.788865940669693 8.109801750564296
Ti 5.1111654680634455 1.6396926013336224 8.276375566351325
Ti 7.885363765178859 6.764649042723877 4.481199871567216
Ti 6.340930344494844 4.51196396308989 4.521276869476006
Ti 9.172911895365784 6.890399868166127 9.425901741859994
Ti 6.875267595920496 2.6332598888406697 6.634376673516405
Ti 4.734612862900881 3.0176185212393096 10.68424469721418
Ti 8.7881733199527 4.5000700095416395 8.484628880420354
Ti 7.028255201495741 4.65577452044189 10.66987288916182
Ti 10.69350499496553 8.42387726870939 5.498655816352746
Ti 10.127871400032218 7.506941349549964 3.065643426074941
Ti 7.135341210969284 2.597092626941761 9.288757851713022
Ti 10.840756964544363 6.256092350662953 7.321828124153037
Ti 8.950475911857504 4.39341917826439 5.6585661272598875
Ti 8.83930225688618 5.101056888824963 2.8874094379357507
Ti 10.673122783841812 5.860532280622282 4.732442252130951
