45
Energy = -299.02015457 eV
Ti 11.32237807784278 6.907955713195907 5.565736926522411
Ti 11.761972925250552 4.476005933635215 6.642773081338231
Ti 10.329198183137061 3.873633064394355 8.560564546823931
Ti 10.002818577594978 9.160028823309977 4.559187939756626
Ti 11.077828059763577 6.388173186076339 8.317049734397425
Ti 10.212810960468508 8.659664993111969 7.378133219578257
Ti 9.693110382789456 2.863314926758353 6.189689462896704
Ti 8.73670715500956 10.413690892012166 6.597295128149625
Ti 10.765701372419848 4.4989644121852255 4.441658258156636
Ti 9.723256465676586 8.01843614012492 9.924374935079026
Ti 8.257262330400371 9.803159522171878 9.094398060122437
Ti 9.591635774197751 6.570436450320112 3.5379279140969966
Ti 7.1726894235046155 10.212625648237378 4.594641005761849
Ti 8.9672540183983 5.611654349186833 9.954565212810017
Ti 8.025210562128027 7.8009200527485865 5.424903316565886
Ti 9.122813626939909 5.427352594721094 6.493042701972879
Ti 7.805183083642642 3.771056775485477 8.29078225887302
Ti 7.216884946286822 7.75127235520322 10.620545359569366
Ti 7.665417051975072 7.3066013613578775 8.10396548720464
Ti 8.045652102929834 8.553178516855784 2.750257229780867
Ti 6.292804417394608 9.851180077240848 7.159311131704698
Ti 8.224578148692503 4.1486161834944815 4.173105062673525
Ti 6.833060194312195 6.148849663410365 3.6427652174749645
Ti 6.118803576329323 10.857871683672046 2.408138504984576
Ti 4.605558195207701 10.348858689823317 4.932136388845016
Ti 5.999670553385209 5.2512882585091925 6.414487772358706
Ti 6.8405602831069015 2.8777640906036934 6.034800306312648
Ti 6.330484842618916 5.396343952163713 9.939497329000483
Ti 5.172275262103672 7.778685055740163 5.8304040678937525
Ti 5.350223145376947 9.148333522619495 9.38068367004772
Ti 5.21047625175702 3.4024357209935006 8.419246732815685
Ti 5.160945387553061 3.993385255219313 4.115795828406693
Ti 4.274480743941782 6.301381129374067 3.4263416366314408
Ti 5.511318906088106 8.524723856607991 3.277309782854493
Ti 4.510263379246477 6.703022505325262 8.353311417138704
Ti 3.523647287257765 9.506123912884997 7.172886523439365
Ti 4.291879141076776 7.13018777650391 10.986440568300802
Ti 3.160416505275457 5.48075828615437 5.428605963763359
Ti 3.8747795813035926 4.658422103004853 10.239628898308558
Ti 4.217106830861191 3.0902450698673447 6.155192118291175
Ti 2.900270987203427 8.228057229342285 4.74503850519614
Ti 2.798170830166822 8.61202163087617 9.458143337913588
Ti 2.7445139027924523 4.605683386450224 7.8224406726170645
Ti 2.0441753410940278 7.243272859945549 7.215202187443868
Ti 2.0939373276001563 6.299909395349757 9.71848518830376
