46
Energy = -307.60327417 eV
Ti 10.534242553204376 7.899501751247615 4.215830792839713
Ti 10.152524225363555 5.834400108848725 5.891090612123106
Ti 10.644190417152307 7.610488719421352 7.95619261958899
Ti 9.953574214635898 5.437130681071485 3.032394153639802
Ti 10.365698112918256 5.084181405294031 8.438982714817843
Ti 9.886181768003395 3.2910400357902194 4.834632705536736
Ti 9.116962504278579 7.703351278743495 2.0494763224989083
Ti 9.05566777034083 9.022318698717317 6.299739592004154
Ti 8.281961526791868 3.322572335497506 2.6525780911341394
Ti 9.20398436819928 6.788895747671246 10.16769191464806
Ti 8.641672710103888 9.701839721819765 3.7127280008498214
Ti 8.66234593024025 9.32900859831333 8.966941363676181
Ti 7.923336135540291 7.31726943099175 4.505182084939931
Ti 8.355495927647329 4.115323344351959 9.890657762002576
Ti 8.282781263272222 6.506334222327763 7.61737497351452
Ti 7.439938985418319 2.277883088422091 4.887073696019173
Ti 7.3774725371495675 5.73126902418379 2.0023807396546083
Ti 8.360460136044368 3.8136874535331517 7.083449553406841
Ti 7.1412450637276335 10.843862571055027 7.089305252719014
Ti 7.848642401498323 4.842992149836686 4.6924420513191105
Ti 7.299143184112204 5.685310141235857 11.59193096366341
Ti 6.659036232377058 8.498742800525326 2.3769939022169124
Ti 6.905507187038956 8.049750687788961 10.489436061138926
Ti 6.538001365166319 2.7666625085414682 8.526829482548896
Ti 6.534048388186256 8.384570530657319 7.591995676716117
Ti 5.828012580676203 5.847983235815937 6.314771423297829
Ti 5.253555784017879 6.742633884639932 3.5436218831688553
Ti 6.320196275174496 9.232522394029244 5.064704608034955
Ti 5.390895213477558 3.3762097952641366 6.138228861710124
Ti 4.11072353894313 9.567187657707418 3.915367490015448
Ti 6.028803137525628 5.52178274443257 9.083985461188016
Ti 5.7182648984060735 3.966450983023243 3.400673617024449
Ti 5.572503173801223 3.7882837377348815 10.879310230439621
Ti 5.88753923228096 10.160949369640196 9.345756269051165
Ti 4.92777637344944 6.4822566842844465 11.437536640116551
Ti 3.9533965424190356 7.72091584467307 5.973188567967603
Ti 4.156438462399345 3.412906505577846 8.593126060638363
Ti 2.587596736278863 7.508007594243665 3.6053215535004073
Ti 4.390747975329675 7.751864062735128 8.97498500879634
Ti 3.5145005664921096 5.178089152638264 4.875816832598847
Ti 4.46535585583978 10.027123477097861 7.03982454114406
Ti 3.4007205167630925 5.3515124659956115 10.075310830763195
Ti 1.934154106531909 9.275541737064916 5.434279130220663
Ti 3.2233627494458488 5.615402200537349 7.473128304790925
Ti 1.4046866994220724 6.769144879676882 5.772604893477439
Ti 2.1217984803296166 8.199988364715127 7.850270516254028
