54
Energy = -363.31343241 eV
Ti 11.54839070089525 7.149714419785234 9.548734888756467
Ti 12.204954789470662 7.670254798927868 7.187427871176619
Ti 11.214885298419766 5.139741408582308 7.67112761819119
Ti 10.736219639641142 9.476231922215728 8.623904789269766
Ti 9.83678715609452 5.2537525983352005 10.127474573660116
Ti 9.139685464928823 7.888016611705112 10.53533837133108
Ti 10.948987427050536 3.548903674092616 5.46770641980443
Ti 9.739683229242669 3.117417384775699 8.033973938275048
Ti 11.038093682536065 6.370564283433812 5.23959450493219
Ti 9.62973969770856 7.38482396076962 7.704361467493408
Ti 10.547983657312127 9.028434389088394 5.751988878400163
Ti 8.488276100961613 10.232290763077811 9.7029705956763
Ti 7.846306247528939 3.4098745679652263 10.049547485206773
Ti 8.756384613632136 4.936734733086606 5.904036862781829
Ti 7.966062081393479 5.233917880405705 8.31279719183198
Ti 7.1411970981359865 6.066586703834764 10.61465174323842
Ti 8.585831854702256 10.282662139535846 6.976853639453432
Ti 9.821397476080179 4.5393401324542255 3.460195103707819
Ti 7.074633545890662 8.267189797131248 8.405417708300794
Ti 9.413986014005781 7.234665432979018 3.543621469710254
Ti 7.393792980788071 2.6382192591841815 7.55532910897671
Ti 6.369027073095544 8.966638805493552 10.667698614218988
Ti 8.042726351752819 7.786919847147768 5.596408733561113
Ti 8.264998229353873 2.7347078807238607 4.7544707835625735
Ti 6.369671134639007 10.810646318526778 8.545025297621718
Ti 6.050018187468996 6.2650948485823275 6.85581216137474
Ti 5.538192096444373 4.037335346298565 8.881359227394872
Ti 5.977142707063428 3.74692422839622 5.813675070355116
Ti 6.133243730578514 9.623701288373718 6.085627995457855
Ti 7.216280646215708 4.997471507346852 3.6122711338207893
Ti 4.395316433837727 9.113592664165425 8.570178966607914
Ti 3.130838562177059 2.634640753744826 7.583490424805877
Ti 4.885486688491518 6.6181228956846825 9.32897319845479
Ti 3.636384233228329 5.0223940691730515 7.019353410589679
Ti 7.441825128631197 7.053267963701774 2.005360483202111
Ti 3.021261787642381 4.453047517245641 9.555812402258205
Ti 7.360984669165964 9.429333983496031 3.5309381693235093
Ti 5.340111230030467 3.335761757675386 3.1133361599659364
Ti 5.805256498738167 7.379897661706627 4.1554527247727195
Ti 4.051841041513851 5.271513543250061 4.543045067213462
Ti 3.727132137850026 2.522566362651963 4.83498633697639
Ti 3.9319541216734994 7.889916468786781 6.220033500645559
Ti 3.7556744770292267 10.571405506462654 6.325387466458959
Ti 4.970483963256494 5.805558588312801 1.9758472152149835
Ti 1.8146633242283825 9.063243257882508 7.177051917404347
Ti 1.1979772070145982 4.55719067485249 7.783571881022178
Ti 1.668409222767414 3.7162557648863954 5.507484022143155
Ti 2.38303688349045 6.920303734500308 8.514456367089265
Ti 5.351940180286549 8.497501709277753 1.8531786424714738
Ti 4.440660123251971 9.866288864059628 3.7777665804951366
Ti 1.666775109350371 6.572241307779874 5.730603752491788
Ti 2.711444864047222 4.205331324830804 2.9120017331032946
Ti 2.112779179082851 9.195981817883412 4.693752865277344
Ti 3.167911852052561 7.470592707605018 3.063261296339631
