51
Energy = -341.26732977 eV
Ti 3.234717774657219 10.410897573695292 4.791409439314873
Ti 2.969388494340196 8.536413764797201 8.69955175982209
Ti 6.21344757661281 2.4875187938279546 9.170732971168999
Ti 4.982094845237166 2.8038070203635037 5.258730441907891
Ti 5.5304802334036225 11.12162703217531 6.142055398150469
Ti 9.553855603890632 7.790260089324449 6.4385498502400065
Ti 9.577966128601219 5.11504623168083 7.501983882155116
Ti 4.581016502422787 5.378273894273054 5.15161378746479
Ti 9.107134873564855 7.53551581901266 3.562643039656364
Ti 7.235576735622459 6.570714150356645 6.401323080949114
Ti 6.891948843098671 6.605142408083017 11.154348190336972
Ti 5.26305632102853 8.135378963548877 1.4329936454971737
Ti 3.4313081099760896 3.133761936047638 9.365568190630036
Ti 7.7927970903550134 7.405028574999859 1.1184784883075496
Ti 7.1392834924031545 3.861268961296201 6.800345839880629
Ti 7.070064336251998 1.8487183384637118 4.197880340881681
Ti 9.395779150882817 5.3884988419766096 4.993142990227386
Ti 5.506045341504837 7.110523844534184 8.774024346695114
Ti 4.764035269427727 8.614176236631991 6.315609166833053
Ti 3.6411262479733675 7.838984104860062 3.9349099025478735
Ti 6.221508451463709 5.344619507070681 1.1177134657791914
Ti 2.8393131917278227 3.6257563302350415 3.8740984814589234
Ti 8.80097146942352 2.624409945595905 8.411486511292605
Ti 7.1277119969120095 4.477771887236677 3.941868238547975
Ti 4.512561865616882 7.865877016406342 11.016507721023935
Ti 9.3445322296829 2.6530562510596134 5.820442957439493
Ti 8.934530315803126 0.6339692460534385 4.074090152148963
Ti 7.222424112015011 1.2037234421522542 6.838381579716691
Ti 6.344416079324894 7.079003186891979 3.4819544608644586
Ti 7.620963872895619 2.982707451745613 1.7666896629610949
Ti 2.9814296373209963 5.943878483416611 9.551904340362098
Ti 3.172232913577487 10.743154183281208 7.275171155391113
Ti 3.8597940986195 5.77007745956658 2.463733318558132
Ti 7.325726255367256 9.112979682901889 5.152395472923737
Ti 7.277278070846208 9.156567586251684 7.624006158317758
Ti 8.817221049111211 5.318773674211373 1.9614446981053277
Ti 5.332786817048724 9.903915270736496 3.5960228336049793
Ti 2.902600107126574 6.548669436053248 6.940128437071838
Ti 4.8247184689220965 4.630146134879775 7.903926133855635
Ti 9.546434068373568 3.1877861928289866 3.389451818062562
Ti 5.080197386017596 9.844787149927438 8.872742989808307
Ti 5.033654555376988 3.426559611860907 2.5724549446084577
Ti 1.9629725148508845 5.838545473442634 4.600506626498439
Ti 4.966589184636516 5.049126658317884 10.71861024174859
Ti 2.6496590291238893 3.9309517621676906 6.544455393922083
Ti 1.8991065547422679 8.787169790760265 6.065457034677463
Ti 6.928055090610303 8.916360717198906 10.380911628780407
Ti 8.380394947208732 7.132935429007168 8.948051045309715
Ti 7.582103777271736 9.340863358516096 2.5391066381676697
Ti 4.487984350210753 1.8924995940574838 7.390101442328092
Ti 7.550644657668704 4.753441596372672 9.37192975415063
