53
Energy = -353.30052053 eV
Ti 9.422508237538569 6.6530853776844525 3.4756036739521767
Ti 9.412918744059331 4.84755792728787 5.958535024123758
Ti 10.47789027667734 4.410963596077987 8.488658291530674
Ti 10.64480880978753 7.286908690448132 5.792144641588644
Ti 9.621890444275135 6.743046137713832 8.03409477578726
Ti 9.019608251562797 2.8085672753115456 9.873305838851294
Ti 7.900771974764718 4.460433663857677 3.7744903068033073
Ti 9.574292043621716 2.392025285261677 7.304969167951085
Ti 10.345827893267229 9.563747844875936 7.187918338495302
Ti 7.922956135093811 8.47667190319633 2.2631196085244456
Ti 7.983778381719914 5.853352334149389 1.1832053342703552
Ti 7.688275288242117 6.813790787429731 5.424424617487114
Ti 8.424142639309721 11.129318210719958 5.923868068150525
Ti 7.504904094560455 2.4045698407137346 5.751074764852144
Ti 8.77037418538158 5.461571657359394 10.280885857940458
Ti 7.687940567355563 4.135226987034604 7.909595273597148
Ti 9.560358158550653 9.130243822420821 4.6082427183084755
Ti 8.007651849136204 8.725774608688642 6.962901639872145
Ti 8.40240764134604 8.225013162997632 9.683498557189054
Ti 6.468976760675564 3.7065504953639037 2.013391817199116
Ti 7.243548933388587 1.6280975265494542 8.429462005853711
Ti 5.370754989908869 5.322157498704682 0.6188627039382368
Ti 5.718243958631205 4.765924681969235 5.439928971479021
Ti 6.217704909789958 7.6883213078761345 0.46147756350279706
Ti 6.173132723212943 6.559323253926776 3.0034600749010685
Ti 8.0176317727662 10.904260841049512 8.58403033274879
Ti 5.333195570892997 2.463780569099555 4.106809411692473
Ti 6.658871937607525 3.8391343899160812 10.545791245650827
Ti 7.084056186198684 13.072733255162246 7.617242299232975
Ti 5.268256215656169 9.130859716801053 2.3864720840476714
Ti 6.628039195171358 9.260418275113919 4.529675996937912
Ti 5.642368902808212 11.828839168976303 9.150435425121895
Ti 6.301417662749999 6.510758974536355 10.709419310763
Ti 5.127611816602592 2.054019703058865 6.814961153160706
Ti 3.881124237043234 7.120018000438098 1.6037241706186127
Ti 6.043218741996638 9.079607180296087 9.239076485020075
Ti 6.831514846374734 6.605148077097752 8.179458342870504
Ti 5.914508632558838 10.919773904220465 6.709067799007758
Ti 5.150021779011363 7.798710054955919 6.46418239166491
Ti 4.823589679325877 4.613511471164655 8.251478271478865
Ti 4.788343814745595 2.258986615028938 9.586205544151476
Ti 4.159215363286909 4.700227238223777 3.020099179468531
Ti 3.830692408136558 7.298418850143366 4.217709598773002
Ti 3.3602485195809635 3.3078337493324854 5.227693146773682
Ti 3.854384533730909 9.816755203487931 7.848857617559245
Ti 4.135511357091549 5.120906219574818 10.839133959926567
Ti 3.883028825640282 9.818089059370555 5.124216985195618
Ti 2.7821481600583318 2.9805878264720596 7.749936180912414
Ti 3.963461449727225 7.233341755850181 8.887326327802494
Ti 3.220838314573825 5.667088433817633 6.381529444678003
Ti 2.4892305730363606 8.08698581625186 6.543531193495757
Ti 2.2398529320120395 5.418351238290587 8.844079722743345
Ti 2.6536146360480255 3.3083527752058552 10.276896464294166
