53
Energy = -355.32598981 eV
Ti 11.180385059628168 8.207411528615438 10.733871364354002
Ti 9.950915908900535 6.3246598593637575 11.737616747479375
Ti 8.802344101498269 8.80811457856058 11.809904988188503
Ti 7.491681543161774 6.323535817944328 11.834435297854697
Ti 6.20122799745816 8.010422996900811 10.650239909156424
Ti 5.8238700401463985 4.744772123030345 10.57338427269013
Ti 11.46767968463448 8.353126995289461 8.244106642899812
Ti 10.814995485537633 5.750187534258005 9.204694496966175
Ti 9.735349446124701 10.214986393802707 9.570107060868848
Ti 7.097277578391838 10.348747243228654 10.23048504349483
Ti 8.904063126122788 7.614680982901704 9.568534172097056
Ti 8.594148338802341 4.461439075601539 10.277382145274167
Ti 3.891140398599916 6.75931111338815 9.882374285446883
Ti 7.029838347886564 3.2812721240561267 8.434020413376604
Ti 10.085582442308175 3.004204264109669 8.073553198121997
Ti 11.677372142491059 5.150905888087369 6.832647823350928
Ti 7.939155419132864 2.684270066591095 6.051109829240132
Ti 4.645623083481155 9.419750239489673 9.257609394875345
Ti 4.306036578394137 4.570747520338228 8.298700309622998
Ti 6.921299574290605 6.0594212024289655 8.713842168281376
Ti 5.007611511490075 10.70716466615304 6.903050225489438
Ti 9.76859486932823 7.169615659227345 7.002653952181299
Ti 7.672609268114666 11.465164769371931 8.050984050793744
Ti 9.60312544182765 9.821486488067118 6.837497375895336
Ti 8.932108361911482 4.892033957682233 7.176837616021763
Ti 7.107149528016319 8.948039297173048 7.836469142794313
Ti 10.306216693799463 3.3842554934734617 5.397867245718574
Ti 3.122087764611347 10.145021672025306 4.862199221548652
Ti 4.815965574566052 2.725584828337114 6.193458886673119
Ti 7.875538824523928 7.449262943430103 5.511268728049099
Ti 4.801431574530446 7.237231129611869 7.571829970444933
Ti 10.917998877097308 8.142370443233071 4.916560213826043
Ti 5.258276892816425 10.886461339758922 3.9837922298280137
Ti 10.604056593043055 5.6860427152697515 4.5105250137602315
Ti 6.379136822493996 4.8875883808315255 6.270171155671203
Ti 9.091012148254686 9.59828462791689 4.119110494362837
Ti 2.8481228122759457 8.933185970081265 7.152775703245475
Ti 6.021242731458424 6.465226115481036 3.8800814689788807
Ti 2.1896246342905785 6.188627577235584 7.401408695932532
Ti 7.292350041299794 10.562434667294411 5.590518429842919
Ti 2.3414793990047844 3.5973956338050193 6.72393663986774
Ti 5.218425734451355 8.583395017303681 5.31211235408966
Ti 8.219540113581575 4.750417254686978 4.171328422792139
Ti 8.877882622023611 7.166939015133829 3.036156362388316
Ti 3.9699104326977905 5.371872094730509 5.5771295926875055
Ti 6.834817391878593 8.920886169863767 2.972534484840363
Ti 2.5303026861777576 7.604379033702368 4.815119312318263
Ti 5.457490036291401 3.819689201140189 3.7084564068133057
Ti 6.200778996802128 6.27312014104492 1.6821308072807006
Ti 1.4633902048856031 5.20910308199866 4.866695720993239
Ti 3.03101632673429 3.2545632481799283 4.204231980411678
Ti 4.221770316780851 8.533926575536292 2.859101251608628
Ti 3.471816043818171 5.639958678329173 2.967336087421829
