53
Energy = -356.1843405 eV
Ti 9.150773964235665 5.094640529083836 2.248596172745268
Ti 4.783376514785676 8.204343151491269 1.8198667019963783
Ti 4.763863251451658 5.249255753471278 2.525470366080612
Ti 9.542813665323111 7.558499839819625 3.4004428188379507
Ti 7.076841046280034 6.678992307152625 2.4740822419476873
Ti 2.612196747500964 6.863601324894364 2.606658493261023
Ti 7.353215887567937 3.5686310295945396 2.9429617202252696
Ti 11.385088118233199 5.35276063012089 3.3349124963541037
Ti 7.423251916004159 9.44559913651276 2.6771579042311666
Ti 2.8702047033772637 9.253029479343043 3.4693815011762745
Ti 5.024521906993757 10.100363295741351 4.211725287238253
Ti 9.877286719900379 3.1532976021246473 4.046326827264526
Ti 5.0296560314450725 3.579572997444364 4.587797656239195
Ti 11.592572535789639 7.046614412788428 5.326778905114101
Ti 9.438305133161606 9.813243822172618 4.568422200685108
Ti 9.473333895751814 5.493298903419774 5.085999592457222
Ti 4.8207143780077235 7.254599898101922 4.056272724349629
Ti 2.6336084295848363 5.032078797218701 4.475567591476203
Ti 6.980033381201642 5.415391241598786 4.84846242784559
Ti 7.252249571773915 11.11184932456538 4.731413598839381
Ti 7.24039940765925 8.296273025778097 4.9734199937615635
Ti 9.388879328659947 3.531241001275699 6.999922522555616
Ti 1.6800394250252475 7.572221080143079 5.06252655496516
Ti 11.700124066787682 4.379835006205111 5.765333612823375
Ti 2.7858416317082426 10.30067491105493 6.1043849224572115
Ti 7.532656987038975 2.6906143894900807 5.3416076556083025
Ti 4.066047896328958 8.263733476377476 6.225202639709332
Ti 5.657458230176351 10.79617227962597 6.854469996826127
Ti 8.329534342475112 10.332636783359376 6.949397304419621
Ti 5.946880036259486 3.558501305756966 7.265204902851196
Ti 1.9434711933282405 8.354769436589686 7.767891688144888
Ti 1.9780794445482042 5.863504218160554 7.00974700437895
Ti 9.347258383314214 7.876941285053237 6.463680659760607
Ti 3.3046203578613835 3.5154077210266177 6.704346549151939
Ti 4.731054601800974 5.645713880810589 6.243753629771272
Ti 7.829121277240877 5.683685402444567 7.624211419999721
Ti 10.566809355204327 5.917925739438814 7.650182135097619
Ti 6.416832758055985 8.100196405488019 7.544965897656755
Ti 4.264701289447504 9.442293739203784 8.657706324409464
Ti 6.940428829013314 10.108978523604465 9.11194276428277
Ti 7.740801378766275 2.569813741392913 8.984960258533363
Ti 4.125771355616838 6.717193046060876 8.497757929837249
Ti 5.462368874422963 2.400250652984355 9.709348842783205
Ti 8.673551871848433 7.820306422560217 9.073253192333176
Ti 3.485170086957122 4.214608788892932 9.239944293537514
Ti 6.176460152447629 5.081276620411327 9.690721814563588
Ti 9.27874694247753 4.382212357593052 9.624942800768537
Ti 6.23333964088322 7.789711861392095 10.293510852061605
Ti 7.366978699633099 3.59478263520832 11.481763059662242
Ti 3.9035215978821722 6.288728867771206 10.917983794076672
Ti 4.666503430854386 3.855344766609999 11.601042540220643
Ti 8.324759245981559 6.191185131363335 11.142769377465065
Ti 6.116764497432551 5.882486435718591 12.272690252669326
