50
Energy = -335.46011943 eV
Ti 7.275548876673981 5.392956805048256 1.2483096017707096
Ti 7.362240245023996 3.1209433473155346 2.7537860790411464
Ti 9.073096210196496 5.497834019490178 2.98371505133022
Ti 8.737652743733719 3.8218331810686017 5.045622158742037
Ti 9.556608495429659 6.131502748920816 5.531333201578273
Ti 9.807796989389459 8.147540055518665 3.974371779869084
Ti 5.1176694110376015 4.212591121915482 1.6500578141744917
Ti 10.209738449275935 10.487290359759852 5.892211331827213
Ti 11.173739793172407 7.3653317220265935 6.925828052862572
Ti 7.766927546759046 7.859496784321415 2.024105342657758
Ti 10.548217534760836 4.929532822326276 7.762968558962115
Ti 6.70409801976592 2.9517998958850216 5.573761476996607
Ti 4.72936539649643 3.003080963617042 3.9293469530481175
Ti 8.12345466040451 3.793095316979595 7.891899266921992
Ti 6.3328214922891 5.156633217706903 3.8370125308863336
Ti 5.187745215247007 6.900277965603348 1.9189679902426848
Ti 7.143510865530761 7.561872335991165 4.558811056762341
Ti 8.036712091391486 10.008619991994088 4.014102805926218
Ti 7.0901294160121315 5.833718383176785 6.613874040108339
Ti 8.704913223610225 8.724326896367511 6.431045661835533
Ti 10.87675146387549 9.184960788743492 8.322402270735418
Ti 3.5727962147851056 5.253484969699476 3.4325058088219773
Ti 8.833818035377487 6.862090038188257 8.617680649634819
Ti 11.16108469281519 6.758358163920495 9.623478033969011
Ti 5.619794787199037 9.202352200682714 3.1350127835710846
Ti 5.797148511125361 9.62887085140796 5.689238640897423
Ti 4.314571176131348 7.37564782077417 4.676105114876421
Ti 6.998561891987499 8.942407544807008 8.45534101583158
Ti 9.349161607702035 4.639448524506209 10.138432101206558
Ti 7.396080326336824 11.207822116815533 6.7769216699953185
Ti 4.567822104265545 4.91669323559433 5.95088261350897
Ti 9.13154735364689 10.94389633937423 8.356566630849718
Ti 3.186699784461911 9.256334764624327 6.09190284352154
Ti 5.43390818200148 3.3368920235295976 8.100102847710627
Ti 9.251151926912327 9.249783499437386 10.342158535640532
Ti 4.836699129776017 7.576878816874074 7.433278380621309
Ti 3.423507114453887 4.728728227668078 8.262625439556723
Ti 6.848480357551416 10.802003577582905 9.87713671717773
Ti 2.494530243051925 6.729697424515972 6.776415723622588
Ti 4.677174139128186 10.45607763360118 7.978410993626611
Ti 6.173231879990166 5.805378115172094 9.227007211748868
Ti 9.222960434536258 6.861753876119749 11.412625555793891
Ti 7.025534497319448 3.257916046029613 10.154551587977155
Ti 2.605992825783643 8.842510316724487 8.505726560589995
Ti 7.017424018462816 8.16289675804318 11.241704121846867
Ti 4.6669840768792925 4.2831552578071115 10.62681679758814
Ti 3.120830465411792 6.658315905605274 9.705967486061736
Ti 4.625881123241848 8.952143033539501 10.150577176260205
Ti 7.085880847384117 5.363159313438999 11.70384032760057
Ti 4.887787215453722 6.745847983388495 11.5592367068618
