52
Energy = -349.38673149 eV
Ti 3.8790827875876133 6.727535918542474 10.66804119068369
Ti 1.4798975031541055 6.300527219218443 7.102961618122684
Ti 3.1320083428302605 7.623051752683101 5.532646026108727
Ti 2.0129130933172603 5.503353705814706 9.367625094756313
Ti 2.570718604133297 5.150201432009255 4.932359631097059
Ti 2.4496417249623876 8.111008985699323 8.997781429497024
Ti 5.225245397123268 8.604824445940991 9.279288353121416
Ti 4.950132956559713 11.291673326445808 8.6787980473529
Ti 4.706962223267375 6.8010491879608015 3.4741073094915533
Ti 3.6549014360464342 9.662506800629567 7.012746715078842
Ti 5.106132000509524 11.75115441295122 6.0635376940220365
Ti 6.331597264707484 6.084090105464536 10.24465992765352
Ti 2.7853986827831125 3.8593720585571463 7.4252595352498
Ti 4.110487100694607 6.4133515984684015 7.946324619500618
Ti 5.051600976056371 5.056793838956087 5.77396354947632
Ti 4.372180907760021 4.216454835638092 9.621154734546753
Ti 5.334621617805576 4.2484028065915425 3.184429111554999
Ti 5.861496921645346 7.683865010694225 5.841774318935418
Ti 7.464328680703889 10.533285172589183 9.743334776189592
Ti 7.22437362843723 12.164129370016456 7.383285120641814
Ti 4.683093347599008 9.707397810707933 4.547275750205038
Ti 6.80071709015292 5.592641194043126 7.623190579050686
Ti 6.748748174975636 8.397134718612401 11.420065817344858
Ti 6.407548312326918 9.74318317461386 7.250387383828099
Ti 3.9597746568783996 2.858316573611635 5.233884163417621
Ti 5.316273692815249 2.845684174277464 7.542635572588885
Ti 7.06795535865879 3.699163666159447 9.512840014553772
Ti 8.245411622500654 8.017539390781163 8.99451816735464
Ti 7.171462766415013 6.15147496272872 1.8702730258479214
Ti 8.590615139699173 8.055254848034073 5.928627248302976
Ti 8.686329569926723 6.518438244256056 11.297231235030301
Ti 6.576103246140388 8.491433761829187 3.1480699725490435
Ti 6.703617317059244 2.9944545973811976 5.0495169705180505
Ti 7.479070021482652 10.349643292471145 4.884471625423562
Ti 7.205489007159119 5.85786623375015 4.297112976686203
Ti 8.098358217086306 3.2511456175320244 7.193369665780165
Ti 10.265796466415594 9.954253293690378 9.525148307018817
Ti 9.242091304326882 5.459072622095909 5.996404171862164
Ti 7.885248376813991 3.7425464755318916 2.7391039017120207
Ti 9.14816069540431 9.072219688326866 11.443230726046743
Ti 9.023268654828366 10.261643260617248 7.300164473197262
Ti 9.042460731911923 8.044128820538361 3.2715382882493538
Ti 9.194466729143924 5.369941915847131 8.743346228430553
Ti 10.734877782680941 7.428122668109687 10.068175488075664
Ti 10.809142223875265 8.249246928843496 7.466942551730987
Ti 9.856419711681971 5.450733901183921 3.1068536749330526
Ti 10.655435535536734 3.5228212068530773 7.1180948762531004
Ti 10.310209297399604 9.752335701712484 5.065399072425081
Ti 9.549025243337757 3.1362233824348578 4.6111341941873345
Ti 11.167211607547047 7.245862681925908 4.8129063422585805
Ti 11.615653334068545 5.88535720022397 7.235529964772122
Ti 11.602368847482726 4.6481655133121444 4.961997861834943
