53
Energy = -357.05083733 eV
Ti 3.0028949210534464 7.4402620478124835 4.788391909930769
Ti 3.0799860036240467 3.7065535525160596 7.449330981441495
Ti 5.318928134029687 10.810387936345482 7.329127858894382
Ti 4.057755732399561 2.8860640023299027 5.023861058326357
Ti 4.587022508605831 5.769359691879294 8.704964255817476
Ti 5.506268455665795 8.799387661310492 4.749255448030089
Ti 7.093567240067527 4.978176670337121 4.9778784106741005
Ti 6.313965872634357 6.881040399880027 10.855340660055758
Ti 4.177789623985394 3.1345236308545577 9.736013232722192
Ti 3.3788752739396477 5.0798129346076415 3.2571215215369684
Ti 3.859108976879835 8.612421550028495 2.6551500265798835
Ti 7.430045429927721 10.53323047960906 8.964393422137185
Ti 7.9474722643017275 11.588218592793995 6.537050497207309
Ti 6.561050196905193 2.1820984871865683 5.1651867891223775
Ti 5.0828551620579665 1.371971125737214 7.4595538211097345
Ti 5.84020759238604 11.613603717448417 5.041063744146214
Ti 5.422735680421313 6.48871653997828 3.2451524651631893
Ti 5.674879067457945 8.585708553510562 8.94908034081781
Ti 5.832569750033141 3.6745838259548127 7.45268015208379
Ti 6.435639971194244 4.169926073673433 10.890474125980914
Ti 5.83624750848295 3.652120078917456 3.0636492094650807
Ti 4.390290064680664 5.43425471419035 5.720107946504092
Ti 9.878891491492585 5.456139772538124 3.886931715491235
Ti 7.837123912030423 1.860401989865904 7.366510237424561
Ti 1.9456008047674107 4.782565663831592 5.245919864478705
Ti 7.787607496901337 5.540145510517237 2.4152031652961785
Ti 2.1690131387425478 6.496571608500615 7.453160150792621
Ti 5.250265395269249 10.722611247901417 2.8923433083580266
Ti 3.461236451976184 10.276403929649533 4.875218267049183
Ti 9.04991056436346 4.116613608292642 6.481143103228288
Ti 9.576974108741657 8.154611823350116 2.6298212324416617
Ti 11.37342695708347 5.4950927949609865 6.206438173717797
Ti 11.223394490891664 7.508540127250699 4.666376269547119
Ti 7.536948508304922 5.402653512642051 8.505008598257376
Ti 8.470432161959698 3.1635237865159906 3.7205023988896064
Ti 2.245063884908426 5.086485380144642 9.656491231625694
Ti 9.134367015431977 6.89681787484162 6.501435373312547
Ti 6.572230058535616 1.990467914423621 9.559716464868186
Ti 3.9010699020668786 8.372868299995705 7.224247251126011
Ti 8.048059034780195 7.584302539603578 4.2701358554484345
Ti 8.790585041378174 3.331898251612572 9.481016628558635
Ti 3.1820664702711725 7.583515999743666 9.862725878967186
Ti 6.612334971317653 8.516732137727438 2.148787974016738
Ti 4.151845243491551 5.4607056481965826 11.325884184332734
Ti 7.801097581766749 10.329763275563351 3.672236166023979
Ti 10.117847162460762 5.703398108266413 8.589087875414402
Ti 9.968358732444194 9.620476859276327 5.300138442919215
Ti 8.418860797449184 7.910553750532478 9.158873094624932
Ti 11.243378672706926 8.074704485755545 7.225006820363827
Ti 8.638273692814247 5.639916664601276 10.855880268088686
Ti 6.210092168333443 6.91058218279926 6.787734736562297
Ti 9.68536970243735 10.093379441855092 7.927058496395665
Ti 7.504032667922555 9.141047256117428 6.710052608407694
