51
Energy = -342.36484849 eV
Ti 9.159800608483348 7.188458207512627 11.313171811660371
Ti 6.630258639813263 2.8348096382613477 10.79404535480386
Ti 8.017355492855225 4.963392364199694 11.200307722586281
Ti 5.029822965604213 5.009242304832459 10.98485815566615
Ti 7.957814216238216 9.17418119583905 10.256517035639938
Ti 4.441480663238216 2.789989305066619 9.280680406533538
Ti 10.42167784775661 5.573407126045578 9.67858310469053
Ti 6.436580175836635 7.26662896129244 11.150230318232456
Ti 8.870050872441132 3.3677751475665576 9.243524915417927
Ti 10.481817738168273 8.255725653539473 9.26861772779468
Ti 6.961377750196644 11.486514166305355 9.333902803037802
Ti 3.379155354013107 7.4167874051825375 10.283209596372409
Ti 5.081620213948087 9.702216220518247 10.099457736810843
Ti 6.351150264103037 4.368993417699335 8.626964055106548
Ti 6.798627366763885 1.6580071896447435 8.677912106071206
Ti 3.0556533438462887 5.047682757882991 9.300048612706949
Ti 8.105691038603144 6.624558898659946 8.926314791537665
Ti 11.337285717835638 6.723636460737684 7.136708526349619
Ti 6.487944862708982 9.291833854965708 7.954466872430966
Ti 9.47927866046221 4.888016611926146 7.029840540372196
Ti 5.466144295938999 2.511403156495246 6.671424781374739
Ti 5.1368364328957465 6.959372894630967 8.740459158424857
Ti 9.003183111441832 10.234711912134562 8.039266654513705
Ti 8.088241178780875 2.700707664639685 6.779195113768708
Ti 3.728088892676051 9.101054614542408 7.707520750767233
Ti 3.9449389222109645 4.543136915343351 6.9881571115982295
Ti 10.190696706041198 5.524636281794046 4.381865519376855
Ti 11.147008929364349 9.213714582688798 6.9014990831505125
Ti 8.941498293413757 7.721167534502946 6.5736147993222325
Ti 4.758842108096595 11.437117758576303 8.099800800154638
Ti 2.6271645075331165 6.877344167806479 7.387777549261083
Ti 3.015955457649077 5.8675961964759225 4.820458316401337
Ti 6.741439911170004 8.953559364838865 5.370825665835191
Ti 6.935419228673908 11.792372779209675 6.686131732584447
Ti 7.69084613301356 6.561526715588865 3.982962464151357
Ti 7.082599825219614 5.334892193522014 6.351056657605048
Ti 3.3061552798177716 8.52075432853525 4.821688409297368
Ti 7.997231199465096 3.819145930031957 4.211673372928108
Ti 9.132207867593998 10.36750016650096 5.438242831250233
Ti 9.760047311263733 7.2216433977955 2.2382709486994528
Ti 10.55047109643891 8.12119209877417 4.572639911361535
Ti 5.018164087888478 7.022566643017026 6.093419023159089
Ti 4.709187967136466 10.756606141748906 5.543347273372665
Ti 4.944705277894637 6.830937823530659 3.3078196059939073
Ti 5.489951313425948 9.293656082224533 3.098212664462266
Ti 8.332641669514555 9.226462766573967 3.125764392660757
Ti 5.3799892820144475 4.490348274794062 4.633633331981209
Ti 6.848946756735815 11.22146808431138 4.1000142135857995
Ti 7.203802880257879 7.192229204433794 1.4939475248513379
Ti 6.373906586480883 4.814564135482746 2.237589373488826
Ti 8.85029116750175 5.047147488345521 2.04029368169419
