50
Energy = -335.09850459 eV
Ti 8.043178877497484 2.430504381913752 8.527341428813697
Ti 6.362588676563401 2.2350878511241863 6.965475449322655
Ti 7.754821003672889 4.338391471021987 10.451872378393888
Ti 8.559232908612461 3.637728127152374 5.981884807982388
Ti 4.012997487196974 3.3788155670454496 7.174603495242173
Ti 5.491036057438741 3.2694451036082333 9.330945100991741
Ti 9.988558099357244 5.9827477619031395 11.338320650891019
Ti 9.683516927527196 4.4141062811073954 8.879340768649273
Ti 5.897148688059927 3.8548473537018975 5.143075666001469
Ti 10.98276545683523 4.595850679467185 6.673377307154344
Ti 5.671003713827339 5.933195725174224 10.259732994468239
Ti 7.43230578022722 6.341886406029091 12.2331940506977
Ti 7.023515873347412 4.87669070637373 7.749816301412194
Ti 10.021953862894826 5.161717425345222 4.200412414480938
Ti 7.882590561524869 3.811570630742757 3.2967682760802237
Ti 5.679866823417951 5.104869210883753 2.6260302987462034
Ti 3.9185961644824814 4.991563672197043 4.810474626137484
Ti 4.591376228394325 6.1930449739571936 7.21120038575237
Ti 2.1160674557160024 5.035278466701912 6.871083256929029
Ti 7.34692916712424 6.066460062783872 4.6292196322769135
Ti 8.430755050233579 6.998057332219264 9.676294633593434
Ti 3.2615413579463044 5.0476142970527205 9.243046509972627
Ti 10.987776463710807 6.507742711623817 8.57876345046781
Ti 8.86488164566038 8.346328394466878 12.087859828277434
Ti 10.616673552702718 8.474675364600847 10.37386624158392
Ti 2.1829802609111333 7.242491398350033 8.000752639604855
Ti 9.105197609197372 6.581940371783423 6.548677240032985
Ti 9.841311390170848 8.828698245063144 7.892095932129023
Ti 11.453530961389399 7.152139310427309 5.939029665264431
Ti 5.0738728828763895 7.6748494219130405 4.65473920789301
Ti 6.409843822485742 8.51521505815548 11.103167084969893
Ti 9.896693595075226 7.502334367790436 3.78309894675511
Ti 8.139360805098221 6.190538337362407 2.160888606097542
Ti 3.440076378045158 6.416419740428936 2.7587886977152483
Ti 4.143929871713178 7.7609778819004305 9.516670839149649
Ti 6.612998748273126 8.046399616351348 8.300347009975411
Ti 8.26807089018443 9.831142138700136 9.9385843715253
Ti 2.569884022757617 7.320464816251106 5.269711713161433
Ti 7.279391655030831 8.818661976298712 5.934726013995025
Ti 5.818328054065251 10.427656704732687 8.700096144194662
Ti 9.769015920428677 9.509759646331693 5.351556689264832
Ti 3.3319678277630347 8.792421303739511 2.899920400335681
Ti 7.787687009983681 8.712848393652019 3.3301773369724383
Ti 4.196136065065022 8.897231108547444 7.146529068052786
Ti 8.132057995082105 10.909171231313419 7.323421298468818
Ti 5.650810413042855 7.720600371633836 1.9674672457050701
Ti 3.420252000806368 9.95463636488087 5.096415364040107
Ti 5.683349778931708 11.080552999854747 6.09475686604605
Ti 5.543715677516272 10.17145799722154 3.4748462393115616
Ti 7.790452242783218 11.075765001767234 4.662129187668429
