51
Energy = -342.13075364 eV
Ti 3.8570227200177385 5.083155736445 3.9702539709848828
Ti 2.402984316291768 5.594389309298342 6.146254819494742
Ti 2.7279887660709705 3.187978340543863 5.608053464416414
Ti 5.0494744611239 6.724345897770343 1.6824924743850158
Ti 4.952618652772108 4.120292862049376 2.094206731085127
Ti 2.295765022715871 8.438662790820317 6.487845429169004
Ti 4.336095919084033 1.947645218423215 7.045719398914719
Ti 3.18912206185141 7.758953460648036 3.551800304429989
Ti 4.986649932328419 2.3048431692723965 4.320743704999014
Ti 3.1928483493936266 3.982181747041869 8.212230191706404
Ti 3.543284402519276 6.680997286196067 8.213419760407648
Ti 4.967770213635681 4.519802545735022 6.271805405507124
Ti 7.5177517786488774 7.714314575091655 1.8362587509968598
Ti 3.848390863249701 9.955765448764371 5.195956057228439
Ti 7.315383231141792 5.04186762077034 1.4557182158385962
Ti 4.934020808357002 5.346666901590294 10.58867576381902
Ti 7.752810926916008 1.4379485695790712 4.098104398056398
Ti 2.3413284945083563 8.79239112535587 9.124347774191556
Ti 6.7473861334547856 1.6962338965808814 6.515134460823614
Ti 6.780752898332125 2.504705125199539 2.09451752224847
Ti 2.5213047008611884 10.834799914076113 7.4917833298026455
Ti 5.753030887219422 3.076942538450988 8.976425223454154
Ti 8.726275627758506 6.093564526492195 5.878293808144851
Ti 6.359933058432439 10.311756093540462 5.486765215353641
Ti 4.770091247747105 9.307165040982415 7.7938873726798095
Ti 11.078458177754046 6.471127206292691 7.1951081658120115
Ti 9.43226423255201 8.531730600268883 6.856864993383961
Ti 8.910193522621839 6.517899075514196 8.764548246967873
Ti 10.823080973042394 7.315198068272615 4.822123554091915
Ti 10.840243697659488 4.646230692621613 5.222052566891037
Ti 7.3557516585370974 10.645551420093538 7.553725871100274
Ti 7.689485742485975 4.450944772271733 10.000611086392627
Ti 6.921370339443923 7.923780355559511 6.802650836683297
Ti 10.158560831128975 4.186471636794376 7.879523589829877
Ti 7.172146174949781 6.878057769449178 10.981973128529146
Ti 7.72408401840135 8.814032913014238 9.342376511723996
Ti 6.127278053577792 6.163546048834856 8.632934591639058
Ti 8.306643441225656 8.362028240479058 4.346311988454659
Ti 4.930819126087929 11.89168160348398 7.494698460127595
Ti 9.24345362063387 6.089652434879084 3.1196287809159404
Ti 4.963695489116757 8.237524915847215 10.22310204911137
Ti 9.229400616373963 2.6406760055253815 5.832443668503554
Ti 6.104247645611178 10.871806856878882 9.734910475017488
Ti 8.351729774959452 2.194842994067679 8.447342849730791
Ti 9.179024082685281 3.4080101620818595 2.98217312956208
Ti 3.7462673936675808 10.829806663747775 9.755126215326557
Ti 7.5248413649966865 4.286952186814656 7.306907516865034
Ti 7.025276717056312 3.9477948607924698 4.3158045135521
Ti 5.549417944701978 8.926307782696314 3.26317749130029
Ti 4.616121880222487 7.311812023422785 5.586618592957915
Ti 6.510248234936615 6.383353198439639 3.7807578062543903
