50
Energy = -334.95145409 eV
Ti 3.7140671535152476 9.592732062467858 4.630574988096763
Ti 3.6268606225955624 10.382722263414127 7.094663606963332
Ti 5.0987210917755235 12.151910672655315 5.26569320089785
Ti 5.510725087418084 10.276084290846123 3.1748108028795614
Ti 2.821364850701564 7.700392669600398 6.219461573785536
Ti 3.0240960858553327 8.760843063831253 8.887987915086208
Ti 3.7019117155305126 6.414020119296396 3.9133838645069003
Ti 2.850701980604442 6.170631346512517 8.366075303846461
Ti 5.691455590657258 11.81383813127201 7.896090112812906
Ti 7.464654464626439 11.681919898587093 4.048351362863369
Ti 6.131331259749402 7.625969141858974 2.276224379113797
Ti 5.889496287073066 7.768740624551438 4.731540223849037
Ti 3.9942300911023847 3.748913498762526 4.174606647152146
Ti 2.5755766789638086 4.757691787688882 6.018279729883221
Ti 6.243647607318207 10.032612040895563 5.921987792401239
Ti 4.701779685382726 7.195499108808068 10.202055030595774
Ti 7.66423011325019 12.190815207819178 6.476600664707108
Ti 5.069682692833923 5.4778113620583175 5.889396097347122
Ti 7.855768954026729 9.266548510682677 3.185068766235676
Ti 5.140465834146186 7.950452666628933 7.499767571787367
Ti 3.8013402684208826 4.673028224823244 10.444340425352035
Ti 5.592497779332203 9.640014086002754 9.371094303950654
Ti 6.027806383619298 5.143216415984673 3.269750848903269
Ti 3.1479299571987505 3.5900210414998837 8.371967737804429
Ti 5.57036139431573 5.135154977174235 8.435284172592262
Ti 7.851863963117105 7.672167368527605 6.7414321012899405
Ti 7.157480308806685 7.195726948582193 9.537897779133683
Ti 7.9574159465444785 10.006898047816174 8.127371717906675
Ti 8.92897673572081 9.856738435707848 5.56908095655012
Ti 7.759587954712455 4.9014519125837035 6.195396392482112
Ti 6.5062017707456175 2.8506283640984154 4.687338187376001
Ti 8.25400388314481 6.780490799225253 4.052996800604636
Ti 8.513291277543477 4.287442859692798 3.5728726439447684
Ti 5.477002548073216 2.817524996442161 9.488462147372783
Ti 4.666402173849099 2.7713806640641536 6.648156996903778
Ti 6.287436859295369 5.09144213519371 10.999258134005602
Ti 9.754898602944508 6.27931962413278 8.123690143708503
Ti 10.384292541048787 5.110421653270536 5.567525085885492
Ti 9.392982742755834 6.335055868877861 10.902333542911038
Ti 9.400106976179808 8.527192918603664 9.901508759436886
Ti 10.618764856107806 9.021634118415925 7.690025555531147
Ti 7.205998515088355 2.453701596869396 7.309888627437573
Ti 10.405571816654083 7.770528757780748 5.30964800963407
Ti 9.040263605277966 2.6631973523410712 5.349990710373537
Ti 8.046448878257321 4.262081968707987 9.400903243228996
Ti 10.753603546502184 4.567454427050927 10.008237582909576
Ti 11.73515172887354 7.11574727784752 9.516820564881058
Ti 12.063611838777318 4.875243211077731 7.906078341216385
Ti 12.0768249438445 6.988301492132951 6.798726766776507
Ti 9.751557732234575 3.496780880204578 7.713042385849116
