50
Energy = -335.93664065 eV
Ti 8.711147934117427 7.921636916119669 2.071679265830625
Ti 7.610623234119822 5.82865737533786 1.4936255557175642
Ti 10.022677686041153 5.490819280998111 2.6994401234528858
Ti 8.129618187795593 3.605532231443654 2.99039807667341
Ti 6.015114379914125 7.7216368358366205 2.913391304886341
Ti 10.535139851214243 7.888461742562483 4.0436132024620814
Ti 10.294302422166691 3.388883841824434 4.38325283751629
Ti 8.116976791221182 9.193679512465414 4.389909769997821
Ti 7.923004826340749 6.373983337638918 4.054275401973571
Ti 5.580270160997355 5.046665585309088 2.768420476660907
Ti 3.2674673495974016 6.91435943101557 3.914040771362977
Ti 6.18388581871304 3.432076107967282 4.7504379411137245
Ti 8.353789558321616 2.14976045366313 5.431856524166815
Ti 11.217355400111469 5.538214434536965 5.351627350282136
Ti 3.419338578841435 3.912485856759112 4.50360386938098
Ti 4.073298864676794 9.207232445772316 4.620298282103279
Ti 8.441186895093296 4.741029254608629 5.978699915703284
Ti 10.315871934988687 9.819665191413387 5.940547623618994
Ti 11.82766369162519 7.779249945977719 6.433008906763059
Ti 6.393918785203814 8.100824170707977 5.827064036580561
Ti 1.8151062447656199 8.269192510506198 6.008178353522872
Ti 10.3829658842578 3.448682187917145 6.968137716248036
Ti 1.8903309805693373 5.542293750127986 5.6383102717052624
Ti 5.380443931633882 5.814535135158258 5.1796887223369215
Ti 6.060423813786858 10.68748352159453 5.819511619623135
Ti 10.511334364388016 8.79858339751886 8.369568073804679
Ti 4.577190365684379 2.111263409048729 6.084426931840553
Ti 10.83174347528333 5.948764396658848 8.025751073157503
Ti 9.133304560381541 7.480678028678521 6.503846771508194
Ti 3.784212870938653 7.312569552274015 6.784072016179284
Ti 3.7618050448520504 10.190010097601574 7.09374282811512
Ti 6.760165827245726 3.2390402146302644 7.492218321935076
Ti 1.7741887907636384 5.847807513827269 8.073484780961177
Ti 4.199928199540207 4.579208048228711 7.345895581946058
Ti 6.591222719445207 6.003641689377163 7.778729446477394
Ti 6.0359190811660515 11.282136874400159 8.213186485190484
Ti 2.200467405636883 3.109829135436492 6.971770719937209
Ti 8.578966493747822 4.790883406170126 8.84381286366653
Ti 5.65356280760306 8.539809026075199 8.505237719559204
Ti 8.45385920848844 7.5430142105635145 9.11118395007973
Ti 8.118794649651429 9.812416523755864 7.502423444124597
Ti 2.8147747250299857 8.508289045946652 9.008746289113889
Ti 4.298333242859224 2.146009830562092 8.479843659510015
Ti 4.022498400216273 6.273503071354379 9.80221226661793
Ti 4.364232526386718 10.546371613799062 9.784017534683668
Ti 5.609328331630336 4.185916192853865 9.713970227186595
Ti 2.8834646324454796 3.927698231325554 9.541003851156011
Ti 6.571241099766068 6.868257672011398 10.571933190417475
Ti 6.969892969009857 9.759226838498208 10.284957076343382
Ti 4.647202456407808 8.487588376823949 11.050504431487788
