52
Energy = -348.24459862 eV
Ti 11.666611417497048 8.398989228769798 5.507072329907964
Ti 10.491221180212012 7.367472228336679 7.8052145660883925
Ti 10.162568317237293 6.3501867703076575 4.4807118045720955
Ti 10.360827200439873 10.91201586814315 4.992887615614345
Ti 8.116104247700646 8.49514344976273 8.421885670717966
Ti 10.502758074135153 8.705760471755795 3.342666049666598
Ti 10.731304373016792 5.189318612319225 6.500944735523501
Ti 9.921093187062707 2.8183299687582544 7.534904523766605
Ti 11.002547677476091 4.758881194214605 9.054673399185155
Ti 10.976946717807207 9.901165694514983 7.4021411031374456
Ti 9.266863400330752 6.852939314267829 10.238260600956822
Ti 9.754356878945773 9.578709262523576 9.749484980248202
Ti 8.945693760896097 8.928234234054257 5.588481078305707
Ti 10.953140914669873 2.030790127413492 9.680574511437076
Ti 7.285817955160324 2.6718977790316147 7.288828565439754
Ti 8.510391805798328 10.079728507231607 3.136870715343362
Ti 7.928950258664118 6.762210471563765 6.312616634399413
Ti 8.089890540847527 7.262883547455304 3.4846104478532958
Ti 7.008674481507457 5.7599593075820845 10.892812205914314
Ti 8.163777550595237 4.476259234311256 5.387323213093812
Ti 7.381287041857998 11.246880457618257 5.20888560773636
Ti 9.094280019858111 3.621325019048152 10.328177359129475
Ti 8.665676033864333 11.205468643870303 7.490575790511968
Ti 8.398417307720065 5.14287003247932 8.30609746838552
Ti 6.39884367786912 9.360126000014418 6.928807479646327
Ti 8.503451846394533 1.36804188839148 9.247368385297902
Ti 5.769879241182797 4.780999772700397 7.245841066027052
Ti 7.295508233036452 8.55268206918324 11.040847747144447
Ti 7.347844658646912 10.859991422390852 9.675305324471568
Ti 5.75691670058919 11.635904402051226 7.64900431913973
Ti 5.8893992893265175 6.96020694846048 8.77553672135109
Ti 6.4653783926049355 3.442919282720741 9.622004246397651
Ti 6.901865399045119 4.850305302719162 2.9212620089363353
Ti 5.5567142327205294 6.201205261474204 4.847818560539428
Ti 4.954422938376947 7.375172051301424 11.213131030383998
Ti 4.393620974432476 5.0333414503031975 9.94319643116782
Ti 6.238680931982081 9.004940327989928 4.072258172833912
Ti 5.782188388965896 3.415084095547461 4.753738707666817
Ti 2.953569521225774 5.375655948764353 7.633619881897993
Ti 4.176578535439033 7.693902216069632 6.541327778807594
Ti 4.507586529503069 10.294484908536292 5.269596648981244
Ti 5.170462859200533 9.505266503492276 9.522462883011624
Ti 4.420033551694482 2.844600176561512 7.905338592591062
Ti 3.263915082879541 9.904206198291298 7.629788589821042
Ti 5.786987252290503 7.021970801251121 2.2356139337048235
Ti 3.2079234567091355 7.526049353587499 9.282709094166586
Ti 3.7488349130229244 7.9217848976764405 3.4591827094239633
Ti 4.116770622591856 5.095870721469051 3.072450747880961
Ti 2.3390319437387816 6.352980498231686 4.9923330695404
Ti 3.6198746866515688 4.117605985739546 5.548089091959978
Ti 2.237717588180099 9.03670018122232 5.312515492607699
Ti 1.5994353414082825 7.707594535625138 7.269378552731188
