52
Energy = -349.62903619 eV
Ti 10.19020164904862 9.048525883223384 5.056136441465103
Ti 10.301836531769636 9.642447936547006 7.81812356487576
Ti 9.259807598971722 7.6991957332422025 2.573972357224277
Ti 10.861752401209053 7.110095398049549 7.3014569027810206
Ti 8.514247731575095 11.007808034042567 6.3208296027786846
Ti 7.920230002604105 10.077035525224892 3.7930018061626942
Ti 10.440877656684812 6.338729931621168 4.951669318446652
Ti 6.224545976472432 11.796649703040549 5.132436046846695
Ti 6.582678294974686 8.649652223315297 2.0529850055415007
Ti 7.915342231746996 9.980282559165536 8.85095707424957
Ti 7.9081326026692045 7.183097520509297 4.17474076476182
Ti 8.44926251676597 8.244097005195947 6.752865644798047
Ti 8.782359551466174 4.432345076347809 4.269042686619948
Ti 9.904217740527717 5.035284120605885 9.506126089746532
Ti 9.08398152844497 7.621049552811953 9.34086448775757
Ti 6.081235740390029 11.156323817473886 7.619494339289602
Ti 10.622151444487551 4.139005981658161 6.605111311948463
Ti 4.980744390086093 10.310592972493364 3.4153634588251753
Ti 6.158265704471628 9.25500008844541 5.701464295504955
Ti 6.302048172552901 6.24902994029833 1.9938828564950675
Ti 8.66424656932249 5.541419641970789 6.937195253245951
Ti 3.8846503827149657 10.605746599601966 6.152540128652281
Ti 4.919926910443767 7.475795600619031 4.00572038186542
Ti 6.295711076696986 7.845373346067404 8.13815858106696
Ti 8.189020044586071 6.07006731084754 11.4118242476568
Ti 3.8690549089003716 7.8632626814180915 1.9671166050733915
Ti 2.043089322704093 8.660630700746509 6.978429110813627
Ti 4.239920814386679 9.431869307238175 8.538077633270296
Ti 3.884343336976753 5.318102541333253 2.5945386281504748
Ti 9.153923578311769 2.1843843912944605 5.9028825448921385
Ti 6.338211932151035 7.710625573014273 10.563329324358289
Ti 7.245317637025597 5.442166491228296 9.046343307872778
Ti 8.77904067962001 2.910317797407092 8.45682784201657
Ti 2.756046422869273 9.195064623490055 4.318590176629792
Ti 6.914488123927422 3.4957228097661606 6.412504412313923
Ti 7.962238942143583 3.666294353127648 10.899642738494196
Ti 6.307879351946426 6.266597549827667 5.896249923347406
Ti 6.047756780577693 4.358974677355137 3.91884575988262
Ti 7.296028968303931 2.019346262901615 4.2864283394212945
Ti 3.9383365027668082 7.403080187439076 6.479538189400639
Ti 5.625537800619629 5.034968626485082 10.99572995065708
Ti 2.240624476914444 6.79709662598995 4.301354665084484
Ti 4.065354325660387 6.65852559628382 9.17752653433639
Ti 6.069752284111195 2.754585367762595 9.425310795314136
Ti 6.8630409939399835 1.0733699960040681 6.86166041427812
Ti 4.882258860892923 4.625633727165463 7.5644577059949
Ti 4.783192340225958 2.1592312700270964 5.2651635237827445
Ti 2.33417184052112 5.481816736196397 7.400047639576138
Ti 3.717724289633745 4.791038808253725 5.1255478694704175
Ti 3.402848224777184 3.7684895085908323 9.388761918572557
Ti 4.488775288905933 1.767746065675766 7.874780971189598
Ti 2.6839412299783874 3.016779931033815 6.8547245366766365
