54
Energy = -362.29329902 eV
Ti 9.707734326956547 5.084908730722142 7.135779796169094
Ti 8.069984910726987 6.547517486395645 5.610625466857387
Ti 8.574468072548417 6.900599729091763 11.399803842501125
Ti 1.9763243528163381 7.443947860572749 5.1154237778036205
Ti 9.7260688562537 8.410488430565646 9.53737368463017
Ti 10.033589980337357 5.394211784895558 10.042270871829244
Ti 6.906663607742333 8.508830970071587 7.203505998957997
Ti 7.244962150329467 4.665697233249867 10.173745957336084
Ti 5.207426294125183 10.066392083800036 8.517625244679188
Ti 11.685052281785294 7.15101810727984 5.7730361218330675
Ti 2.864994706035127 5.4713548796365 9.557338093243487
Ti 4.007363100095034 3.3716460924065372 7.8879857523240196
Ti 3.8112180353271974 8.480941931046184 6.78924522623659
Ti 6.981832976289007 7.854392159301288 3.5721885053960087
Ti 11.10614435038391 9.687474183655777 5.421453771317843
Ti 3.70795215239289 5.4130730019385025 3.7677350085104973
Ti 6.839662475188134 4.694861905846355 4.020689586547729
Ti 4.170217068910276 7.965497831954944 3.499035209316176
Ti 7.996710813325175 6.570978078644913 8.692154732968977
Ti 9.869883999406694 7.9231932697959495 3.9366457537014945
Ti 5.698184025277295 6.005928875461514 1.944795725514344
Ti 5.432393957771353 6.646113633121698 5.494620127322463
Ti 3.5020983242412673 8.078808732223537 9.92958327210011
Ti 1.6612719845179942 7.457893898415224 7.949652211229267
Ti 8.619665506469303 3.075007401901148 5.5255014079953915
Ti 9.596528408605403 8.16319491347162 6.955786350130038
Ti 11.565963850252697 6.517736627988152 8.357800115521766
Ti 7.806906622950979 10.2276536769796 9.179925567282707
Ti 3.1766146896862697 5.502093389836489 6.584499203642032
Ti 9.690038356950202 10.790598563770404 7.311331820604864
Ti 2.4346494087496033 9.969741634413793 8.608383645667777
Ti 8.47059737050548 9.974106604086984 4.956446517269165
Ti 11.886016833448071 8.984844330525423 7.882806719645634
Ti 6.4295484317994935 8.182735544386928 10.13366294030103
Ti 2.9638976390047986 9.889879763420058 4.510166999857326
Ti 8.451992538012153 5.9318977107671715 2.223198093704687
Ti 5.057808576242557 6.1966018822909446 11.126441938170462
Ti 7.100038457781639 11.202329316997716 6.880986589298491
Ti 8.516865163440318 2.9881149673300147 8.228764382438792
Ti 4.712880669895341 3.534687417834308 5.248413450739614
Ti 10.007690657825398 5.210965763831121 4.334680617464125
Ti 5.617388731431874 9.713056365186082 5.168237860229419
Ti 3.6198661000570644 11.151512252527588 6.622202242091665
Ti 5.088534862922627 6.367838713506072 8.505140227843647
Ti 6.57956216925628 4.558764477926859 7.242731403375962
Ti 8.994135354839527 3.3716466297406367 2.897023829567867
Ti 4.761532688257136 3.920104246023571 10.245828433590765
Ti 4.852167418107047 3.491133012332234 2.542231226504795
Ti 6.817030808329337 2.114814786521703 3.605549632838556
Ti 6.254951928465181 2.4163663789144034 9.049411548747525
Ti 6.465849412152998 2.0047400488732077 6.605063482270951
Ti 7.06800495812388 3.7988191323567726 1.4369654202487798
Ti 1.3539112706451166 9.668679684134059 6.400606759503149
Ti 11.51140387833119 7.512995503426044 10.838303835049398
