51
Energy = -342.54393244 eV
Ti 3.7368226518511434 5.358006651849715 1.9526596535085983
Ti 5.070593770934635 7.218469178010024 0.7317523937857688
Ti 6.303838280943575 4.889243684068455 1.43656552564281
Ti 3.1239233779879854 7.698755789039907 2.5482004812519765
Ti 3.581699095438653 5.8597768579694245 4.654187045637346
Ti 4.924341515892171 3.7785001405684264 3.4398427334090758
Ti 5.328846336904645 9.38048690362915 2.2733037971041075
Ti 5.56287059021883 6.942501250622226 3.29170795804351
Ti 1.6664304741418368 7.23244701910501 5.667894200714215
Ti 7.48320369863865 7.627324609376403 1.6529499524914186
Ti 3.710601097232812 8.842402953129957 4.685837428103387
Ti 7.475976459328966 3.049997919950563 3.2636797708051883
Ti 5.675076427845158 3.370711755318905 5.99446414379234
Ti 8.340769176682631 2.1373139063176922 5.931315943022675
Ti 5.651310521942388 5.925829094895888 6.411639684733372
Ti 8.675441981911224 5.284487735188571 2.2407235413394377
Ti 2.1248228394162987 9.581307944554199 6.835439640514808
Ti 2.975837600424114 5.1818414580974785 7.184292308860572
Ti 6.5029684486020605 8.496944250390962 5.4216034771501755
Ti 5.4024317784470055 10.84030043145168 4.463763872516575
Ti 7.134134343884752 5.193107227290495 4.442281698248666
Ti 7.756357826404671 9.782206007537013 3.417529529130828
Ti 1.531912584410932 7.329639757423457 8.215918726742137
Ti 8.937471513455206 7.250504338349285 4.021399627946925
Ti 3.8533811710391968 7.7339190832638005 7.136204267186043
Ti 9.635826494359225 4.333118749327168 4.529335734222658
Ti 4.936351860691955 10.16109044333268 7.056645343173897
Ti 8.309285716982643 6.799831091958873 6.721398369194274
Ti 3.239207929460494 9.1150962269368 9.360759691106521
Ti 7.355814809965039 10.983497407992905 5.909666215224894
Ti 9.193491622627159 9.08437719655147 5.741110093646022
Ti 3.375512494177368 6.339738077327284 9.730260600808492
Ti 8.135082595122835 4.3128374942065095 7.059020697261851
Ti 5.352702578032354 4.440036720299915 8.701725215849939
Ti 5.861341744021825 7.3390683166436546 8.79053603979288
Ti 10.73010420846838 5.993525556240223 6.285012232609233
Ti 6.7267662988455745 2.215808270562732 8.080437454977046
Ti 5.806958770858207 9.921594950936257 9.590583094018195
Ti 10.664227022248863 3.3365709333090265 6.654829275679788
Ti 7.664149269144136 9.124571291408625 7.8421713318220725
Ti 10.049170548874475 7.6679815213344105 8.55050398673082
Ti 4.917067671510068 8.100878665260582 11.167396079931097
Ti 5.823459390304488 5.670900484508297 10.940048785671438
Ti 8.100292990504387 5.636758690797954 9.378822226405168
Ti 9.259999236554423 2.5067959635249255 8.674882813329287
Ti 7.662326457066262 7.956914785329851 10.551260173284803
Ti 7.24015015323394 3.3011168013764958 10.446020325002507
Ti 10.831648919578004 5.028739568098346 8.708498403235946
Ti 10.157598946327367 6.541518603354331 10.814197663626299
Ti 8.109628497075706 5.576086544420921 12.013379777477196
Ti 9.778578425945755 3.9733279135224038 10.834149190197364
