52
Energy = -349.4341763 eV
Ti 8.282733585815945 6.414241449634141 11.371864630747861
Ti 7.304470307908906 7.308971505085132 2.7233505780003178
Ti 2.6438276069521094 6.4655794430668685 8.776420478205377
Ti 2.1099955946014584 9.647661807902226 5.725965393449609
Ti 11.286419032939039 7.496400346818177 8.217558304232401
Ti 4.754490975725986 4.556082543315592 7.924919022618575
Ti 5.542203030204592 5.150326539268893 2.717150595610726
Ti 1.4308038090545487 4.531469555231745 4.356926491481253
Ti 1.393481156260593 7.212517725524297 4.630315204978409
Ti 8.497316904790404 1.8827684852110513 8.211359464433162
Ti 6.138553085480348 6.71961222651416 6.92936948344256
Ti 8.719855366654526 8.535549092090665 7.299139383203208
Ti 8.098781590960865 10.429323962207846 9.201275304488474
Ti 3.608235226887655 3.5653585846112685 3.5498599322432374
Ti 11.367856242199496 8.464552661411675 6.064858361430217
Ti 5.751393481734475 9.570941927223817 3.003851227772775
Ti 9.881022866705676 7.6070019298329346 4.214621077357654
Ti 6.998164816892408 8.475974136545055 10.263552541517372
Ti 4.8498457957434855 7.531565087100969 1.6421337072875197
Ti 6.344675627701018 2.8718212103951473 9.562068533482474
Ti 10.367976771080526 4.062101643210827 8.097258383477474
Ti 7.887282496017674 10.974897853956673 6.700008086531849
Ti 5.99400038417436 9.340773359591239 7.8104100354944475
Ti 7.126543007945666 8.776102981874198 5.186161710815237
Ti 9.633973155462739 10.10452429936955 5.210168033621617
Ti 3.122686875872148 8.90407630682583 3.3511388658147347
Ti 6.124353400290757 5.247937215893142 10.303749451447718
Ti 2.884626770089948 6.0859673504892795 2.6565047420568453
Ti 10.40341555415494 10.29148053529262 7.903689021133484
Ti 10.405010719942618 5.8843998390564485 9.984854481193919
Ti 5.0718471558182125 7.317352920650328 4.203493755725482
Ti 2.9762071477089695 9.252447767522051 8.481994578022512
Ti 4.737067613131644 10.16419403701044 5.327635806090565
Ti 5.8277915001616805 1.9714988849219939 7.407679863422137
Ti 7.395006836812848 5.902175263655269 4.932753012674778
Ti 1.2642302968726238 5.299418957005074 6.770950468015807
Ti 5.578010565246455 3.755177724531559 5.354768280079366
Ti 8.641401801336853 3.915867760216314 10.151584626675222
Ti 9.753728802678259 3.3758634595626136 5.660340795154427
Ti 7.55026281440567 4.051505446932921 7.300471519680464
Ti 3.556729946069124 5.562255510623805 5.443524236806015
Ti 9.552907669812301 6.079811006414561 6.50262744830384
Ti 3.821863449147436 7.891790947702299 6.660849042056425
Ti 11.627712547566396 5.757765668380421 5.527258410783991
Ti 7.574765917857739 1.7497754784992068 5.708858177322148
Ti 9.650880634608056 5.236855439062276 3.6295886795415324
Ti 3.004754520831259 3.1836742431636447 6.13095971247409
Ti 4.876508767670615 7.340815510143916 9.17986973103492
Ti 1.1463006952687627 7.8269217397114295 7.207864824312412
Ti 9.689175268929679 8.494853767688785 10.112131960266998
Ti 8.035514485817094 6.358294162201723 8.832778203324088
Ti 7.789626953950043 3.4779933317936966 3.957804972607561
