54
Energy = -363.36650293 eV
Ti 9.110932879323103 9.379712426209288 2.1290347928507836
Ti 6.645417817009062 9.530283080759915 1.592448227433618
Ti 7.388006728523316 10.777238386991217 3.905426563006682
Ti 9.758253394460688 9.344863328577741 4.7922633839203534
Ti 7.807268522686626 7.096494151639879 1.3428231675437596
Ti 8.47836238816045 11.592149852152891 6.4601606916295715
Ti 9.931201136397677 7.14828938017988 3.267204978454093
Ti 4.777534422290892 9.72615874674147 3.4516410706436838
Ti 5.5717012539557 11.136748776810606 5.681079723102818
Ti 7.510240861904407 8.177398275360405 3.749962588489942
Ti 5.0706775718635155 7.456950806431085 1.7949232709325247
Ti 10.29434788779972 9.62081263000594 7.69238798643231
Ti 7.74464884652054 9.32638325538081 6.578363987500885
Ti 8.782535940190096 6.817429232355143 5.7096885409995295
Ti 11.173152055302946 7.5455765387766665 6.40686329822998
Ti 8.35398009583159 5.09022297528432 3.190078587600426
Ti 8.039275845596919 10.098055525589553 9.072663195786575
Ti 3.288089581725062 9.629158733163681 5.881704982470212
Ti 5.155218993578155 9.935013566800624 7.877390518151418
Ti 6.1992346456202565 4.9541605603918795 1.6749238512932536
Ti 3.3257122388040585 7.305662386933258 4.4821435434246935
Ti 5.479578788456986 8.427456604557163 5.667403829708798
Ti 10.132870559541994 9.10460094433664 10.29815792213217
Ti 3.7865305181881395 4.874744723345873 3.0889095031899836
Ti 5.852237641434689 6.128786644468808 3.9314242955455687
Ti 11.515563448818478 7.1114586619835745 9.122575466349176
Ti 6.497808281330049 6.0578607647253735 6.488176194279516
Ti 7.679687063046125 8.326864810240346 10.945532494783297
Ti 9.716216178770381 6.7489328415090055 11.196745569217793
Ti 3.7533257017665833 7.41582720543644 7.499948909236751
Ti 6.385581685434728 7.839596470525101 8.552435110198518
Ti 6.174591184414237 3.504069160049849 3.977252511956622
Ti 3.8983992234791334 5.101980035839431 5.8152172044067205
Ti 8.977321645805649 7.298714131512858 8.622459444450085
Ti 8.150547880132924 3.9340733613174237 5.661001910053129
Ti 10.513330872101381 5.2792215708055155 7.27916225012231
Ti 7.9832126274679105 4.529682385958188 8.12776983694246
Ti 4.653369974525891 7.329705837659306 10.265739210172278
Ti 7.146515023753203 5.819294627357189 10.36948807819564
Ti 3.796917899832433 2.576112392271296 4.2869607559068035
Ti 1.7464191540246568 4.0747095731965075 5.091310293409146
Ti 5.727364023586577 3.4614383874330468 6.840230111193556
Ti 1.5657565098906254 6.550381812640309 6.472328426109504
Ti 4.98318217115163 5.1992838665975984 8.67112501824478
Ti 5.522769758670817 1.2171346395763065 5.746875322787648
Ti 10.021359531754102 4.883922127831915 9.730319877444552
Ti 7.598062320036652 1.8555394361220536 7.630889734066919
Ti 4.612358375830944 4.825060665931519 11.194968417595152
Ti 3.106823620243379 2.1954868208126217 6.740747886095384
Ti 2.612457206492967 5.858235763233236 9.647302330530104
Ti 1.954421050517058 4.321067150703924 7.7282479805364295
Ti 6.385069113649681 3.041456465452009 9.820326751758218
Ti 5.138580437926132 1.298801750452543 8.317174307235463
Ti 3.5360740835615236 3.1298324127645603 9.448712759433352
