52
Energy = -349.72896771 eV
Ti 10.601352978893393 3.428733165770599 7.340319189826538
Ti 10.082881290251768 8.576692478127773 7.997026491772421
Ti 10.473333472224866 7.634826207738709 10.514922868236614
Ti 10.591046526084769 5.704499671935245 5.969399163615271
Ti 9.572365278193748 8.448642819292044 4.338307547280069
Ti 8.900271903647381 9.707155858904366 10.23618751689037
Ti 8.57032592220284 10.026489695341356 5.764224498902284
Ti 10.220766786226326 5.785078560285165 8.566985887547391
Ti 9.631201491472615 3.226704674413799 4.9077073069036485
Ti 8.944218590746882 5.874388000149339 3.9490222504491386
Ti 8.82789424521423 3.5002257366611214 9.407570922133734
Ti 8.978634939320205 5.518475622873295 11.379277345816156
Ti 8.440464081692095 1.9731816476322959 7.07516481691016
Ti 7.595027979171628 9.853718124624855 8.1308693356475
Ti 8.370705709882854 7.318823330535784 6.569012784746498
Ti 8.360210028887725 7.877266101077256 2.10973389822561
Ti 8.344480674543284 7.9711345582424205 11.956274291792255
Ti 8.334541274539907 4.600627570984439 6.9282751960633755
Ti 7.430079054680087 10.0404393919018 3.295823903005194
Ti 8.118769950664555 7.317685063808171 9.34837190385449
Ti 6.90319392859444 7.816621541000453 4.409580272313078
Ti 7.2543291674085655 2.042084534224737 4.814592947840576
Ti 6.214718933457475 8.827581538488205 10.427880759348255
Ti 8.028237279011565 3.4325116343461497 2.7927590270555123
Ti 7.109423460114547 3.7743261134953046 11.478458662687805
Ti 6.568485049042 5.166576547303938 9.212915710343903
Ti 5.88295969302186 8.021559238049313 7.704933045561574
Ti 5.895792324768303 10.138718587357817 5.783261708150782
Ti 6.1852146137536215 2.569026227930006 9.41729009928531
Ti 6.7080486072274494 4.59203745344943 4.733009874122498
Ti 6.877851640982936 5.663065358163237 2.038532042440841
Ti 4.712740839427323 4.380442894972051 10.916683221407403
Ti 5.796683474015153 3.2078859629452094 6.8855302564275505
Ti 6.320304484643586 6.350329284915006 11.777471364551541
Ti 5.548116703492197 5.911849617999994 6.699610272589636
Ti 5.697694272331669 8.111128826563425 1.7770694605661022
Ti 4.506409512083298 9.797854553042344 3.2722999359957496
Ti 4.741002022240864 6.277460559260221 3.631852517313049
Ti 3.3104330576708376 10.721146497677822 5.515890177506989
Ti 3.892060481483366 9.44970446746178 7.802061202953555
Ti 4.06259110343404 4.258480903653008 8.429710185422827
Ti 4.444562190931077 6.806180210488362 9.80252694798662
Ti 5.069306443338287 3.7270627480038203 2.9875590457460506
Ti 3.987931817570444 8.158923433754095 5.4205226150662025
Ti 3.6779816320771075 4.6323959275959306 5.458032420731467
Ti 4.390227771178329 5.672331826803216 1.1489225230335307
Ti 2.8509409963382377 7.626386849018302 2.320328537164176
Ti 1.9115070418346896 9.254973845524393 3.9935529866804726
Ti 3.0115188341186694 6.7458959898233 7.439432247749167
Ti 1.6800554829385728 8.836299760304948 6.4881933563058665
Ti 2.630813308917897 4.974481260149751 2.9243526781597504
Ti 1.7536032082769484 6.683199080201979 4.7240183321413385
