51
Energy = -341.87589153 eV
Ti 11.49823350819091 7.907286324137728 3.6500890043451633
Ti 11.66953841815208 7.943292583118 6.151065671695217
Ti 10.449604826849006 10.135954060629935 4.871919678609882
Ti 10.998453841711175 4.21928554951721 6.8469226135881
Ti 10.562745888560201 5.712866751394483 4.926054742870984
Ti 9.303436304597371 3.330770874629059 4.785749817339441
Ti 9.63137443637786 9.097575503559233 2.5411336034341794
Ti 9.736761528911423 9.294914913835814 7.57500583571586
Ti 9.489124623763791 6.41246928223459 2.6047394532891164
Ti 9.175899904450718 7.983224610774263 5.100545054254294
Ti 9.800589638177826 6.62550789525329 7.648085799612538
Ti 9.477166929000042 2.226673595646324 7.18157720259706
Ti 9.641202288592455 4.212688403708377 9.11109677723627
Ti 8.033916348949255 10.475838278179165 6.316458041659272
Ti 6.52742514143208 3.7346206839713854 4.0327778305737825
Ti 7.559378903729359 9.939526020276979 3.961919925743591
Ti 7.251225597291869 5.644815331105174 9.184904116929797
Ti 8.295870301894633 4.589712763282157 6.8655503231589545
Ti 7.62479640796274 6.045885339772993 4.5129196833417256
Ti 8.599642599296946 7.885485730915859 9.742951198908717
Ti 7.395190235577635 7.816709140492486 2.4325587652872835
Ti 7.032023405567639 2.3567755496329097 6.11324206188804
Ti 7.421571262503624 7.824812807116384 7.219481372184442
Ti 6.196818759205236 5.508360859926604 1.7167103475383636
Ti 7.5707117307808875 2.7043001883746047 8.755677177822486
Ti 5.610181357460715 5.486941283402242 6.462940523462968
Ti 7.060802432683858 10.156059535617665 8.7740055305421
Ti 4.981822308472716 5.9932964173388665 3.914935954055241
Ti 4.947097933043537 8.084480820531537 2.1974119145221365
Ti 6.124357113118901 8.466882539551213 10.37213647985798
Ti 5.317789920537481 3.5295646590009015 8.04619148625557
Ti 5.717389295663489 3.9173575613665466 10.752480101853138
Ti 5.514627200225715 10.604036550739158 6.7090057511277195
Ti 4.2499914610382445 3.754699938459871 2.7199336321770957
Ti 4.121973356112568 3.4646417128941738 5.354420947788546
Ti 5.568290501209775 8.360586619431183 5.055435027936805
Ti 5.939148810188893 6.339282933152925 11.607158525773112
Ti 4.984817485078254 8.081523750303107 7.850942855037143
Ti 4.54451832406279 5.865121351661287 9.298307662343063
Ti 3.4460615482183115 5.995204208084655 1.7895464955128335
Ti 3.2350058112200744 6.938653469654057 6.066230208611704
Ti 4.187963303925476 10.049685620008296 9.123035861538282
Ti 2.726857998483159 5.0060615697714965 7.4717544478368785
Ti 2.9641293394805808 7.794947273846093 3.710711869069314
Ti 3.2309689490935467 3.6011087852185213 9.719863176725497
Ti 2.4131758215664725 5.149562373844254 4.140983956370918
Ti 3.2923048788534395 9.51238793522899 6.515232663885349
Ti 3.617744438514955 5.234860901670571 11.775928463440865
Ti 3.626147467039032 7.829134020459331 10.906824569986975
Ti 2.3170830695450206 7.925896780973005 8.498381588791217
Ti 1.9615500426838577 5.873171345352185 9.961567204920899
