51
Energy = -342.98365173 eV
Ti 1.97499816849756 3.6192840034806237 9.250617641146777
Ti 0.653924268611659 5.07975676240303 7.739434498980671
Ti 1.721657391884708 6.280855453331822 9.977397936677807
Ti 2.5780073550481557 3.39950171911327 6.7104119427341224
Ti 3.757521476582083 4.5315267047609495 10.609741966885196
Ti 1.8287554652971993 5.753910989257521 5.573642494657879
Ti 4.4848969850958325 2.9186522750028088 8.606396105340743
Ti 1.4430555878705995 7.597185930651059 7.368715858739435
Ti 4.164373331240888 4.829743693922103 5.208211522168783
Ti 3.2333659328524087 5.766349415940321 8.028571521356312
Ti 5.92966252986395 2.9289170333905714 5.947386385868697
Ti 4.143329126117007 10.178054408291151 4.492715870306582
Ti 3.3532266267208413 8.463274278437448 8.827714186439806
Ti 3.879668454465435 7.590753138739401 6.000778845948475
Ti 4.534418832791294 6.819370634850536 10.479679552795924
Ti 6.4236265257522245 4.715770229298337 10.109662012059204
Ti 6.255067629460747 6.365649473782085 5.357430207753846
Ti 5.6984806074020815 5.0685997351783 7.645699218783684
Ti 4.445260453861275 6.700290955119784 3.4270492670926656
Ti 7.455811493889084 2.984866895760504 8.407533080898332
Ti 3.3502540946444244 10.245088604545854 6.951458578676387
Ti 7.7533189782887 2.2739811106272407 3.985738614387988
Ti 8.383809572020603 1.678514175220289 6.261342223457989
Ti 6.245126619598692 4.290172165650111 3.415837840142435
Ti 5.809139391166074 7.643950056591574 8.435513131932796
Ti 5.185145568520503 11.904593456343559 6.356138296110631
Ti 9.368577663231617 4.678859733363693 9.80227675724918
Ti 9.98998599593036 3.091119959613743 7.523190201369368
Ti 5.86578613875407 9.415858120846849 6.290657417768623
Ti 7.093235103846568 6.3563694201375505 2.1035329553129447
Ti 5.4630207244651015 10.55325710756809 8.675469766483488
Ti 8.933840170319737 4.294800020217421 2.7196376639936353
Ti 6.233255996993891 8.544400720089987 3.6856911369333907
Ti 10.28530072792054 2.9776912948129004 4.775970368119108
Ti 7.790613098664777 7.003773787221995 10.034690664436132
Ti 8.276423681427758 4.319769867286229 5.573695021407869
Ti 8.30887474956976 5.4919145557116 7.882095634731201
Ti 8.719364412712242 6.781993566476509 4.23226036264839
Ti 6.657687482721581 11.104991364484325 4.376890686758627
Ti 8.04590295152039 7.902402301954294 7.005736810787357
Ti 7.708670100509201 11.183175929306664 7.044409578643802
Ti 10.795813982679588 5.172965042924947 6.738790530644349
Ti 9.777683989059712 6.541876428262543 1.819548596178722
Ti 8.687206426461914 9.49775524298592 4.9080645231232785
Ti 8.446712280958613 8.715015466075961 2.3171372172835203
Ti 8.061702617750893 9.551132924933592 9.143961000515358
Ti 11.087064692026189 5.614050709284755 3.992780452143151
Ti 10.026552806848882 7.537822571930756 8.863266413970534
Ti 10.57804408636769 7.551289943971666 6.0660728632662
Ti 10.747578921871641 8.314354281126569 3.4763989740724948
Ti 9.937378041617434 9.746925651496714 7.34513491259014
