5
Energy = -20.66994223 eV
Ti 10.254548311870499 6.673775352669127 9.029134050563854
Ti 11.959061113326477 5.716899381313999 9.35845984661231
Ti 4.408762762829753 10.876704824074753 6.380677610635692
Ti 5.774992340006727 9.739480534578519 7.227316712091454
Ti 7.977476205599555 8.213749267270693 7.981078348692147
