51
Energy = -342.68484185 eV
Ti 8.705560660755394 4.696780430187233 11.215634459309436
Ti 6.872026241970711 3.656910057530326 9.35538167363428
Ti 9.649045901045655 3.223985107840849 9.493618589059421
Ti 6.5055336439655855 5.940190731257998 10.723209430299837
Ti 10.878261976280841 5.640791648655634 9.895264287914097
Ti 3.9384573250873585 4.723672934993506 8.801132217955399
Ti 5.000786063690225 2.8967805594998586 7.152914680829228
Ti 8.80894762942534 7.372894256798954 10.925739898692019
Ti 8.423953402418979 2.7382006991457413 7.313227654588868
Ti 2.554776816661065 3.6121725063853587 6.907911090736529
Ti 8.61292920318594 5.574941502693605 8.729221210194689
Ti 10.606564721056015 4.320133813708914 7.219216384406388
Ti 5.988904471094056 6.262893991445367 8.236013182816656
Ti 6.38214326651672 8.468687904562199 9.841492028547643
Ti 10.764816375913693 8.476669991785585 9.21915329563108
Ti 4.076191069185093 3.265628836759894 4.7324549830106575
Ti 1.6792341206029782 6.00165749538115 7.659582666067735
Ti 6.615489428156383 2.22979699376995 4.813403123315149
Ti 3.6045400621818957 7.475087213102714 8.89429151743204
Ti 4.250761395784473 5.521257044758898 6.106692811255677
Ti 11.284767687295874 6.661412063979288 7.419206721549273
Ti 6.364589951569898 4.745653171484087 4.033595166516075
Ti 9.098425678610129 3.6984060881531082 4.923219776510043
Ti 6.98756841858018 4.610345810224431 6.539529691362865
Ti 8.625328281898813 9.832985386053574 10.085561318446597
Ti 8.926037208479338 6.453147442323552 5.830329250740724
Ti 10.952077420081073 5.969379849568537 4.688476904716618
Ti 5.8393467824416625 8.531904449981951 7.043112157651249
Ti 8.406745742065764 8.237783098746887 7.949851077365926
Ti 9.67302352767332 10.567897957738236 7.869841830421141
Ti 7.891031098009206 3.150627410198647 2.575247324431766
Ti 1.7792538594988019 5.24190524006156 4.935067759177224
Ti 1.543263980518051 8.710881788955096 7.788981472647729
Ti 8.593716524100035 5.784734614414842 3.092642045887669
Ti 4.121449601329648 5.788745653906563 3.2315251662390123
Ti 0.6528800656570835 7.534082574444171 5.711412134321771
Ti 10.624856832078034 8.68541650672672 6.3061731753979275
Ti 7.0122888682019235 10.56172335686862 8.085604115762253
Ti 6.4877719727311245 7.344315531968057 4.885464543525229
Ti 3.3623904782902683 7.825500630929662 6.1306847448810355
Ti 6.481696895138164 4.918510076186715 1.4082015228002625
Ti 5.265191189069829 2.98514120444173 2.4735745543002867
Ti 3.81033559890563 9.992875667125427 7.801330940643609
Ti 8.868890589047492 8.220329818230859 3.7054451121275784
Ti 6.420014892775393 7.390804578323305 2.303560043866445
Ti 8.148451021785165 9.791556673428504 5.735896683219571
Ti 2.098275277760978 7.527882434018574 3.662708354036282
Ti 5.0289021209214155 10.464006390989319 5.513662284409809
Ti 2.1754861678540838 9.782548689813762 5.282519598558274
Ti 4.355330348003791 8.678565386309293 3.6864909328519695
Ti 6.703866724465313 9.713975313957079 3.567706989753172
