50
Energy = -334.00797251 eV
Ti 3.5300505945789875 6.683437815499138 9.889009254182726
Ti 3.6906950421524467 4.3511321646400525 8.517302985016627
Ti 4.798245712688437 3.9915270285547786 6.330476852653775
Ti 4.297439229058672 8.797360178412214 7.935941566130931
Ti 4.526814517667729 6.941038863880408 2.016576687383048
Ti 2.600460244272493 7.3222718278978975 3.95557248655736
Ti 5.143918505224788 4.736180816890191 10.531745877994663
Ti 6.368243853673761 3.0184425227034417 3.856897976494453
Ti 6.535754850481121 3.7050748385096677 8.495786791397759
Ti 4.99304323733599 4.14898469336686 1.883468244615873
Ti 4.639664772920367 9.005146228474542 10.497871583071284
Ti 6.916522892373169 7.974107487370343 2.9876415225044357
Ti 7.182797907201506 7.8578114628001705 9.82402629106578
Ti 6.055368484063055 10.615295806845227 9.081569778128639
Ti 8.899302855333852 3.4225278470005183 4.143644682020655
Ti 8.082793559019894 3.8649902154645797 1.8015350953347185
Ti 7.1359011935525425 5.165665895696078 5.804692948681291
Ti 6.997012862876506 5.5477981708263755 3.11203884095568
Ti 4.570823018070713 9.266918893730503 3.524207603741245
Ti 4.592367182853542 5.497826029542379 4.215902388231971
Ti 10.37999385492744 9.613486055691155 5.909504227350667
Ti 11.932336429262346 8.58897843657579 8.10977470742654
Ti 9.871090097004595 4.92105492180366 5.93676306264344
Ti 3.6549153835103576 3.0214645025563316 3.9009029080537765
Ti 9.629336591115973 5.7608882786324465 3.3066451475794274
Ti 2.635444930554292 5.066367030399117 2.5805786714073773
Ti 8.53548966447844 7.48188266106612 5.167056609516558
Ti 7.980851539325215 2.782264567658701 6.501646646239201
Ti 8.369628754461493 6.074962725699924 7.889835255794346
Ti 9.565593677398946 8.279362825034138 8.080607948731855
Ti 2.2774617250851454 4.729309209145152 5.219566350689874
Ti 5.482737563463015 7.714226385729148 5.469255760454554
Ti 7.198814019907362 9.79653004575915 4.6034572369739495
Ti 9.338111165938546 3.8597183681169307 8.657092526715761
Ti 11.126605747413937 7.235278652740392 5.962105321337619
Ti 11.204076974572612 5.843983058416432 8.06540551599166
Ti 8.301801337760539 11.027323911053017 7.031537540766133
Ti 7.040687579994198 8.769107331483994 7.258966445915606
Ti 5.543191861422956 6.249146613467739 8.172525081597987
Ti 3.026773245899425 9.01130062025908 5.74939935050647
Ti 5.252785910322287 10.403349845931567 6.059762496305318
Ti 10.559821490843209 10.736730602646865 8.309584556368215
Ti 9.877786291982163 6.416807774216887 10.20669385825026
Ti 7.670631865789816 5.074878967521232 10.597225831596068
Ti 6.932430578239047 9.496073288545222 11.693948058676128
Ti 3.2206627925515283 6.474312232925838 6.779448711401345
Ti 8.204547739784172 7.154948733331535 12.208654101369156
Ti 9.65227539072624 8.97070792575968 10.728509259457692
Ti 8.371425257909287 10.688050238571103 9.635491512938614
Ti 5.597335757629487 6.968582718179688 11.769649502920135
