53
Energy = -356.64572299 eV
Ti 9.798986371373461 3.690374397610646 5.1251963014005995
Ti 11.087147145924453 5.109186610692663 7.362216393766372
Ti 10.229632200443026 6.758033345718671 5.048853121534424
Ti 10.592452081179188 7.764797583037533 7.694256448500163
Ti 8.172921159845288 2.7403381719428177 3.2315997756113846
Ti 7.863468550596912 1.789086499028166 5.745148207547639
Ti 10.269267209578738 6.240046129317509 9.762517078592959
Ti 9.414822332346528 2.873375707897485 7.601428609017411
Ti 9.87959804466245 9.43452352467364 4.796931261326946
Ti 8.830494835129194 5.710203726648813 7.015447612938173
Ti 8.762184505586735 5.4563346799559165 2.9716157640262835
Ti 9.590976251210208 8.058078020660899 2.6572522428140712
Ti 8.613498000763656 4.327048611624257 9.576655708799265
Ti 7.175702793463179 4.457426002117792 4.839430407325573
Ti 5.656394705941093 2.2188499606869025 4.134066246276194
Ti 9.490122076347545 8.611392667815814 10.132793576196136
Ti 6.304165604974433 4.412460983772785 2.290940772870792
Ti 7.892249632355041 10.951729377212548 5.673059188166841
Ti 5.348547906351782 1.6292743489340242 6.695594955559509
Ti 7.067204795606434 7.482021642755891 1.8460686044497772
Ti 8.035974246532907 6.474465720518589 11.410523057421765
Ti 8.339800783238806 8.656505908419124 6.89047265463641
Ti 6.882885607317036 3.850221705862916 7.504001131144825
Ti 6.984958265726603 2.050246450730806 8.948496839827826
Ti 7.690718834289324 10.055351822851138 3.168665160746218
Ti 7.782654440717638 7.64998155602598 4.388089419395248
Ti 7.682898569110896 6.9875988078926685 9.074522457652519
Ti 5.383292385646721 11.22430701128872 4.4904434689413275
Ti 5.331817154166279 6.50473438067201 3.9258910007184284
Ti 6.301904262434143 6.691638910363663 6.358188781527809
Ti 7.802457277231168 10.470382158391065 8.983688542407155
Ti 6.113859977416259 4.394115767236663 10.452634048225745
Ti 3.96162774430354 4.026324836809731 3.2334002350424367
Ti 7.126580916293679 9.020009471267326 11.022362686499722
Ti 4.701725407278994 4.41901513956189 5.935346708824775
Ti 3.879622096636283 6.603833935288854 2.1977859021612005
Ti 5.711598530762771 9.154219723918406 5.438744558400753
Ti 5.88672908214071 11.276186101586505 7.321531842648048
Ti 5.223800658596711 9.044208350302773 2.6788316431833734
Ti 3.1408434046189524 2.7622993137262775 5.5616150912297435
Ti 5.823895700811739 8.67088583626685 8.21797500433242
Ti 4.231332849961381 3.2481915005646216 8.389614984389917
Ti 5.294361504391968 5.741043436620621 8.562001824093992
Ti 3.754685235887278 7.187668344698068 6.793450917287653
Ti 3.345464502878638 8.422701665936453 4.347650758975433
Ti 5.200359849542795 7.396241471295315 10.643015113810481
Ti 5.127635143069681 10.34303037052831 9.821880844372446
Ti 2.5979820055871277 5.709044066783332 4.663172232410506
Ti 2.1923869315482203 4.817464118992385 7.161697273601294
Ti 3.6551518917172903 9.972635569812555 7.205335755044614
Ti 2.7245348488835566 6.035704331074747 9.249483895564948
Ti 3.114642722274022 8.530201076255123 9.223922464089288
Ti 1.537019021693611 7.499997202736683 7.139529481058198
