52
Energy = -349.8569199 eV
Ti 10.794125630241782 6.0492647777752895 4.548251407704985
Ti 9.058604474855745 4.86127335147818 2.648814158306605
Ti 9.658891472133348 3.6505867689069778 5.129396986579585
Ti 9.556341407257433 7.61518449018199 3.0198021340524246
Ti 7.317180851671757 6.7227064447370575 1.6903940120493497
Ti 10.517088229807284 8.320838210292878 8.127153439537148
Ti 9.974478629202787 5.725647086322852 7.196579515058538
Ti 7.898462533215942 2.6748690803047435 3.621660796053785
Ti 9.81327927314095 2.8608715089502725 7.667782467587702
Ti 9.487038777084877 8.246038884217736 5.721759921391366
Ti 10.054159328853979 6.805426944024499 9.888990496996929
Ti 8.20561372732534 6.130015271313868 4.789192909167957
Ti 6.308715551915363 4.170228902686995 2.165944060446555
Ti 7.502631539466403 1.8636916208215668 6.0575381890271345
Ti 8.571682001054942 9.090015094933031 10.043111121976766
Ti 4.770021847929099 6.101123210855658 1.314863779435116
Ti 7.352668995122383 8.770541243739224 3.715455875667125
Ti 5.2838453899287225 8.590102173625286 1.998672611223852
Ti 8.902270555292041 10.450379825533089 7.835461831063878
Ti 5.454201147441643 6.683330543083393 3.797463133094279
Ti 8.006437552009489 7.354574254679545 8.240826735456343
Ti 7.825755403743247 4.2009254933371025 7.08741334901332
Ti 9.068360235940432 4.386682189433906 9.789929752353745
Ti 8.699420996283983 10.736490439985577 5.081456736609731
Ti 6.162396720449621 4.2978321842406775 4.975550959383304
Ti 7.403711285378671 2.3954938601004687 9.062827512697137
Ti 6.956338956523142 3.835056855036412 11.293456166916748
Ti 5.1612788090224075 2.333295572787429 4.188227611857215
Ti 5.308940103016267 2.7747442950219723 7.137841150083117
Ti 6.202313850202006 11.098959726397197 4.482633239323949
Ti 6.574489143470836 5.187763035641253 9.167085094039239
Ti 6.880812547979631 9.232344442822873 6.2990518214799796
Ti 6.184448146604539 6.457087329675131 6.401789691529079
Ti 7.00695551699598 11.824991346567874 6.8647770170037665
Ti 3.702390930169579 4.5806353358849385 3.176403838809121
Ti 3.0962156676220975 7.37037476198796 2.8943059741423456
Ti 4.884515688029383 3.114815638718739 9.770319731559807
Ti 7.733356234346164 6.588000023611112 11.093270330764591
Ti 6.284004764411665 10.349793921112582 8.839318945978189
Ti 4.508726158539619 9.015923543019522 4.606380918350348
Ti 5.806978462485994 7.854222009768839 9.879680560489161
Ti 4.22190712103386 5.341768245665502 8.031752593107159
Ti 4.610736017363786 5.312411938464147 10.95390845359091
Ti 3.5072352237981925 4.002635689708958 5.737173732091623
Ti 4.565751338777471 8.004819796566085 7.3864231746122835
Ti 4.545704033714304 10.829348013911913 6.7077116870353635
Ti 3.208591664468195 6.559938782114637 5.419198882499605
Ti 2.403236800353459 4.640356130862613 9.374684358423822
Ti 2.443301489517173 9.124215266029642 6.2716998269773345
Ti 3.1683456978840976 7.113162486487188 10.036479916683058
Ti 3.3554253437234856 9.497882710919733 8.875360046059095
Ti 2.003604455864158 7.174306968317791 7.867759067322375
