50
Energy = -335.51982774 eV
Ti 11.819838137070754 8.30971903558192 7.63335596028359
Ti 10.800754112612546 6.6811526927506115 5.596101624511842
Ti 11.719673580029998 5.77276335250462 8.115775109063408
Ti 9.940564999913443 9.171529747267025 6.158983162664269
Ti 8.757250055290434 6.877258813677522 2.8649948654180606
Ti 11.091709057879067 7.49085760305803 9.976173833878372
Ti 7.74921112130385 4.257456200282081 2.1839472702070357
Ti 8.931178892601276 4.749784420268594 4.58099073080939
Ti 8.430185120083209 9.68933446038482 4.025557983295033
Ti 9.753111661589985 9.621525431269545 8.836194084306154
Ti 9.7198413804705 4.376733626583542 7.2779081954718245
Ti 9.445690300712227 7.072162054726211 7.886560519391974
Ti 8.115874255719827 7.167454686322575 5.4712219945209695
Ti 6.660649636602505 6.432735769382254 1.202792317798573
Ti 8.332771358785463 2.4877873211567483 6.009124926524427
Ti 7.880019078562967 10.638732853103065 6.509876690548236
Ti 9.670523785812112 5.191701803136244 9.828457152279585
Ti 6.411587585723673 8.56200282273424 2.8681282519582982
Ti 6.509843351034258 5.860358919968205 3.772548050381302
Ti 6.2034383398184945 3.2587879437521523 4.377817269517811
Ti 5.141291389407331 4.399054285363078 1.9799857612833347
Ti 7.05498109975838 4.701265259347504 6.522886266629044
Ti 8.498280683085971 7.795120099117579 10.506100782700653
Ti 6.255896361337058 10.99295603936351 4.38253049405806
Ti 7.175939432757955 8.59686306249485 8.17037885880927
Ti 4.205767114345906 6.948084919794466 2.107519567724854
Ti 6.0048057441007 7.866060385045243 10.754904097003502
Ti 5.874239571753951 2.0559150685224856 6.865276877076293
Ti 6.009679295818692 8.783311385821907 5.635154064654395
Ti 7.798880140246494 3.2012606803233146 8.669423742368211
Ti 4.056824465524435 9.328994595145742 3.7745020134590974
Ti 6.8773063735190325 10.277972254463814 9.674284776667308
Ti 5.338809841000979 10.685407935201718 7.135806312639375
Ti 7.02233636110225 5.909757893735149 8.88802877062942
Ti 4.408231617379778 6.943037237001487 4.772415180778403
Ti 4.318742526269532 4.2950246099379195 6.404295052954348
Ti 3.805397911010259 2.174389194822001 5.002403024221569
Ti 6.922816257466221 5.22691598924999 11.050906145991943
Ti 3.30140815823357 4.77588347617662 3.933314463001078
Ti 4.718072345447112 6.770234816758276 7.463126315192727
Ti 2.0951469337173356 7.3678942058602095 3.8921292879719016
Ti 5.159570835682977 3.7232022041990365 9.027619764076725
Ti 3.3540803369490044 2.2029260213564132 7.649632526724558
Ti 3.1438317661122714 8.687632488377997 6.308776544050837
Ti 4.462221111940264 8.911166733516147 8.994126665636482
Ti 1.835564100254975 3.5432347054349806 5.988631801131344
Ti 4.280107319901194 6.0512320724469575 9.977074486790883
Ti 2.008007389569062 6.16132268943985 6.223172469191494
Ti 2.4975688077313536 4.586973423118656 8.445281161652268
Ti 2.3529637037675304 7.2895515174617636 8.546287538910452
