50
Energy = -335.75842725 eV
Ti 6.523175387922635 7.53448197467123 12.131401381411662
Ti 5.725008370588318 5.413518849479235 11.02494994957143
Ti 8.14044175874272 4.278683821872681 9.397868173216313
Ti 5.495534241241185 3.7124519298537098 8.825211258883922
Ti 5.303424887881463 9.724919326112177 12.019904710677617
Ti 7.984124631739075 9.689596578710734 11.299767336075673
Ti 5.733448444979233 1.2267688475253884 7.3762373958749015
Ti 8.496025620857257 6.979268462692664 10.799715031680472
Ti 6.073029261107961 8.713030282409653 9.67914959253666
Ti 3.7892310597772974 2.939358412400876 6.777370716784853
Ti 8.34508803277167 2.1096324123028327 7.642913469230404
Ti 6.101905380007327 11.380462537458387 10.315205233579645
Ti 4.016866561242379 7.638202039978787 10.986215722131758
Ti 10.06878079461106 8.989729362613998 9.590787681000968
Ti 3.7727172451374305 5.649885438925019 9.242470077282725
Ti 10.21738942101103 3.8270938868077726 7.739154919367562
Ti 6.380594315419972 6.209100780346012 8.612313440304419
Ti 6.341941337534648 3.5062702100052783 6.325351413229318
Ti 9.860169579601765 6.24640911207193 8.756652191113377
Ti 3.8541315851007343 10.137979710659966 9.827704494444559
Ti 5.108049422933811 1.6832415411038488 4.819513303164182
Ti 9.276983446171931 3.2249329120125925 5.288208717820534
Ti 8.205838968383949 10.965610356962364 8.854139102396973
Ti 7.495232192871125 1.2560773440949282 5.406958886831992
Ti 8.222373091320014 8.39498471784272 8.048661109721605
Ti 10.788446313027643 5.596321445480933 5.815930038204355
Ti 10.02136105860203 10.011391381465597 6.785662883137047
Ti 3.8175552477970824 8.119952304539565 8.070017668913442
Ti 8.281608653957374 5.380474376308167 6.7285614812566115
Ti 4.424750528355901 4.157196467686793 4.396634469746267
Ti 8.962413909067102 5.652699465057879 3.8767824224792746
Ti 11.028043602868388 7.81975691755943 7.1732812733210025
Ti 5.5912874769932746 10.767564455611552 7.825621571790864
Ti 6.993644890124047 3.3907745604514634 3.6743276513137597
Ti 4.460730685364009 5.507897003864532 6.763854055977398
Ti 4.1147209750685025 9.881892298277153 5.770577216059663
Ti 5.912674318317433 8.088948865346458 6.655852899021252
Ti 6.309186621379013 5.839828802877244 4.702596335857329
Ti 7.521286360459629 10.371066213549474 6.189143503247011
Ti 10.916284966569664 8.108865322400138 4.459126640395207
Ti 8.793838936456622 7.831699819430388 5.530087963123041
Ti 3.7174162965972006 7.3599819091589 5.039555590011196
Ti 5.959910081491999 10.955973106980645 4.088219566611138
Ti 4.767293181657078 6.952015143371693 2.5317194901913918
Ti 7.037338999158297 6.399924464281736 2.0637227112977166
Ti 6.527312993108921 8.294868235327218 4.127317988371946
Ti 8.91498308956375 8.039143570063231 2.570887934313523
Ti 8.547274881925883 10.117718567617654 3.7983128272251836
Ti 4.126907483642101 9.29367861131413 3.2753162683153874
Ti 6.4861787405974916 9.19104742018681 1.8761871277746232
