54
Energy = -360.92446107 eV
Ti 2.873506087930974 6.840215569970046 3.8473533445561627
Ti 3.3307740662800884 4.796148363703649 5.366381879812058
Ti 2.6037304228151865 9.252520300750655 5.160394818003434
Ti 4.449467940814415 8.808258396497854 3.2156326641153203
Ti 5.514765276976068 5.976939458288647 3.915314502496278
Ti 1.861063288783403 6.9134960221812385 6.356780713506588
Ti 3.3984047394631847 2.127067236217839 6.672582596521551
Ti 2.1286345947015466 4.051563277031712 7.763622243677975
Ti 5.022962105030976 4.503340656149629 2.2976281341244023
Ti 5.459587887810739 3.279470906680614 4.930384296253911
Ti 3.791162311513939 11.027691633871665 6.681160892866839
Ti 4.40964927248219 7.284129944784084 6.04546817570687
Ti 1.9158116801390774 2.061270792350484 9.277242594713917
Ti 4.365024630059545 11.100613265502624 4.211822678534739
Ti 6.204343794737979 7.734047175340059 1.7744998854590943
Ti 6.7193277754805525 10.207810988674117 3.215995540644416
Ti 3.0962248684805145 8.825212815227738 7.885001470370533
Ti 4.972914071441304 4.149179237555813 7.575939668150584
Ti 5.9301189567672195 1.6649552591527017 7.1400529321308746
Ti 7.35090500721545 7.766159254008014 4.266122492446357
Ti 3.438673047669045 6.25999422987191 8.452415060655149
Ti 5.818743348626013 9.403130495647467 5.773874639305336
Ti 7.395946834327049 3.909911979832014 3.668246912358228
Ti 7.612553509404638 5.8279872986444605 2.003041627673656
Ti 4.36727399317115 2.238999024522853 9.256753897560158
Ti 2.8966784353906525 4.325357041476896 10.17564508251628
Ti 6.247430119513207 11.813339897011359 6.044363611881521
Ti 6.1093505572107185 7.390712878983293 8.492659996043308
Ti 7.996301762580629 3.40999818185705 6.4453192767761
Ti 8.107484292885399 8.096671293902764 6.8324630424783575
Ti 5.53414664641467 5.140664607232309 10.066904932711168
Ti 8.439567343631662 10.100808642859223 5.191976746469756
Ti 9.140377975478495 5.777294571770387 4.18203709552658
Ti 6.725842743151329 5.662572263062789 6.306843080919604
Ti 7.027384473035087 2.929991154200943 9.037945200347393
Ti 8.96494305424798 8.223196357783713 2.5341035721398018
Ti 7.976847228139325 10.494919604158191 8.08361218585882
Ti 5.4210320032475 10.111620737926625 8.435454644525477
Ti 4.702903216919129 7.8184165032610125 10.485779873953037
Ti 9.657572575166038 5.718198660601087 6.842002222508029
Ti 10.305160304002118 8.135528794016878 5.111648541635655
Ti 7.327960297525769 6.871713502766216 10.90040443640597
Ti 10.53081729397245 3.6435887985802466 5.45257944122098
Ti 10.045348815674453 3.3545639170866735 8.102654472919031
Ti 9.270597873603636 7.822577327150312 9.12256369434754
Ti 10.454106046655138 9.755591451344914 7.491118610611443
Ti 8.013335771837811 5.2295981202554165 8.807951474221172
Ti 11.675463282438889 5.9389973641518745 5.014411437367769
Ti 9.865401921968981 10.182018767629506 10.073166270497568
Ti 7.107941671612963 9.296811937539736 10.262951349422258
Ti 10.74778529947254 5.655068834857391 9.34453774899886
Ti 12.106390556929025 4.782068933489368 7.301882826462063
Ti 11.769478813803183 7.4785328681662735 7.34897015635176
Ti 11.666571859384689 8.703487517252379 9.63670065052971
