52
Energy = -348.14835775 eV
Ti 5.165289073497193 5.779080630990128 10.512912858130845
Ti 6.046163860968289 2.9276877319179997 4.441023303633663
Ti 7.426837703744603 5.399254683285629 5.624106379761952
Ti 6.774506005491459 7.568350756008151 10.644316920395005
Ti 9.121587102043215 1.3803218028295359 7.678820420024792
Ti 7.860679549022006 4.979572089478982 10.303335067727378
Ti 9.249836449906379 7.134598703673627 3.828089496384581
Ti 2.501818339747389 3.1170777051750855 7.031863367916572
Ti 4.024979618464148 8.568248614476639 4.197218435220916
Ti 4.47927900364848 7.92707436368571 9.102312713985503
Ti 1.8987441193391572 10.22606453784344 4.0139715264407405
Ti 9.979332807187127 4.867441873085326 4.682986461711578
Ti 5.8336364411638515 3.3726463461615928 9.993174632245518
Ti 1.5417387613019091 8.01353264252096 5.202082796449504
Ti 3.4291979606014507 9.959922282633421 1.8916278958693304
Ti 3.542466192807081 3.459079729320499 4.7056258314495425
Ti 9.100387563351687 7.317509677966296 9.769785624364472
Ti 7.185641998895078 7.533097955950859 2.115584271452954
Ti 3.4494711395878173 5.384799596820324 8.532450487605763
Ti 5.10889244803405 3.9322167569890483 7.00151345257638
Ti 2.426854592443664 7.641460873578335 7.530935141209235
Ti 1.9414273910084177 8.032056243133791 2.525645557862547
Ti 7.778252203414918 9.260547545947873 8.808673713774864
Ti 4.53830767778659 6.5984380450361435 6.223304852162945
Ti 8.102773481018648 2.2336556888877057 10.039711999070905
Ti 5.283845278562764 5.444010905411149 3.728182395389236
Ti 11.01071420605025 6.8656248736597325 6.090419144537726
Ti 10.55769609809346 3.5057580111969453 6.78466191042161
Ti 6.573839943676882 6.351890169213434 8.219332699471584
Ti 6.5196767761062935 7.748349398342397 4.583790551558619
Ti 7.846413396213893 4.8447302068210485 3.0859334568981076
Ti 10.057905267976349 3.5579759701748914 9.196263086171767
Ti 8.307037236259454 9.583929464173792 3.872358557015768
Ti 3.3184551521601775 9.953960323796773 6.358816530976272
Ti 2.8322158303731775 6.036235804360012 3.5392221251912446
Ti 4.539214889786357 7.498261863069827 1.7818639985038685
Ti 6.993182593924305 1.2414859598029349 6.014483328334054
Ti 5.884649750051027 9.885675965593343 2.474869295034864
Ti 10.483635892814542 9.169581977031136 5.291732493052756
Ti 8.79756929583831 2.6374068390767005 5.008996219275827
Ti 10.311599734611994 8.856003542125244 7.9118387756928295
Ti 9.396317765560209 5.767000714587891 7.770706646744436
Ti 4.144343058434965 11.311382593944828 4.00079491214118
Ti 4.441452170749913 1.47997967200432 6.351568393774079
Ti 6.131883490340514 10.498105730407207 5.208546490695415
Ti 5.742709381727797 8.882543844720265 7.1004550026837165
Ti 3.8321730501415487 2.4981158140864315 8.91409621564143
Ti 2.176286925730409 5.4133589793671275 6.004844029139441
Ti 8.615301852588319 10.470777917220286 6.542498825192473
Ti 6.2673857086530615 1.2555162929129706 8.44710348111467
Ti 7.821633830100512 3.5263069032640337 7.642439127463973
Ti 8.394628343512425 7.8921617907513255 6.462977504967627
