50
Energy = -335.56953201 eV
Ti 1.5116618794610401 8.342261258930334 7.860760371978464
Ti 5.1998992300790885 10.807188349397464 7.876900755009242
Ti 2.5952573294710866 10.393111188285724 6.545888240839054
Ti 3.4797051108081596 9.264239517349292 9.272994670905705
Ti 6.127705498966578 9.316249867779321 10.106965518972103
Ti 4.5195562187008385 7.474179471481306 11.051450150569924
Ti 2.5497530708504215 6.608035925531951 9.512859093637234
Ti 1.5334977609301466 8.153752250230992 5.337130561101992
Ti 7.904877611227065 10.670894682403178 8.568195869334835
Ti 4.961867715531834 10.696057021615035 5.206433776289688
Ti 3.87649870484877 8.287633421751911 6.508701030628244
Ti 2.2245086302617247 5.980412724097499 6.7663834254555315
Ti 6.726298654888933 8.617368876094885 7.581594241308843
Ti 7.362546440792465 10.569517992116978 5.927779030400276
Ti 7.023627580811827 6.621515355661778 10.19442601133161
Ti 8.67640849475045 8.33764417034081 9.483690401377396
Ti 3.5014054620013138 9.199901650698395 4.01345018203651
Ti 4.863178085807687 4.886910019698479 10.431295687796704
Ti 4.90028448433215 6.800239647910479 8.543983220950274
Ti 3.7832795540760835 4.246795251767927 8.040679282820909
Ti 3.3882933702914246 6.411279796360004 4.345080133535211
Ti 9.450143111005312 8.957871179496227 7.048177178900971
Ti 9.547593835662088 10.432906467656272 4.63626480861593
Ti 7.164334875343883 9.807472251139398 3.2455901128039355
Ti 5.894079896513602 8.10014132844531 4.831348746578939
Ti 5.279084027049518 5.5062013658661835 5.945633022921138
Ti 9.570298918474638 5.147669544758906 8.831298823600424
Ti 6.3886814667657985 4.564741470403742 8.359435099413869
Ti 7.778818936123766 3.216984498768115 9.977389257172167
Ti 8.496339858881385 7.973906989496558 4.868925849732425
Ti 7.9206243491447275 6.512516182146795 7.384376357816051
Ti 3.2436194949812496 3.8101315709686894 5.404643654434538
Ti 9.652827189203432 8.863292698583201 2.581994994129901
Ti 5.354570522057419 2.3189655767130155 9.093298298440988
Ti 7.806681854169308 7.208788084142111 2.235723099715415
Ti 5.628358747854563 6.344334385328028 2.8437777831286923
Ti 11.07646674570453 8.323729221929872 4.682641311339844
Ti 9.80223861520021 2.3768521121655266 8.621787986850721
Ti 7.626385941008466 5.340197758016503 4.5768263671954905
Ti 5.526447948019752 2.8115712542590887 6.2872770546834404
Ti 8.417708505849827 3.790141062235035 6.7854389168174665
Ti 5.160555547627875 3.984629489801463 3.6106213941128544
Ti 10.16697101046522 6.03127763635585 6.040113080463661
Ti 7.473704931387717 1.4525961890511099 7.974579252377196
Ti 9.974378360578063 6.229840078295254 3.2522135975755777
Ti 11.062043343159187 3.575927751937399 6.816127606173815
Ti 7.6785825416614735 4.436020155616985 2.316326643341996
Ti 9.715449154431669 3.6118638616544683 4.427014106063345
Ti 7.408068425714192 2.5645468304907424 4.4905673683819955
Ti 9.529258639840048 1.5241222475420715 6.158374253705436
