51
Energy = -341.77491634 eV
Ti 5.207437478871442 11.053049148291269 6.199740022943701
Ti 8.085729335888045 4.379698184127165 6.35338445233806
Ti 3.5771560673431697 8.358580809106462 9.581638675321132
Ti 5.670288792703081 9.318534091019602 8.329162205650196
Ti 6.200517215538234 8.834001729496233 4.675017769478551
Ti 4.71473506103683 10.943301209954171 3.677262460185408
Ti 9.059365738684715 2.1814637212751453 5.166878217341762
Ti 6.341807628175243 2.35862301455389 5.253408367660813
Ti 6.4413062251554996 4.299461405190318 8.805173632469396
Ti 4.402542333574379 6.105196263995791 8.574016218382058
Ti 2.7305868419102284 5.613725223075658 6.213080972857907
Ti 4.1841821161140516 5.880203703199208 1.8042414791407124
Ti 7.561631244916174 3.7828590330579956 3.6626860342169745
Ti 4.235278372708746 7.849056636433108 6.406726988396
Ti 3.494340091501389 3.1677481038331035 5.296042807244553
Ti 7.8149207728285495 5.931912542110365 10.592544747591413
Ti 10.143919501284879 4.496639175226921 4.511038923979666
Ti 8.234470849587309 6.83912128284896 5.191917227082488
Ti 8.478750832301495 8.871877472008272 2.8704036715321424
Ti 9.296038149069378 9.610975550827032 5.086674950275192
Ti 8.012363932109974 1.865156594449263 7.492096015163462
Ti 5.633501525165172 5.865788579542262 4.0551867694432175
Ti 10.503095290291864 7.410778547027362 4.313983213485452
Ti 2.988148427213635 10.08780652575696 5.136143362745896
Ti 5.959477093757032 9.797843321643047 2.158456177488416
Ti 4.561713048873422 2.9639894978039267 10.120484597918752
Ti 1.9612136956050685 7.271439993051402 8.042831624964059
Ti 6.022547763503997 7.763806582200014 10.383606054129011
Ti 8.239979171016182 8.44606132599271 9.303883354519876
Ti 5.092633660075343 5.430079894781409 11.060228923495805
Ti 5.295149884967213 4.82757160275758 6.337468316943839
Ti 2.8857969272562904 5.300259825856558 3.738664277727965
Ti 6.8278115223804265 3.5958229236325954 11.367472622066623
Ti 7.6110468283905535 9.931397645803214 6.887865714048917
Ti 7.262317683982223 11.114205469765805 4.287118106156743
Ti 9.839625987699524 8.169983635578877 7.060532019055368
Ti 6.454977932798317 7.398269842049536 2.039043488870643
Ti 6.939396089632642 7.006241113933494 7.578988832116662
Ti 10.312998299186857 3.3914234232213967 7.136582633650833
Ti 9.300113223534748 5.880976573724014 8.437180106364812
Ti 3.254627944845968 3.784221825795018 7.935715873254813
Ti 4.768312546210075 3.4932461982208576 2.992515150090182
Ti 1.6787653229504436 8.109593320135582 5.703829203186911
Ti 5.1635719653919665 2.0899016258377716 7.556112574180548
Ti 10.812435742127198 5.890604981198953 6.44644789148657
Ti 8.866928203522834 3.403937424915485 9.602434457765154
Ti 8.572222978584913 6.031836147924506 2.6924131538889693
Ti 6.458252562696106 4.791810279283 1.5559523649970006
Ti 6.750791366889937 1.7283721170867916 9.708501637835152
Ti 2.752728364227594 9.811828155634691 7.5956806003656805
Ti 3.887506283561702 8.014772623407877 3.5665969761468537
