53
Energy = -355.92711985 eV
Ti 12.102941374521372 9.000052366919217 7.675902215205154
Ti 12.239531101791224 8.37484303841351 5.312735994631946
Ti 12.574620113415651 6.378401411680292 7.274046085990142
Ti 11.049681061529393 7.353058240382012 9.545249914616782
Ti 10.160898489405511 10.138428062304955 6.082667322622606
Ti 11.885449273112695 5.937037992572121 4.809345420050909
Ti 11.010544697372605 4.929863779084421 8.874461825173665
Ti 10.242346895374121 7.277985492539462 6.627966337337892
Ti 9.767216572026257 9.49226900025518 8.562996267540683
Ti 9.957590458244153 7.666416885020937 3.9003639108556514
Ti 9.286158515388923 5.429809975186257 10.624108240362728
Ti 10.579822934373144 4.3748087811459575 6.553334804445053
Ti 7.957435398903328 10.700684835233286 10.032070106891293
Ti 7.946818739393002 11.579979724845838 7.42852318801043
Ti 9.613667359881774 4.8321481510757485 4.064774269509868
Ti 8.064769955390329 6.299420871785364 2.6906337185001057
Ti 8.474802724523176 6.285818962048918 8.25107226742509
Ti 9.422080362247874 10.189618045764139 3.64876094055196
Ti 6.307625713245356 2.931510312351951 9.988579041597506
Ti 8.339406342738542 8.01810124486184 10.301490027870239
Ti 7.713480668680116 6.124076179182073 5.465964851758417
Ti 7.969455023071031 8.721566422473863 5.505341821725929
Ti 8.66545186198189 3.6582166935246994 8.63290988067088
Ti 5.766904048039431 11.33397444552898 8.980613330411323
Ti 7.141554920638742 9.175778449662113 8.0628409923887
Ti 7.308194661818368 8.828956365942469 2.9323169204790602
Ti 7.278167355650413 11.09473853543857 4.7098091130426125
Ti 8.044086481412071 3.3942945585536157 5.901181399501973
Ti 7.021287619628034 1.7582459693629258 7.7158529211488815
Ti 5.715684009460138 6.992656620648495 8.374279770272388
Ti 6.1782743361636685 4.2650878976396545 7.743453084345479
Ti 6.682298814963061 5.608945249111429 10.174903860195174
Ti 5.3466478087704115 8.024847780326954 5.831638250637087
Ti 4.044899188264231 4.675451446473968 9.261064273684214
Ti 4.0603312831289635 9.305169323508897 8.554689758377508
Ti 4.560773929921322 2.1272106754267535 8.252418296923276
Ti 5.653418446765486 6.675304906997972 3.447514935971364
Ti 4.90742073644343 5.229579306657871 5.6786433269627254
Ti 5.39344389172562 10.836679822323385 6.449837770217287
Ti 5.832553890376675 9.044218170063667 10.41322940947494
Ti 6.696440558337104 4.219253430976516 3.910621706194572
Ti 5.368097109086787 2.3862406793994184 5.672082984648319
Ti 3.329127769527918 6.606869989189926 7.274976602397308
Ti 5.029666793958781 9.682351381569248 3.9391157311942506
Ti 3.3556976707993678 7.121713656118933 9.928811458169436
Ti 3.015029097384281 3.6395757132336324 6.920333424897343
Ti 2.9971349729253314 9.22761988145293 6.091753448129911
Ti 3.1486139596920077 7.139891315149528 4.39029388860276
Ti 1.593162499502291 8.333116420149526 8.38894453678624
Ti 3.786823464862965 4.233521051227871 3.900790667704906
Ti 1.7500428764242624 5.110801527251128 5.5218622372808746
Ti 1.3381567535283931 5.6000930378062295 8.30429625167144
Ti 1.0130214476429278 7.348642107438705 6.162344838560198
