51
Energy = -342.71335591 eV
Ti 9.107758411197219 2.4918590816875947 5.724668773609185
Ti 10.064546615542616 4.628999076638004 4.762962720435693
Ti 8.925184404905998 1.8543642703581047 8.28939821926116
Ti 10.509687072691646 3.9672121308586066 7.440851621734222
Ti 7.428805431658072 3.973412094606115 4.072825589429585
Ti 5.297789931944522 2.346546896281393 4.228246225707475
Ti 6.650379630325282 2.2456840102570164 6.613202904306641
Ti 7.242984715060021 6.0375928170235555 2.209913360366198
Ti 10.186561152616179 6.862604276270782 6.414385227695143
Ti 6.327196408161419 1.5799900387954995 9.20726376691061
Ti 9.936278636368947 3.759453203950227 10.00866066201572
Ti 8.148466728195118 4.90439480756781 6.518795178554511
Ti 8.091396917769373 2.3765069996877735 10.879778546754208
Ti 8.313837438583638 6.646103906529839 4.581794249726999
Ti 4.931463139961223 4.598495347576631 2.7267855961997713
Ti 7.480167150019209 4.012962758379016 8.838738183457808
Ti 9.297265234847199 6.164478573600414 9.153828031558364
Ti 5.365760968450948 4.5017057491140005 5.975323737640586
Ti 3.8973343661074615 2.246989104465916 6.343069292975593
Ti 3.159816753702491 3.8225628982391724 4.438715944228645
Ti 4.829951294309504 7.4022716823051855 2.0942716593308877
Ti 9.919350808287442 8.373450388417474 3.866488433309514
Ti 7.16385189879733 8.681128849686923 2.921261150256504
Ti 5.857687358627863 6.471348704335492 4.313559790277993
Ti 5.758450337192862 3.6824939843434703 10.812650171679659
Ti 4.758167639097376 3.5823337121786833 8.38296563836907
Ti 3.19700343550819 6.338549343897503 4.686613943357625
Ti 7.987237867732504 5.027593782475183 11.239604384270976
Ti 10.078017166367738 8.562131241571672 8.461982118724967
Ti 8.97016967093546 10.694089668791895 3.824030339713561
Ti 7.707115266426208 9.238318622647583 5.6142698741733765
Ti 4.7818494745974816 9.99077590500876 2.6007263615183134
Ti 4.958695399364907 8.819645117785502 5.119427894722731
Ti 2.8270429056594524 8.662960317820957 3.341525084443211
Ti 7.983514357915367 8.359531769503471 10.019605819239866
Ti 2.6170234795357947 4.686357167299118 6.862625699743007
Ti 7.684173843692268 7.431527125688553 7.535886269671831
Ti 10.201170958472533 9.861849365853777 6.178114464244276
Ti 6.175916546026892 6.315976454948595 9.491731524110302
Ti 6.3057769682142215 11.13957213464922 4.322058955104609
Ti 4.641483039170191 6.976922725088081 7.2161784307241
Ti 3.455490626950198 5.543248029727993 9.23048479670624
Ti 2.1032885400355106 8.666704273441573 5.596165606726478
Ti 8.32372947817536 10.402936456906962 8.204796567662886
Ti 5.818986998251591 10.922077732668875 6.787791166057904
Ti 3.4790572540364293 10.850790913253055 4.859119070099832
Ti 8.382297824528502 11.782675435772003 6.049559518162564
Ti 5.8658079669091 9.105051398880617 8.51062668629786
Ti 2.1083870009432193 7.308747735642101 7.788720048232082
Ti 3.8735780508164592 7.954163169305619 9.639641123956906
Ti 3.3668871088446197 9.686700421745313 7.542151250072586
