54
Energy = -362.23949999 eV
Ti 5.730649558062079 1.957889070540245 6.081539892389787
Ti 4.556138244016085 3.0645142230629943 8.287720853157772
Ti 7.990502009849253 3.1294509294695367 5.373752680893843
Ti 3.3803324475819667 2.770556579018417 5.764372629617695
Ti 7.116938363186847 3.5667677229781316 7.7399042158138585
Ti 2.0755197084766484 4.0956186241139765 7.652950135495057
Ti 6.0564454819109 4.51330186518079 10.885721506396225
Ti 9.971273635717644 3.6760601482494013 7.635542476782373
Ti 5.726956607659936 3.6440964091702197 3.7390096666754813
Ti 8.48156424793647 3.8660043279362446 9.817873422572944
Ti 8.345470477438433 3.9678491457015665 3.010087101745668
Ti 5.238889892056764 4.6024391341299085 6.049589168774272
Ti 6.641786764259965 6.896411827752188 12.295201359453262
Ti 10.195712824707275 5.765208327769682 9.650419373699226
Ti 3.481120438277086 4.61991612804279 9.957390772455442
Ti 8.54632805313436 5.3257533796482255 11.856238290359101
Ti 9.97809411956074 4.8763426470275775 5.075631464713687
Ti 7.279736462026149 5.801868395014457 4.66389471346691
Ti 4.67262010848473 6.3500314344722435 3.814426865278098
Ti 11.331960872362787 6.098938734989033 7.029528325163927
Ti 2.418044934257127 5.0219971918543225 5.015089054620314
Ti 5.675885490859163 5.816850734343741 8.490358709978418
Ti 1.9097410507983452 6.407611088360928 9.319805329124808
Ti 4.525286080503783 6.9090787923751895 10.687614488979197
Ti 11.86497093799107 6.500928147823425 4.396405001096592
Ti 6.737923820046346 5.562388207083367 2.0448588922925057
Ti 8.53286717450027 5.8202967977450015 7.241490298736614
Ti 3.475182057074364 6.374603826469681 7.2718766670461035
Ti 11.31402242046596 8.610120450803295 3.4816741767035273
Ti 0.8920396287047705 6.268495485881527 6.804195593823084
Ti 7.583168733975046 6.597912387316486 9.838955362079023
Ti 9.78933723546037 7.7482924621032705 5.592672992781287
Ti 9.175698603102624 6.746681888012653 2.9764198772201858
Ti 7.390165086842863 8.423392623484773 7.8494617437805765
Ti 6.621720755324112 8.012594306714712 2.562709510524425
Ti 8.955401938953177 7.996075368239706 11.395312286337965
Ti 5.409480294748367 7.63739014289881 6.105577297528354
Ti 6.4312040723808 9.051337049611572 10.740738527447128
Ti 2.360730541928846 7.7060132791666005 5.087288734933841
Ti 12.080280244897239 8.638653802835739 6.071472070403711
Ti 7.58229887848743 8.797285806978737 4.911387870598177
Ti 4.644436220094074 8.705546580169539 8.601576004163684
Ti 4.611243939962075 9.10382283275203 4.0073114829540275
Ti 1.8185712657852628 8.47637296512062 7.6548253250741585
Ti 10.156452905191706 8.103824844195135 8.3993402146892
Ti 10.52938904686358 10.484007938076322 4.854097315342368
Ti 8.734025109060264 9.941188699122115 9.763733945031113
Ti 8.970294917972678 9.673401470226654 2.809380956413065
Ti 8.984296498860592 10.269687925728226 7.119431195506287
Ti 6.616435336663012 10.809128413783155 8.710902508409134
Ti 6.051522320995664 10.314052367926898 6.2084039127228685
Ti 6.544541499068959 10.688795156566243 3.3461572176062306
Ti 3.5083449503650335 9.69557414293137 6.358452359471238
Ti 8.257787295220158 11.434464564202436 4.833508321936608
