5
Energy = -24.13233027 eV
Ti 5.66082558819434 6.442108065112292 7.614043126598202
Ti 7.737790817494073 6.011634637060268 4.315647111640519
Ti 6.387953472760807 4.8922423795063175 5.436769622045909
Ti 6.987520438964834 7.24965222224445 6.272297263451618
Ti 5.725909682585994 7.904362696076845 8.861242876263931
