54
Energy = -362.59857274 eV
Ti 11.08002633610104 7.165226033152172 3.2028347328469042
Ti 9.70509109254042 9.377811629009239 3.259908984404618
Ti 9.041779074249877 10.706016949947006 6.561589778329999
Ti 10.72628678054146 8.455666313745562 5.457003490273984
Ti 10.994082723786587 6.663678877639573 8.085976785740437
Ti 10.832115694289302 4.035053034291369 7.919753175066446
Ti 10.000585327774594 9.908080461001477 8.551531347506657
Ti 9.817708043666205 4.880331043665105 2.855520228110965
Ti 10.457719967574933 5.757453611759347 5.6524436009173815
Ti 10.28043698497892 5.209766993340154 10.125382349727795
Ti 8.906566287820992 7.341336512419466 1.56488768185083
Ti 8.667622772360676 10.027972476862727 10.728421210899247
Ti 7.586079131654502 9.283341751398934 5.106112459971105
Ti 7.803327365136095 11.76939089981365 8.899258201670294
Ti 6.185891388335912 10.513710910999743 10.699536343837853
Ti 9.234154917022218 7.624614156885108 9.868941974454092
Ti 8.861906669890816 7.871303235462401 6.934676900911788
Ti 8.211960669079 4.316392035851052 4.841152518739578
Ti 8.56283481845571 6.963167676955463 4.068508053198666
Ti 8.517055211765584 5.371174119933022 7.83250014438566
Ti 8.801492156738012 3.2204584196000554 9.532508516796304
Ti 8.587029455088175 2.786567089690188 7.079921757912957
Ti 7.440497817002449 5.132194479346254 2.1284826576448723
Ti 7.25227124169208 9.41274957415886 8.37638985565388
Ti 7.390283503998477 9.420093922663849 2.4931128501337625
Ti 7.720504428209794 5.336815710796417 10.772871447192385
Ti 6.293437640874855 11.158893880080656 6.336767442769051
Ti 6.563021255516518 6.866512647036982 8.876362227322655
Ti 5.092720239876519 9.323848442327842 4.241474393607787
Ti 6.073877039484657 4.101075062864303 6.337089981957523
Ti 4.865313835078668 8.692283291333725 6.82588811415891
Ti 6.896000290851308 8.109476827592529 11.275665065130315
Ti 6.083400004205362 7.3081901822161 2.588411553835303
Ti 7.567598509778244 1.6296118912217412 5.179826297708299
Ti 6.180312602868061 3.9968866540564623 9.071561227045267
Ti 6.3535337593464565 6.7598668639531345 5.663262988378755
Ti 4.884997835602709 10.897836863064631 8.456104220058691
Ti 6.9116249920886625 2.707140152913206 3.124267862885555
Ti 5.485570384857928 4.854657059486092 3.7196929110768338
Ti 4.894897014725162 6.126094631113047 10.80977360905101
Ti 3.657482263504656 10.969336367927175 6.049694748683829
Ti 2.551896379045411 8.97759866849199 5.25116825096273
Ti 6.151622196199196 1.6279371793639184 7.375335473495574
Ti 3.531864338840384 4.346599538417319 9.882782742751743
Ti 3.8533065204770063 6.897951955409831 4.774493698135791
Ti 4.294000643378676 5.970423780605339 7.767055310036796
Ti 4.959517799508353 2.2063536220829274 4.992587947263772
Ti 4.569139339329123 8.593681727869878 9.812673098983144
Ti 3.3228240042571286 4.567778373186667 5.5868189510614465
Ti 2.4605911424840983 6.869965334418248 9.4909306808151
Ti 2.5063849595949796 9.361296612565713 7.923207323879333
Ti 3.929708289199022 3.12491207690066 7.567077460586753
Ti 1.9013962896006427 7.000486945101567 6.785264373054666
Ti 1.8747710696201791 4.787575219371757 8.032721512046844
