50
Energy = -334.42086746 eV
Ti 11.244864512885735 3.821215636395186 4.187220871334464
Ti 9.948070284997996 5.98941558949965 3.3776226840793173
Ti 8.794149707437322 3.533159404941557 3.2841273158947786
Ti 11.784625733359908 5.914711356264018 5.340441830651732
Ti 9.872611138709509 2.130194262385538 5.317489606599644
Ti 8.383264853678893 8.45769923618488 3.668997805050749
Ti 5.775579484621273 3.388101564588738 2.955304083696877
Ti 7.110383444620088 5.758872822166692 3.7311227417118955
Ti 10.216789571134852 7.94284916267717 5.315257592873319
Ti 9.202341056537607 4.761542879193281 5.698433310486418
Ti 11.26623916082346 3.8606032467839952 6.94377847180215
Ti 7.279505705433558 2.4774551365505775 5.260216998046111
Ti 7.389245247769746 10.686903956353346 3.183184697209411
Ti 4.478035511187194 5.8432272049260945 3.2110004483879533
Ti 8.936951771875316 10.589809531880052 5.370361386137557
Ti 8.579631058186019 2.7001498249678053 7.566552240574727
Ti 3.2556601052389222 3.595393932768591 3.704288295972273
Ti 5.756663766339273 8.493844059700871 3.3038786198594097
Ti 10.382746874202644 6.608254570391151 7.508483290795234
Ti 7.831769098976699 7.241659972519408 6.115421753095027
Ti 4.756249989466098 1.8250850701741492 4.948750400224659
Ti 4.9452806980381565 11.073169878607748 3.74422839729637
Ti 6.917187839380758 12.357215266052817 5.032056258993927
Ti 5.336001733812231 4.371707303680601 5.30020612981531
Ti 8.437782875119307 9.207132650142576 7.778534833993916
Ti 9.394372795745603 4.6781434677171285 8.766323298086748
Ti 3.7094378210968535 9.187330318096109 5.076208538566888
Ti 6.414239433767524 9.75539704627664 5.586374166541284
Ti 7.929552681467391 6.855598193311662 9.139034864977079
Ti 5.087068640657977 7.014959260811076 5.609329206959813
Ti 7.408095199460297 11.590355513961596 7.393188512710227
Ti 7.005014233593559 4.969488929923852 7.3401260487905855
Ti 4.7102362689152155 11.662452713186454 6.350774030108184
Ti 5.50390486199022 2.670690020743445 7.58024774776652
Ti 2.6547317376974005 5.75833022929162 5.229695424833243
Ti 2.7050832187116596 3.109690039378883 6.114945906391046
Ti 5.7375299492877785 8.421952859834619 7.798697233342742
Ti 6.910330051098501 4.2286961798013945 9.730170141838668
Ti 3.3635986318066333 9.887388677715022 7.6063912044819215
Ti 4.2435569445171675 4.942692656735941 7.8050057240043715
Ti 6.772425795838151 8.894360155199209 10.21561208989251
Ti 5.424043419069074 10.8726489576273 8.852215823144073
Ti 6.639220100899396 6.233347180407781 11.591165351276837
Ti 3.0326914143724246 7.291138557165293 7.663431189960321
Ti 5.24966335404656 6.511115848968465 9.66689072937275
Ti 4.57257340585244 3.952323306491888 10.407452025204158
Ti 1.5605278540305088 4.939470242440455 7.533178806418969
Ti 2.7950169004906145 2.9974078775951356 8.811375991255126
Ti 4.080513183192396 8.818639978733989 9.85542938491022
Ti 2.6646089827029042 5.527897898828502 9.82211188437494
