51
Energy = -341.48051262 eV
Ti 1.2043591425351532 5.090963842239764 7.603655785909739
Ti 2.645113844114014 4.830589957515181 9.59525562876352
Ti 2.1199907478574556 7.36419363259585 8.493970555907678
Ti 1.4386515530812334 7.071744608635052 5.921051483991462
Ti 2.334505178823459 8.842465205727601 4.0013628797200465
Ti 2.0047407606527727 9.604441433193553 6.61027852077528
Ti 4.1897708458340155 6.994387051253073 10.056866630883425
Ti 2.7522183134941076 3.0404566699422317 7.403483298783232
Ti 4.364323474572338 2.9690957575940167 9.315499045534365
Ti 2.2107105397336078 4.448567577265827 5.2284764175182445
Ti 4.4000008379113105 2.8166023698757385 4.899358883861303
Ti 4.0013094313048745 5.455731724573477 7.366074426428076
Ti 3.87204941703373 9.315478051654306 8.889268495179206
Ti 2.6897355215411434 6.511732345883072 3.6641591144197463
Ti 3.3079339984148013 4.102023906523284 2.9351667883943087
Ti 4.110382286002833 8.177239961832672 6.04148086031722
Ti 3.729946858229277 10.479427862424922 4.5906031123601965
Ti 6.1335566468689775 8.803281286173684 10.267156780825244
Ti 5.720333683636066 3.1984913203471925 7.223458200144309
Ti 7.200823980097107 3.4621725629425977 4.539056135155857
Ti 7.962909068461503 6.49328120304218 10.024657651119135
Ti 4.218056522390834 10.949860459760897 6.914303010039848
Ti 5.812780431364659 5.062588193933203 9.406141465284962
Ti 5.0903811257395795 5.46518106016549 4.5843603674895315
Ti 6.160825977939052 7.554640519865671 8.03643372424971
Ti 6.9982256802168585 5.181406517344401 6.861630564360988
Ti 5.764587357526883 3.736711139584482 2.583166936720476
Ti 6.224758136163425 10.121257750847535 5.2913726387428675
Ti 4.72614173355093 6.06441261221853 1.9717025448522718
Ti 9.097047657178189 5.345896446899468 5.124240241308869
Ti 8.435633282554216 8.888829239299428 8.971088428325611
Ti 5.191215137103565 8.192348577916201 3.5880136998234358
Ti 8.14491521983225 3.8734241658764406 8.945455650919206
Ti 8.368465637855923 2.6451048909804515 6.781221991202235
Ti 6.2801439313707945 10.31194380132559 8.070662582107369
Ti 7.269005330006999 6.033725645493929 3.026532061893401
Ti 7.100317504944097 7.482697495860981 5.5102707352945695
Ti 9.843135536644239 2.733972462289607 4.771471872355711
Ti 9.207450767486684 4.243370970395066 2.7686601095577745
Ti 9.29445116734301 6.681627426123587 7.63034479761273
Ti 8.539652475936297 9.626735471446567 6.480278246342669
Ti 10.487655729388715 7.5275227460933465 9.898818652572933
Ti 10.315283751988543 5.044327532271982 9.69355012123477
Ti 8.073569171362369 8.691249470129508 3.5552826700246536
Ti 10.598542801267582 4.121718374261221 7.059738875764411
Ti 11.62165363284105 6.687472523963537 5.6457365980134115
Ti 10.169992076286492 6.755786522977882 3.209084411256355
Ti 11.037740309850152 8.678206444829252 7.574809621844547
Ti 10.215664694183284 8.569760530602894 5.063277133095796
Ti 11.471334752725015 4.555353758176281 4.254004906725979
Ti 11.942327636287365 6.20394377241898 8.157394540771719
