54
Energy = -363.2192391 eV
Ti 10.97983473499008 5.3765190974514265 7.751791863391377
Ti 9.426643552973912 7.431666866479021 9.841955164120334
Ti 9.690166477696476 8.201705626647641 7.372843424997225
Ti 10.007576224499942 4.741122819497602 9.74928375883562
Ti 9.070666322733894 8.043635074435235 3.0735421904241216
Ti 9.943235071746047 6.09226880259194 5.43948170661014
Ti 8.08911745585046 10.471705322210232 2.45024598613621
Ti 8.69127309642487 9.945339596320622 9.268890996238824
Ti 10.251552214632868 3.3370480588279965 5.575504190926674
Ti 9.35365170779459 9.860560238139753 4.771158761289304
Ti 9.715467473061004 4.646802518273481 3.2137973783276843
Ti 8.377726229547664 5.7772404817428 7.744956960080183
Ti 7.020056706474342 8.71847798419387 10.966951353311742
Ti 7.624059735024346 5.922953515778081 10.601181209775628
Ti 8.694569391532808 3.217491043418445 7.768288927728189
Ti 7.365975817203942 11.745060917653321 4.5082968525922285
Ti 8.97272481638921 2.1519537216086255 3.62812053516951
Ti 7.842363408922295 7.502162882874734 5.584376555946962
Ti 6.579184380777443 8.601485186595577 1.5235922459385978
Ti 7.4341760546470255 6.242407669511927 3.020752286173504
Ti 8.082219774556483 3.2629549715815416 10.366337034416482
Ti 7.640641379009557 10.253395614424068 6.7828787410734215
Ti 6.121844182205416 10.405311095591069 8.879406593730522
Ti 6.746704443574537 9.199079196628219 4.29606049200636
Ti 7.749105814368541 4.17993573989271 5.008311751137928
Ti 5.3669008463261045 10.775459322009754 2.864271267079968
Ti 7.441058065367507 3.703063095837838 2.276448048211466
Ti 8.055241596454305 1.6093063718419756 5.9409415183734495
Ti 7.187931737337918 7.923375881865562 8.487671705443192
Ti 5.099840262338464 8.773329286780827 6.695549667115114
Ti 5.040895209612594 7.128919393933661 4.088689362625137
Ti 5.173316826934785 11.079199881362545 5.711807769980207
Ti 6.337675110770288 2.0518555597083523 4.007210316123479
Ti 6.010336962302805 4.5339328189085135 8.793348521652163
Ti 5.228395808510037 4.50829384606234 3.469368211456254
Ti 5.1516216180465175 6.315793045506966 1.5350855538510344
Ti 4.4923995265060634 9.153142713014102 10.321395842799879
Ti 5.655481084902818 5.7297087191964025 6.2136043761375195
Ti 5.115865398684725 6.67100661615584 11.340235818634127
Ti 6.564078604223061 1.8608182871957535 9.049729997053502
Ti 5.6612410567528695 3.4942454184670795 11.131652323205712
Ti 4.062388579887787 8.6245489855714 2.0379457830768035
Ti 5.687875348176434 2.9802142711264716 6.562204056969177
Ti 3.4717772874763217 9.326760748141039 4.523012393362552
Ti 4.614588728560933 6.984388359745537 8.621879003346299
Ti 3.4601395692742787 4.390764916574324 5.102428707781834
Ti 2.9279575410721264 6.429791568540324 3.1133438000657745
Ti 2.7444241562836575 8.884581638036812 8.181863766196617
Ti 4.249110610277506 2.537036895817197 9.00866544755999
Ti 2.7580172166176964 7.414276348157023 10.48660378823834
Ti 3.496523891235183 4.841053729168775 10.22169542086577
Ti 3.5303759163775004 4.58585195526772 7.493664462248002
Ti 3.102608078568188 7.032672135894927 6.144094307565666
Ti 1.8569982224676749 6.343925475725062 8.403183130586433
