55
Energy = -370.70582074 eV
Ti 6.015995360975133 5.995143843220448 6.025325887239181
Ti 5.876662742621417 7.633689291066216 8.27337594518544
Ti 5.96014351956584 7.475088452191376 3.66254503886141
Ti 6.012786596192743 4.475048971676863 8.345359152525077
Ti 6.1361763921590535 4.399850075162671 3.7611991160140446
Ti 7.602059658722994 8.266613857330427 6.171897177529698
Ti 4.507675471545296 8.36082408865836 5.976592756330035
Ti 7.527223662221076 3.662781147296981 6.18761559420155
Ti 4.43489393630913 3.713207405715394 5.83822736721292
Ti 8.400195974796503 5.99098430692168 7.449333187553321
Ti 8.258304141092172 6.0763253252603135 4.376938773533052
Ti 3.773693339137614 5.906497410980246 7.638696816871017
Ti 3.6636956121670985 6.048230232082612 4.523572780793423
Ti 1.53389604127247 6.021049695791757 3.230360049274529
Ti 5.992497869314044 8.788152556046724 10.46310303449719
Ti 5.986961041520162 8.7743859102768 1.534359407521677
Ti 6.003386636445955 3.2266990176956605 10.487693091867856
Ti 6.020370709409004 3.2322752469788276 1.555024324023649
Ti 8.78019791742242 10.453057089637314 6.0077942703580325
Ti 3.226244873482027 10.488601059021383 5.996185439283818
Ti 8.783531738361043 1.523157759750441 6.040095071636567
Ti 3.224989829065652 1.5501744858031492 5.969471808852196
Ti 10.496614357184074 6.005310554055209 8.77249687027872
Ti 10.451581993210041 6.015906301591294 3.2186858323776284
Ti 1.555265794283587 5.986794197217934 8.766882012436547
Ti 6.0277708195453075 10.622211310771991 6.029425579163368
Ti 5.98872823937126 1.395425678352007 5.989975776238972
Ti 1.3984739034964684 6.001193463958344 6.028682744385513
Ti 10.655742127632948 6.020613081012399 5.954530086853825
Ti 6.015943914467499 5.976681086109553 1.3883549496110608
Ti 5.9674951388076956 6.0280337563767175 10.588987730444002
Ti 7.472667162387332 2.1331294130415617 8.421336491121584
Ti 4.5226233538503475 2.2206464107942163 8.292919987341598
Ti 7.5063765082308045 2.1708694478800292 3.7314001367508003
Ti 4.510925910649183 2.1657401374681875 3.595644699409226
Ti 9.731385653830891 3.7092048054930262 4.56089345682228
Ti 9.869207134328738 3.639861490963241 7.515459911671746
Ti 2.12400535045697 3.6795232426983886 4.486490536372664
Ti 2.199075902213266 3.6504396933492465 7.446725112302981
Ti 7.4595157772816325 9.742498078747436 3.7175516111695863
Ti 7.484921209718151 9.852751901421753 8.376822230643715
Ti 4.507294452375132 9.816505610741498 3.632907421593888
Ti 4.482915657680675 9.903145083896204 8.33657878823141
Ti 3.6192087484930986 7.501671613606909 2.1733061669705585
Ti 8.332772276048079 7.521415585665703 2.1265851439073953
Ti 3.7125973998698636 4.547656110087839 2.2543372244861337
Ti 8.362414292370678 4.550145471632384 2.129116742292855
Ti 2.2372398676772787 8.312656854703851 7.477141662326443
Ti 2.176466403216773 8.382925930178171 4.512890135971598
Ti 3.6640830398273327 4.488110081264095 9.875590073642822
Ti 8.372423967935157 4.503031190842338 9.77459140294635
Ti 8.306196360257374 7.4844317118572645 9.721516312756467
Ti 3.6236775427516665 7.497877833479035 9.838080090062995
Ti 9.824034882322666 8.35282136486978 4.544543179079435
Ti 9.910430630675691 8.350593113552362 7.496442645417268
