53
Energy = -355.91714657 eV
Ti 9.326070306415286 8.636455256421536 10.935441990927199
Ti 6.699972847585403 7.800497716961842 11.511501835724973
Ti 8.931106644224776 6.061421365246391 10.845874814474342
Ti 10.428217329456746 4.301215306992019 9.371772210503735
Ti 4.217263288928809 6.111906516818615 11.155328803274987
Ti 7.261608967639097 10.334887287842603 10.137901949390947
Ti 6.777231041078828 5.180172504841587 11.821688245610803
Ti 4.912148859809605 8.728766500154713 9.688068757382995
Ti 9.63569691371156 10.060963028164739 8.934269738914471
Ti 7.77467387439407 7.904707768448167 9.059927421464048
Ti 8.133078183335442 4.97716131167593 8.458313554858075
Ti 7.861134652988414 11.39021564460697 7.661195487356362
Ti 8.207795090044133 3.331011345529032 10.547088683241572
Ti 5.789466637831998 6.063102871720494 9.443272476843191
Ti 2.8491646356710016 7.06677051318529 8.86282819459284
Ti 5.333362179979484 11.139858541627667 8.434836265535083
Ti 3.540805678759649 4.338530080827611 8.705021590006213
Ti 3.8114990642998112 9.388922065322825 7.029299403008294
Ti 6.413991279328966 9.017475605510391 7.285821201497677
Ti 8.85954160653678 9.132270995768264 6.430439929549803
Ti 10.086856816682351 6.979779372259296 8.422740588546592
Ti 5.378490780970209 3.4821036412773805 10.508059806375684
Ti 10.405776213807801 10.74313658182073 6.234026642482798
Ti 4.591894252300518 6.9121474776304455 7.268726787669245
Ti 10.166875470073538 4.736908017140718 6.749770962565579
Ti 6.957479433780466 1.6235920421969319 9.226718803676329
Ti 3.4098006701542527 10.174563142344436 4.491588542524914
Ti 10.089652804263961 9.941097352664446 3.759492858588932
Ti 8.330258565199854 6.562239713640196 6.282438775325144
Ti 8.967297490169646 2.485465916572174 7.857697407698514
Ti 7.895186778728345 10.861942361632357 4.479555791729553
Ti 10.643747362407133 7.60892890078999 5.267235311861376
Ti 5.917677300300709 3.6768043858932686 7.57515337060971
Ti 5.635491960169814 11.021477895726225 5.722396622298985
Ti 5.388741942669606 8.391339484315738 4.8324885512745634
Ti 7.9732895313505034 7.980410855413989 3.9498967220646364
Ti 2.858937142456157 7.569587403290608 5.1415200420816065
Ti 9.410063731774255 5.634873458661604 3.866696744584128
Ti 4.5584138795419635 1.6812640344929581 8.726585181134947
Ti 10.345808581144816 7.852537653866788 2.596588935608679
Ti 6.044935286857703 5.678533150755567 5.659694962282841
Ti 3.5201687895568647 4.740677222552185 5.920093048983273
Ti 6.354951908879518 1.3478485485319662 6.631801033135606
Ti 7.979312856747126 3.6360547771130607 5.615657479609187
Ti 3.693344239190113 8.40784334995113 2.752703143834318
Ti 8.211395494015989 9.52953910420314 1.9022613733190135
Ti 5.6504747589492075 10.289127960571651 2.9111416944204316
Ti 8.38297538443346 6.814106334185222 1.5642670675148493
Ti 3.753487774066976 2.3323954841585426 6.611106519756203
Ti 4.446655799701525 6.023792583802262 3.4720422991646616
Ti 6.934515513044889 5.407582000602144 3.1591251648618788
Ti 6.018134725747175 7.822665159327257 1.8333130863617246
Ti 5.432538484504998 3.2954021708949064 4.85453082640034
