53
Energy = -355.39373821 eV
Ti 3.7253766495905736 10.27027404808479 5.500870390156543
Ti 5.477336251575309 6.578464776964828 9.075936093674299
Ti 9.549377613502383 2.9004189949912793 3.348670765860936
Ti 6.8641243532607 9.579448700992588 7.7917047131547035
Ti 5.600307404414231 7.557271488669027 11.585705538977052
Ti 1.9371120855210529 7.089221513735128 8.144447464630257
Ti 6.101411514568015 4.448485482499986 7.286884971344746
Ti 7.438660009373813 2.0550667955188118 7.8218962194026584
Ti 9.834687693911093 3.282722434099069 7.854778179781094
Ti 2.067101508588181 9.474014276334222 3.6301021873249115
Ti 6.170539771926424 2.0950393428247023 5.6907550322573055
Ti 9.759311648673695 6.983807319500595 10.300911370001105
Ti 7.258925216480972 5.499198054665073 10.871864227482826
Ti 3.7342471203056706 3.6408050611019167 5.8518035179706
Ti 10.787160049560981 3.9618173844219693 5.3917829626144655
Ti 5.083155784822283 9.482110698551454 9.95521010670771
Ti 4.3737020540875005 8.45042721866038 7.4987949071148625
Ti 4.285418510828406 6.201901867779968 6.184540101805438
Ti 9.675551154696326 8.03585780488771 3.396902832973026
Ti 7.510351215588978 9.429168782600428 2.8695396431992024
Ti 5.81336823350479 4.655474687133623 4.508957753627495
Ti 3.2622837797251543 7.66124912206642 10.288475797913419
Ti 6.95990540218133 7.143609629915236 6.6169391173799665
Ti 7.3258545085602504 1.9581478033248625 3.616856201056658
Ti 9.97599540963507 4.543273315315652 10.24593831410163
Ti 1.8899909620741042 8.424255772193181 6.047830347083268
Ti 7.5398275567907 8.155348955340312 9.759963745167706
Ti 5.460424778319494 3.630306628357106 9.679835002815281
Ti 5.208949737351028 5.799425806597184 2.0752599048391756
Ti 1.5562190029228713 7.041896329123685 3.7840744384870653
Ti 5.689666306022288 8.217656623350763 1.6267627263218258
Ti 3.1177938082488965 7.902562869586068 1.7831652430255556
Ti 4.375690805239038 5.337285377657639 11.144664511486353
Ti 8.012200076757033 3.1051339957040542 9.843403884444205
Ti 8.196405051928371 4.115644213257405 5.475117204653114
Ti 4.971779089681121 2.9537648037073994 3.0087236832378093
Ti 8.060974606614458 7.027757627786245 1.5285308568078406
Ti 9.117995198044463 1.7026182763807267 5.682462862672289
Ti 4.270517895448472 7.775342737298323 4.069823339820667
Ti 9.573847304115933 8.128212845832104 7.953410621620847
Ti 9.572773431423178 5.489788179050031 3.3552413763415285
Ti 3.1791451387623915 5.045292846841709 3.6401613690366523
Ti 8.35735584999837 5.64422554856568 8.431622853789769
Ti 7.480183606413509 4.251254624355128 2.2557258272126313
Ti 6.0768835984454785 9.376321338629367 5.1764850882084295
Ti 10.986303512201713 5.796432394653157 8.194923296944541
Ti 7.256253118480988 6.914737964717599 3.9303284909418004
Ti 2.5699622944606895 9.655299613994329 8.477652882289096
Ti 8.50367236339987 9.080480435085097 5.412804879972042
Ti 3.4095760140984943 5.001760918524349 8.489931545769005
Ti 9.608617275413105 6.509672296617664 5.859230046722532
Ti 1.7556962919728993 5.57499114874819 5.939456607756179
Ti 4.415677866062289 10.150900708981501 2.8287864375942258
