53
Energy = -356.4127106 eV
Ti 9.805783782454967 8.877916261982959 2.8789258915945566
Ti 10.79750874718002 6.347879511388418 2.7428461852620525
Ti 8.863525751239479 4.624881465699584 1.9476085378450805
Ti 10.947818546449218 8.174657443360287 5.14097481721033
Ti 8.215631772152776 7.036799761416279 1.5920063664018484
Ti 9.849152667390197 4.102109826651641 4.178540894096658
Ti 8.682861447754108 9.753892094408926 5.131611798717408
Ti 7.136953959601911 8.907128983783434 3.1409924442713244
Ti 11.2679268980525 5.560758803617835 5.275864283321252
Ti 6.215286181286736 4.53103098095594 1.4619409577179439
Ti 8.865893558013738 6.886345179171389 4.279785091816012
Ti 7.56313420962402 7.640640867770233 6.627001555157629
Ti 7.471027918890313 3.0332152336721787 3.6400738781938156
Ti 9.691264643088838 9.046327542368868 7.422709405560972
Ti 5.105614086738289 7.282558022232603 2.1610347859458527
Ti 7.820634663418689 4.854119701367582 5.819992029377378
Ti 5.849264352621212 10.306180705194091 5.551445306975659
Ti 10.011857469885028 6.306659819751661 7.2757822481932175
Ti 4.514002424082967 9.56736394358098 3.327218718528895
Ti 5.079105705265128 2.9198355900858313 3.1888738856485976
Ti 5.478938795380279 7.758737211374131 4.916712657370635
Ti 9.989304061230202 3.644947663498988 7.366442540606937
Ti 7.069274501283197 9.850596873349275 8.086418693661154
Ti 3.5507286111089424 4.9745774300417605 2.544144075543705
Ti 6.6994104900207345 5.60291277875898 3.543125905504439
Ti 8.455718020414746 7.420733205327117 9.124538372338973
Ti 7.8540455032720615 2.339450223670014 6.9529892949776055
Ti 4.927612757496036 8.363310635330103 7.570804224789365
Ti 7.7595804120721255 4.8581683722397635 8.200709751288452
Ti 2.8831118186819062 7.453920383702136 3.6661715751151007
Ti 4.404817204418169 5.331554187538927 5.01837881515805
Ti 4.4942629716697216 10.919556991048566 7.725542255387431
Ti 3.3280036375403994 9.49820312269506 5.7069756862293834
Ti 8.44597021988438 2.746053779115334 9.468048434740579
Ti 5.592543008711222 3.1457185440853324 5.9700698778324695
Ti 9.74336731915825 5.035341496073345 9.79415600212037
Ti 7.5894923583808325 9.435641235580368 10.66638520505588
Ti 3.132887329300156 3.0820956060007116 4.5795780246634
Ti 5.235000961057221 5.582571695445895 7.613144707834567
Ti 2.7929367673983467 6.991144392455994 6.4815477247623905
Ti 1.8157090188471752 5.150243829537294 4.768062037077641
Ti 7.859129112257837 7.069532836636535 11.774515398658858
Ti 5.801402866090404 2.9959998486109893 8.760578989322056
Ti 4.946455390420328 9.990966276193642 10.106495476465403
Ti 5.92236706555835 7.319107154367322 9.925122055764378
Ti 6.99288395033627 4.705856556404039 10.731072657760299
Ti 2.717903095121016 9.052056327157345 8.667956998718552
Ti 3.1905526006659604 4.213882558036653 7.057559598172848
Ti 5.758361905328454 8.633701197605827 12.252331392901585
Ti 2.7820858143196125 6.401306685855343 8.875899770221578
Ti 4.285069786478674 4.9825735399545295 10.219682399990825
Ti 5.415396090646557 6.1399101235553575 12.291198598357132
Ti 3.5559740721017348 7.773871802133194 11.01295802161257
