50
Energy = -335.7871483 eV
Ti 10.863219329947716 2.7591848192645267 5.666552712372664
Ti 9.164486636323055 1.3199552994126895 6.69465444830725
Ti 10.262059321122846 3.3267148442644565 8.196197529081353
Ti 11.627033742973905 5.101397051744698 6.6832139664834
Ti 8.718815800373106 2.3323041481348747 4.162514436977401
Ti 10.513857152706757 5.751435467220288 9.12061210983017
Ti 10.218513679342307 4.7873576298357206 4.234488141954013
Ti 7.655360620950708 2.425032748956522 8.546725693233865
Ti 8.360075532971042 3.7894274515305613 6.186858539134279
Ti 6.669370245035778 1.6479588913523973 6.211500396717118
Ti 7.805570807259362 5.050947995989421 8.846692095776428
Ti 11.333844337921498 7.658337275827881 7.618220726484729
Ti 11.133419831590423 7.270680827614271 5.104938170746342
Ti 9.255873940089328 6.334376525387039 6.769593320952642
Ti 7.772258598740872 4.784035733050103 3.2987753366708272
Ti 3.641839541078679 3.5456062474225285 8.721505365779302
Ti 5.942440532617821 3.665918662835769 4.640297504931941
Ti 5.436104820962828 4.677176066497311 10.402300143085062
Ti 5.8670896146502365 3.9256671429049406 7.303116061414447
Ti 8.988682488157894 7.980563223891423 8.968908016616767
Ti 8.744204361951356 7.211461683087295 3.9652084119543654
Ti 7.2046853665896275 6.647072448164787 10.551385618505014
Ti 6.771037804000612 6.018930583619331 5.638187400059702
Ti 9.266801533981806 8.966902985134869 6.273844615170011
Ti 3.3477906983609267 3.3575826200925105 6.027792580429626
Ti 4.6987739258753045 6.039631921408264 8.408857619513345
Ti 8.736347856780846 9.952217417102094 3.799265223698424
Ti 6.790202430119907 9.0438547682599 10.272378820889825
Ti 6.6259070827844235 7.68430521977591 7.921365980710714
Ti 4.676681572848964 7.461692811863347 10.691335881974952
Ti 5.592848234124551 6.590249815782565 3.416759659862635
Ti 2.8614633633427826 5.5994409955644295 10.105584677312443
Ti 3.6877752149688825 4.603188693570975 3.5444851987230614
Ti 7.1852607599148275 10.300174080634758 7.973962307278655
Ti 7.042693369193825 8.763219781594048 2.4043123907382604
Ti 3.9934160524265954 5.882620287458451 5.849080271249522
Ti 1.893591468522083 5.249608640694446 7.578419245231032
Ti 6.838387757952303 8.796249212346254 5.132837236594359
Ti 1.6545466191212157 5.129478621736569 4.9595645242745
Ti 7.778002232427124 11.267838717833797 5.705032716582546
Ti 4.699116354571022 9.658861623654008 8.754877308216084
Ti 2.77606887450119 7.798927573117211 8.346081341022325
Ti 4.414234795065665 8.438409365317574 6.032093379647271
Ti 4.648344631798251 8.908264534395965 2.8561788406043753
Ti 2.9055162774450114 7.272775052274989 3.7892937828495925
Ti 6.0171240397768475 10.95142271116078 3.7715996248576293
Ti 1.7842435720487928 7.753730587455645 5.931344778192002
Ti 5.144554331278689 11.112426695373383 6.430208106336469
Ti 2.692293360293232 10.14482460343646 6.995121689591874
Ti 3.299160744383802 10.261549156218438 4.496867312647502
