50
Energy = -333.59442613 eV
Ti 10.832196651120581 6.313778382199708 4.872384372473071
Ti 11.779338400629873 5.919813243174308 7.782566847041733
Ti 11.086140580876547 8.308080109674775 6.676750090919383
Ti 12.479798884879129 5.206767776301999 10.109038152437645
Ti 10.096992627562186 8.745373193448838 4.0886442373861485
Ti 9.699304119066108 4.689602167658574 6.69239753046358
Ti 9.703015792512765 9.955999075800534 8.458071399671207
Ti 11.424927456297976 3.471521826215664 8.566660213066694
Ti 9.070945168348528 6.893415006795625 2.8418666687606855
Ti 8.982044521698164 9.825156156902237 6.029383847733824
Ti 8.92766305925097 4.578341917574598 4.095557388557186
Ti 11.10033974952384 7.710998517798127 9.568579035200115
Ti 8.216658818167806 2.4662881593811936 5.9732490657187824
Ti 7.651658836582663 11.726523493856032 4.727228618896046
Ti 8.24831074931697 7.142315292827255 5.368868206943729
Ti 9.105071214636077 7.053197560465333 8.089986581990814
Ti 8.716366537655723 9.127063789782277 10.375459611053145
Ti 9.92820430349305 5.208091707265801 9.79472545693243
Ti 7.878384402975742 6.707289118412932 10.773293581747794
Ti 7.399495585477108 9.007156834387004 3.6777740064331175
Ti 6.9670824225919885 10.83683925616968 9.347476805086572
Ti 7.230543639347776 8.650363133147644 7.88708316647882
Ti 6.8714672996323065 4.687905292633682 6.179368683704841
Ti 5.375341283564171 12.335158350657181 6.074145537827475
Ti 8.581254424115993 3.3600953335993804 8.62514919770308
Ti 7.013340401773237 4.0223932915251215 10.799022456729842
Ti 5.555424541710958 11.347454956624393 3.5965999341989257
Ti 5.972895344352529 9.751653647479973 5.678824877595648
Ti 6.736720462934811 3.3666660681750646 3.845267453356307
Ti 7.591890225574129 11.693422453538304 7.233899982287251
Ti 6.496396793434502 6.073922167239467 3.477340982423178
Ti 6.098156356929286 8.49868983027508 10.26336652814669
Ti 5.3291188105409315 6.977895643803892 5.558932006708963
Ti 5.0455230912344735 6.155980214855617 11.027087103191127
Ti 6.283815851315004 2.74747635473355 8.371490935361297
Ti 6.777317961651113 5.491353290009477 8.757107357176231
Ti 4.671299862107466 9.854910574882839 7.929096533691643
Ti 5.561632425793649 2.3310343623146155 5.870245615056107
Ti 4.77859553129152 7.124378613657436 8.156357733040823
Ti 4.510963836736968 8.932454411999831 3.49968793383943
Ti 3.5806664707301814 10.891286367632148 5.22404770984323
Ti 4.424433409719507 4.323800923680054 4.598818011455741
Ti 4.55875644270311 3.969126180070894 9.873395718111894
Ti 3.499633198971606 6.531164798511231 3.747734224178471
Ti 3.520059660529041 8.322109669755179 10.15811010499049
Ti 4.255596435340623 4.165861043228288 7.322804632023421
Ti 3.0375352311175274 8.382286797458736 5.525100382419852
Ti 2.8371088501839345 5.866676354704797 9.347425910156042
Ti 2.780537761388675 5.925562006377339 6.325684084143424
Ti 2.3486690848439102 8.152655554067472 7.979787630020755
