54
Energy = -361.80737667 eV
Ti 10.527325949900948 10.25886126219075 6.982589923488606
Ti 8.69114523711541 9.991373582426816 9.563630154916858
Ti 9.952701870280963 8.091910950901829 8.284211495863653
Ti 8.392685336307888 11.761693637615236 7.8933198288683215
Ti 9.747341629363092 6.193244713784454 10.112350905066972
Ti 11.29775347448149 5.684174356276672 7.786137390563154
Ti 8.271057155832674 7.9612434634475875 11.765425347842625
Ti 7.602184121494146 5.441073630025705 11.346097382669878
Ti 9.473840212219216 9.304637174764798 4.197724911213177
Ti 8.528287317491268 3.89925432220367 9.290369863069522
Ti 10.070237666047372 3.3371371216407164 7.302889778370915
Ti 9.136789273666034 11.641526138255253 5.502741201088513
Ti 6.182713583251748 10.377653144612129 8.519582637663461
Ti 10.695952260124344 7.494975460501359 5.734225122008463
Ti 8.05364047710059 9.308155110945352 6.632158186169244
Ti 6.2921962195615375 9.46118628137259 10.941621224897752
Ti 7.435764741357541 7.675662224545535 9.359689023060715
Ti 8.770796177231727 5.967312183507143 7.420323578464695
Ti 7.939350937436709 1.5408302278479955 8.176706936469008
Ti 6.0796833163630675 2.6457962310130245 9.786043240062325
Ti 6.5800772332269135 11.73039107788349 6.029001312229808
Ti 10.395508474635353 5.061894607960531 5.3505733806889575
Ti 7.475355160331619 11.045813899244536 3.5336842177234713
Ti 5.7328143015130335 6.991629281767498 11.401111111287548
Ti 9.571037460781284 6.569018771622127 3.1271553668349736
Ti 6.148693585354637 5.475980447975823 9.030240054969761
Ti 8.080660923865722 6.883770788006676 4.944125154352114
Ti 6.0919424976088585 7.201967960732168 6.950017159336049
Ti 3.833076730938692 4.403178244676064 9.698618976873924
Ti 4.652696142869404 8.102386045160804 9.105645042991025
Ti 3.5737276710654813 5.918920570447007 7.441007314343769
Ti 7.613562873831231 3.710231897437425 6.760577685912052
Ti 4.702544413077381 9.576648564167009 6.5165294641781095
Ti 8.182627829436026 4.184398517213333 4.034890969260144
Ti 6.175432054682231 8.893595749854873 4.461983030505741
Ti 4.982482262791846 3.516447393001153 7.4844368705296205
Ti 4.817141032604389 11.255859869509392 4.328715158664115
Ti 5.954822768177573 4.986986015206468 5.145488706588588
Ti 3.6143273305407293 1.8124288846100691 8.981555737135377
Ti 5.601354238986661 0.8766746962623012 7.719418010294719
Ti 2.2840407338288493 3.5983138010217175 7.5872813039138824
Ti 7.683872286241518 8.569552207023358 2.2332088470434086
Ti 6.7561470533215235 5.879562258704372 2.6018867347477244
Ti 2.5815058151452837 8.207090737959332 6.657864413321869
Ti 1.8796686169938774 6.118241344182966 5.318649747627678
Ti 4.296133995907271 6.9403930297278595 4.959301190215616
Ti 6.0824823622320245 2.2364198458888196 5.263226160694148
Ti 3.4507077111119866 9.084735269033642 3.911148799898257
Ti 5.377066156143986 3.3721494792729656 3.0628975405051957
Ti 3.472902960101051 3.95712244224457 5.0842035979717926
Ti 3.5711144228040306 1.6080746683941043 6.272297192991539
Ti 5.410225294536667 10.079048153489582 2.1850897401973404
Ti 5.049816254971887 7.6608869792431475 2.1625060305577426
Ti 4.005588285820426 5.276731626877569 2.8669134077991503
