5
Energy = -24.77950033 eV
Ti 5.476194400544654 8.584977394054086 7.2218969408638936
Ti 7.511625445154189 5.0757947462144895 4.838125980544318
Ti 6.068929808298777 6.590264156604358 8.00058912689627
Ti 6.439112723660765 7.18584941401527 5.557967056869093
Ti 7.004137622341852 5.0631142891119145 6.881420894826428
