55
Energy = -370.50488951 eV
Ti 7.730611608673544 7.730611608673544 7.730611608673544
Ti 7.730611608673544 9.295520962658173 10.0176590133692
Ti 7.730611608673544 9.295520962658173 5.443564203977897
Ti 7.730611608673544 6.165702254689084 10.0176590133692
Ti 7.730611608673544 6.165702254689084 5.443564203977897
Ti 9.295520962658173 10.0176590133692 7.730611608673544
Ti 6.165702254689084 10.0176590133692 7.730611608673544
Ti 9.295520962658173 5.443564203977897 7.730611608673544
Ti 6.165702254689084 5.443564203977897 7.730611608673544
Ti 10.0176590133692 7.730611608673544 9.295520962658173
Ti 10.0176590133692 7.730611608673544 6.165702254689084
Ti 5.443564203977897 7.730611608673544 9.295520962658173
Ti 5.443564203977897 7.730611608673544 6.165702254689084
Ti 3.3048078553071365 7.730611608673544 4.975228377881257
Ti 7.730611608673544 10.485994023110377 12.156415362040125
Ti 7.730611608673544 10.485994023110377 3.3048078553071365
Ti 7.730611608673544 4.975228377881257 12.156415362040125
Ti 7.730611608673544 4.975228377881257 3.3048078553071365
Ti 10.485994023110377 12.156415362040125 7.730611608673544
Ti 4.975228377881257 12.156415362040125 7.730611608673544
Ti 10.485994023110377 3.3048078553071365 7.730611608673544
Ti 4.975228377881257 3.3048078553071365 7.730611608673544
Ti 12.156415362040125 7.730611608673544 10.485994023110377
Ti 12.156415362040125 7.730611608673544 4.975228377881257
Ti 3.3048078553071365 7.730611608673544 10.485994023110377
Ti 7.730611608673544 12.303672195721964 7.730611608673544
Ti 7.730611608673544 3.157550205269487 7.730611608673544
Ti 3.157550205269487 7.730611608673544 7.730611608673544
Ti 12.303672195721964 7.730611608673544 7.730611608673544
Ti 7.730611608673544 7.730611608673544 3.157550205269487
Ti 7.730611608673544 7.730611608673544 12.303672195721964
Ti 9.215346037848855 3.921869694237962 10.058493903329845
Ti 6.245876363142607 3.921869694237962 10.058493903329845
Ti 9.215346037848855 3.921869694237962 5.402729314017067
Ti 6.245876363142607 3.921869694237962 5.402729314017067
Ti 11.5393535231093 5.402729314017067 6.245876363142607
Ti 11.5393535231093 5.402729314017067 9.215346037848855
Ti 3.921869694237962 5.402729314017067 6.245876363142607
Ti 3.921869694237962 5.402729314017067 9.215346037848855
Ti 9.215346037848855 11.5393535231093 5.402729314017067
Ti 9.215346037848855 11.5393535231093 10.058493903329845
Ti 6.245876363142607 11.5393535231093 5.402729314017067
Ti 6.245876363142607 11.5393535231093 10.058493903329845
Ti 5.402729314017067 9.215346037848855 3.921869694237962
Ti 10.058493903329845 9.215346037848855 3.921869694237962
Ti 5.402729314017067 6.245876363142607 3.921869694237962
Ti 10.058493903329845 6.245876363142607 3.921869694237962
Ti 3.921869694237962 10.058493903329845 9.215346037848855
Ti 3.921869694237962 10.058493903329845 6.245876363142607
Ti 5.402729314017067 6.245876363142607 11.5393535231093
Ti 10.058493903329845 6.245876363142607 11.5393535231093
Ti 10.058493903329845 9.215346037848855 11.5393535231093
Ti 5.402729314017067 9.215346037848855 11.5393535231093
Ti 11.5393535231093 10.058493903329845 6.245876363142607
Ti 11.5393535231093 10.058493903329845 9.215346037848855
