51
Energy = -342.34104632 eV
Ti 9.413440724347227 2.2590941759098193 8.42974691168185
Ti 9.610648691753179 2.7570283225930843 5.933413518570702
Ti 8.528855347459615 4.293144801897476 3.823939963006257
Ti 6.819376689801014 2.6599588493197523 4.803081539741804
Ti 7.516677941946769 1.3195484242193458 6.945430255779653
Ti 6.022329478201027 4.293823259134008 2.4871127576454124
Ti 3.867560303262781 3.3538525208606464 4.361691602241789
Ti 5.162925589307444 2.5612926223159582 6.92008379861679
Ti 8.129514569800302 5.627720516124507 1.5202133985108413
Ti 3.338176866929358 4.757269126780848 7.0371433822541976
Ti 9.67373939959756 6.594277162580989 3.3376033944530583
Ti 4.051647790394753 5.629607359986411 2.8111875289749553
Ti 8.860403861718078 4.2504294445272865 10.04155991831087
Ti 10.337020821385744 4.717503293013985 7.899815909503553
Ti 10.3570376944093 5.246225346573433 5.459279669365656
Ti 7.899436862894468 6.3277049749333605 6.068305397126078
Ti 6.812731934914288 2.411809522015912 9.302274443408976
Ti 2.5432938332342148 5.839488265642149 4.700488134606722
Ti 7.665646988294992 3.92958474398977 7.289813861829197
Ti 5.417747488258299 4.943234139965725 5.207722303886365
Ti 4.479819484520304 3.6045815105338868 9.115873196803786
Ti 5.865143593823386 7.096875627722069 1.3509677191945535
Ti 5.80451835514671 5.697463661913465 7.900875525508578
Ti 8.328990839603145 8.129072348902376 1.8686467885419733
Ti 6.7585164251739736 6.764664403973908 3.6268695147611454
Ti 4.137810744613214 7.094460436774025 6.091597067989804
Ti 6.310795740380084 4.779207035380132 10.620467262421949
Ti 8.212070399784173 6.62283210646054 8.844390737406748
Ti 6.478692267375685 9.45413376450939 3.133346725536841
Ti 10.21895932873785 7.528942512258899 6.986066623946402
Ti 6.09036401998145 8.623826878370837 5.531652274679032
Ti 10.309450739865472 6.875366807018606 10.022289027830913
Ti 5.067083731675872 8.522364895917908 8.269029655544498
Ti 2.4302091540490736 7.961860109736187 8.117774924790945
Ti 3.9790702409787113 6.227210490793796 9.509932038929254
Ti 8.256375193380723 6.442616205683917 11.512202815023391
Ti 4.142339627389726 8.2077071539015 3.5890017382914947
Ti 8.707239088621352 8.653674781750926 4.723620631901934
Ti 6.0149476370389054 7.53698446695767 10.61944636732068
Ti 7.751945749658784 8.893553354824975 7.588162060725472
Ti 3.1867440541448158 9.697641181506327 6.2868743063111845
Ti 8.168138421540933 8.98820658942469 10.412153923047953
Ti 4.780740342439632 10.75573516677224 4.745127514388508
Ti 9.827350847926068 10.21691336886442 6.617657207514052
Ti 10.025132540186977 9.419282525166452 8.960484020995235
Ti 3.3223476054174594 10.508007718915948 8.706638366287963
Ti 5.424499374346981 11.233812653025474 7.299087990511803
Ti 3.5969035774000564 8.701481036610357 10.437609134588842
Ti 5.718393888788602 10.431142312199379 9.946312906788696
Ti 7.475779981396064 10.986504717360678 5.554969041944399
Ti 7.984022121896775 11.260950714081506 8.363018104861599
