53
Energy = -356.8298625 eV
Ti 6.589346006026726 11.322987837974736 4.755072450361938
Ti 5.76473158386683 7.965423299970918 1.9633852017362765
Ti 6.067445088161657 5.301848756728638 9.64120579792439
Ti 4.013486194280317 1.805427519438136 4.540748068500644
Ti 2.7607270474459686 8.242522388113082 6.031328968344831
Ti 8.309588440610057 4.158695287425574 9.708151064314372
Ti 7.966403537060843 6.3799757796762195 11.439576652441605
Ti 6.13392854299565 1.6257857158267224 5.942703272887346
Ti 5.422588879070367 7.175618622505998 11.389373438931937
Ti 4.7305770722281455 9.414862112188528 10.499794665311407
Ti 6.261429687446915 7.984109683790314 8.930314627858719
Ti 9.711068570717055 8.575640428592612 6.5535358217075546
Ti 3.7658563293356053 7.172558803618265 9.25648242089224
Ti 2.2776761709942086 3.5458338108969287 4.999108090879062
Ti 9.68610720236344 6.133870957408415 3.9542527858178933
Ti 8.380530480871771 1.8849413257341672 4.641976077888055
Ti 3.846293034709658 10.775137410411507 5.103876019239643
Ti 7.305155695823947 4.394842901655165 4.539835579251608
Ti 8.275475949313455 11.580411622316845 6.988519135262458
Ti 7.7596835226916925 8.95994672507276 3.9573991477927923
Ti 3.7626312284156005 6.344745487171964 2.006684322376708
Ti 5.9625506007144535 2.738169751039971 8.425771916732694
Ti 3.508940098763258 2.271840986799217 7.0798664310166215
Ti 6.269638563058787 2.2947435371637654 3.222669149375861
Ti 8.408926368198168 2.3825333366622066 7.237838715167551
Ti 7.6620513200831 6.96828841646813 5.754186631302266
Ti 4.010945879225121 4.372940324164235 8.720517255712748
Ti 4.775951444696236 4.100600217437741 5.891489553912243
Ti 5.474912558699731 6.423100706753882 4.062285107787101
Ti 9.082537008557814 9.712998412450261 8.992914992795722
Ti 11.13925885223506 7.761854435667022 8.693928781953185
Ti 4.9137454842421135 6.6372230807470105 6.962732508204581
Ti 10.316499240051622 6.191339244213754 6.462490264263477
Ti 9.91543615092877 3.824419894112148 5.317259452911189
Ti 7.424635601716379 4.808002469094495 7.245796389726741
Ti 8.684267614415734 6.867817554498711 8.677475925603792
Ti 6.2333287624819205 4.883487477828872 1.9419281820614496
Ti 5.296450832230996 8.811554306959627 5.265471652588422
Ti 10.410294948761193 5.722576158844978 10.445021480701593
Ti 5.576745764297687 11.639621277640522 6.983184651724697
Ti 7.948298146597126 6.473166106561078 2.5912167124062
Ti 7.4056744241701695 9.002036397586474 11.167131191602268
Ti 7.289273285396295 9.420187818480292 6.805228566855538
Ti 10.11942585644737 4.450615595664056 8.080184000069773
Ti 2.904309243244639 6.103218836572055 4.624148266763335
Ti 4.154462216409582 4.00325338268518 3.0876917092280713
Ti 5.3836656612602365 10.20987239562188 2.9340959854082413
Ti 2.477215792477034 5.078225100726308 7.092782085121152
Ti 6.662994771011914 10.806470420087255 9.1774623226638
Ti 4.2716796557722505 9.448267259189931 7.786423492769038
Ti 3.3647330828016155 8.571775331633559 3.2998331645391583
Ti 9.854390214042983 8.068900945310276 10.902013044930088
Ti 8.801698311009671 3.7013803632466904 2.7213048228085253
