54
Energy = -359.68766896 eV
Ti 12.162537728158863 8.107372273737203 4.974124263927229
Ti 12.226891395007547 8.7302361785868 7.465196259419213
Ti 12.75529987383896 6.330314831184807 6.65113023407453
Ti 9.948547378877787 8.002452925421736 3.7394541012728677
Ti 11.51126323999484 6.575804462928206 8.903832586374179
Ti 9.892469611779255 9.257405794821642 8.522072617979353
Ti 10.3136787925023 9.829541274885182 5.902271400758636
Ti 11.162218415200375 5.6759636772443125 4.5260233607198925
Ti 9.052177368349065 7.320524496460301 9.809770277168587
Ti 11.067272742848276 4.482665323839151 7.08046861863807
Ti 8.18275339119675 9.901884633792994 4.157398118701843
Ti 10.165562595506364 7.1537169404819405 6.608691348782291
Ti 8.15419216954146 11.228300582432658 7.612810586888123
Ti 9.802567408133644 4.58794301233675 9.542958289377106
Ti 7.592757428031549 10.174245980828156 9.922077157381114
Ti 6.35673169039025 11.011544211343898 5.691502106113251
Ti 7.583543294428224 6.8817460954058305 4.860424327972026
Ti 7.163527959080739 8.116240568169223 11.59447008612679
Ti 8.687299514506895 5.74192541744827 2.7695107281292257
Ti 7.712053619033806 8.069431886607422 2.40343290391159
Ti 6.412146298762308 7.788475089800524 9.008131850273552
Ti 8.09451448111296 5.536854221549881 7.71902169534641
Ti 5.863632805987803 12.028521234556695 8.786072940992394
Ti 7.843018762523009 8.845338259242036 6.813758496230157
Ti 8.859944730186877 4.486338147581858 5.344388474091109
Ti 7.464907168070562 5.544183989525811 10.661865375457085
Ti 9.035775569054506 2.899232097044854 7.534971600293932
Ti 5.141080773189065 9.505340711074037 10.630516113478354
Ti 8.097844166116724 2.0221922194920703 4.956121006519465
Ti 6.780854564552074 4.066344602379423 3.7465373870201053
Ti 5.3126324044462505 10.002288782654686 7.946243429524145
Ti 7.220707272880814 3.30457812856093 9.403847786541718
Ti 5.67029209391819 6.5013836899906785 3.080543716166397
Ti 5.313869198626143 5.336771105617929 8.591876599546294
Ti 5.300028784163456 8.121952409877926 6.315425360349835
Ti 5.731131852403431 9.270711479493755 3.7019482687981258
Ti 3.901935390963404 10.423464777130128 5.444525887425154
Ti 5.222998804588044 5.355333249516909 5.573164138843658
Ti 6.590139165427557 3.316117688669536 6.721893453124624
Ti 4.912867600583092 6.741868697198269 11.090598311185827
Ti 3.6266519574392224 7.729944525549396 9.263229917631978
Ti 5.225268177022971 4.094505299934899 10.963241905644189
Ti 4.8910975611871415 2.6159445540835105 4.889539522559136
Ti 4.368373989128011 4.067689295244587 2.8211937829594493
Ti 4.70703236937369 2.727192092823965 8.810332886484659
Ti 3.508452543225721 7.698482844345329 4.608473016749371
Ti 1.5335559707353033 9.363541613688685 4.3836037984886485
Ti 2.542551375139842 9.077886464812176 6.806566147561776
Ti 3.061437144185688 4.82087291892973 9.543791909174999
Ti 3.1504714398380043 6.446540336457175 7.105050883696281
Ti 3.356626065264243 3.7968799522578145 6.90277665235291
Ti 2.43458678775683 2.9428084933182928 4.217289799370102
Ti 2.648129972510174 5.224340231222716 4.575059134883123
Ti 0.9861512180315636 7.398410700594014 5.628780103188592
