55
Energy = -370.16840186 eV
Ti 6.161288747145896 10.30755290243191 9.7336940733333
Ti 7.9536720106545475 11.257372851097173 8.228713563322883
Ti 8.778982730028071 10.013984875891024 10.67128399325584
Ti 8.654230999097843 7.522079895899028 11.656588762238334
Ti 6.20861467065271 8.557478118297801 11.226090923242541
Ti 10.528236119328723 10.321496987991425 8.346827326772473
Ti 10.613526495269562 8.111442559555517 9.988060705379482
Ti 3.697461986580684 9.531279293382655 10.237596585476172
Ti 5.233976266568645 11.353037232150761 7.708004850247827
Ti 6.90323513140069 11.672091708927192 5.643811749067031
Ti 6.684946764939559 9.284948267328314 6.628814529086997
Ti 9.373444797672564 11.145649723330882 6.192082001463497
Ti 6.700541136941525 6.020662162292875 10.480698576436083
Ti 12.099355446546829 8.356380603260794 7.863340162477963
Ti 7.997387967590707 8.11847440522784 9.132549488837203
Ti 3.4867656578988564 9.263703459577979 7.324539459344843
Ti 2.1931656919991176 7.876796300000629 9.250369756956966
Ti 9.216421075808537 5.6305849196218665 9.977546542742347
Ti 3.8775877004419144 6.8347721634775205 11.083470097295015
Ti 11.336128003921786 9.56941386677828 5.634194747486573
Ti 9.52280935956679 8.213508161407502 6.783209417787942
Ti 4.4588427798157015 10.608316793643688 5.389522022538315
Ti 10.866544539473377 6.064467417558478 8.168118519146217
Ti 8.6062973514934 9.533963028663083 4.37061153330182
Ti 4.9460559653799185 7.580046111689101 8.87902139248714
Ti 4.768109994332712 7.7045880969465355 5.246514782814475
Ti 5.982644358962325 9.697625654329045 3.8279159045869022
Ti 2.675143380751689 8.72131272178422 4.561756833710278
Ti 4.880055413346066 4.598940695002261 9.702905123650888
Ti 2.909036006797398 5.476136858962133 8.817424349966847
Ti 2.4435640135834027 6.847268794962786 6.681335597458955
Ti 7.671686639790595 5.778356564404603 7.790782227648576
Ti 7.629158601780598 6.999599117540428 5.419774852488058
Ti 5.006126640193229 5.664645739144875 7.087465256432674
Ti 11.792532422246623 6.935716988424255 5.84922419055561
Ti 9.977224649420082 7.477386900892351 4.02672100202072
Ti 9.796063209823592 5.3164340277231075 5.605610885269996
Ti 4.401328792203605 3.112524982315253 7.44938732851966
Ti 9.314536796427499 3.7281746259774837 7.44677066367114
Ti 7.015018011277309 3.259862222402767 8.697577733537113
Ti 2.8390466930203146 6.080475414527517 4.114948173759269
Ti 7.0515852360330324 7.389555184734929 3.0879650805759455
Ti 4.469999167999396 6.953546732564231 2.5256115925815488
Ti 5.685714271235315 5.252625842530868 4.260110111520049
Ti 3.2439094818482532 4.186567999187368 5.528925130257314
Ti 6.941283108211713 3.549502354142237 5.995894889392886
Ti 8.42088169074022 4.972285948340403 3.244681280424508
Ti 8.376698637537569 1.4976366277125788 6.975740666825377
Ti 5.893264361690732 1.2344816255014741 7.086328093058174
Ti 9.070106732704764 2.7577990106251224 4.6062427477215895
Ti 6.299222323560915 5.2040897951717096 1.7149714036373838
Ti 4.082007692309489 4.018272013159259 2.760454018934245
Ti 4.740160315569135 2.1407174108814306 4.760592676804841
Ti 6.713102047210686 2.908786932766454 2.9967958928933562
Ti 7.087003504264089 1.0613128989500946 4.806544320647187
