55
Energy = -369.96610205 eV
Ti 3.932095698334166 3.7338080739341915 1.8874880820865991
Ti 7.896362732912129 2.654648966251045 5.013049257182168
Ti 5.40552850356194 2.3815892379688557 6.051927814733114
Ti 4.552310487614932 5.810601222584084 3.6700762093553014
Ti 2.875501012566456 7.751145535584632 2.915717186213632
Ti 5.628342674494724 7.7068048711340715 1.8958545323237994
Ti 3.594310866620392 6.069057588333567 1.1739592274423614
Ti 1.6070062585431908 6.071214513563117 7.635297607172768
Ti 8.437244053009263 5.766728214895848 7.760039058322697
Ti 7.268054686740852 6.681683425816111 3.703556364075718
Ti 9.136429741709081 7.385219703025215 5.394778038525027
Ti 6.702844454968186 3.6992931772756568 8.039098078122935
Ti 1.9833705453896753 5.082141785811495 3.0910159163388093
Ti 3.4095511180844635 3.760537842606498 10.939933147883245
Ti 1.8954711384799425 3.5948718706702127 8.656358960007537
Ti 11.54358853192701 6.7616005487603585 5.081871903791048
Ti 9.088779938689475 10.009268819923724 7.3256396351921875
Ti 10.198145761721381 5.808763560110765 3.0022432007675874
Ti 4.269655017219836 7.116261678697417 6.196888453890705
Ti 2.0216038279019117 8.526893419707115 7.036377565461053
Ti 3.18033430061368 2.8648667124232126 4.234625673679144
Ti 6.690853733251766 9.953739611890297 8.697235966485438
Ti 6.152102030377649 5.162024184055492 1.4697451925943856
Ti 10.948662297669442 4.924780203583281 7.631055886358432
Ti 10.220700650236042 8.334345758038179 3.090340132229929
Ti 10.96471610488354 9.294941210446675 5.451263649273569
Ti 5.714063470182665 8.855935073456717 4.421567582827819
Ti 7.073268662635642 8.278925386154242 6.686743898210841
Ti 4.3149659673738885 5.010394049264072 8.761340439997992
Ti 10.1465625051687 6.15392882330351 9.796380238074873
Ti 9.152160285577143 3.0046425753773627 7.199864510551422
Ti 1.2752258892412942 4.07124818543908 5.806203883977482
Ti 4.652814519350421 6.1493487067721135 11.101367097164054
Ti 3.432994530935785 7.723910235406561 9.088323103676984
Ti 3.764475456749974 4.528582992699996 6.189722940905935
Ti 8.263875648283967 4.197972794709573 2.892902222975175
Ti 1.675729870597412 6.890529186764918 5.036711148678587
Ti 8.384281040896848 6.94920116242427 1.4003620530418026
Ti 10.715501150479236 7.699639624680779 7.666323199606642
Ti 2.8262720653362035 2.1360313748479163 6.748335212951395
Ti 9.083150816551326 3.863784636996114 9.520726450564226
Ti 4.377093462143703 2.3299168887606263 8.887593616525852
Ti 5.9248977954510265 3.7509500515248195 10.598452638604302
Ti 8.614703731200846 10.05413957316376 4.668784611340136
Ti 6.692116276314951 10.842336419053881 6.216606756180906
Ti 3.0960938637485804 9.260429116222152 4.94302686212554
Ti 7.471766933512869 5.833995740948923 10.31472935804512
Ti 4.64363927625953 9.422091438821832 7.157419809095508
Ti 7.689195589908569 9.193598100138267 2.533120488217334
Ti 5.941283877905296 7.179729347750638 8.598607179148937
Ti 5.815052772837669 3.3603271445243217 3.637219350944171
Ti 9.640871135061138 4.6081398027470275 5.191827824123304
Ti 6.618802813934637 5.047070209645337 5.761111229288349
Ti 8.548576996670107 8.198088806758363 9.216216486651039
Ti 2.1407497543130956 5.7920331406948335 10.206725393137079
