55
Energy = -370.41355849 eV
Ti 3.6431232103768756 6.505670570570081 5.693057301644527
Ti 12.855896206844124 8.861461614994196 7.647842629581109
Ti 9.956837612950087 5.576949828134083 9.625992271384998
Ti 6.15122226296861 3.3771764358343432 7.510962627690379
Ti 10.747844047590828 8.647774690318103 9.364992320510742
Ti 6.4603425202715465 6.108774029157638 12.078893450417295
Ti 8.472750701150982 7.839394182721984 5.313358433304011
Ti 7.581570898519535 10.373499570180346 11.814586041480807
Ti 10.278698639030925 4.611110512201339 6.993997815075839
Ti 5.802219737694966 7.355868275087883 6.985451725089801
Ti 5.821632178881966 7.174193183537988 4.232374061273416
Ti 6.952119936608722 5.81133185287657 9.284355129975507
Ti 3.558021021723276 9.151495640253719 10.264194161482033
Ti 3.367770518353545 7.812534141463266 8.005755280186104
Ti 4.3314824911946275 6.563396896891361 10.3824191771064
Ti 7.916776056790364 11.93507843908353 5.50458099892342
Ti 5.274846074086842 11.479939546842198 5.526298331198699
Ti 11.843240549622685 9.899311357047889 5.330957183817666
Ti 6.338357521540907 12.247336106719535 7.891180076131605
Ti 8.435236195135317 3.5463713634155725 8.506269473570995
Ti 9.799291164801804 9.725028483751993 6.885119854302064
Ti 8.290209019370547 4.323543613554856 11.179122885456893
Ti 5.84165370346771 3.961449677155724 10.177616776003898
Ti 7.920942739987487 10.188837413689324 9.027836415346396
Ti 12.262039595073654 6.47293478654499 8.77442397810941
Ti 11.056752774622145 7.165388717381944 6.500067066074163
Ti 5.436004114805115 11.053651196915853 10.451704948916454
Ti 8.370514278604814 7.813714692234741 10.698803830882364
Ti 8.675196187048977 7.396013346318563 7.968448096007664
Ti 9.241662260805569 6.253205164796311 12.549071597684557
Ti 5.459432471945344 8.669773202691847 12.079502511110556
Ti 5.920944315544537 8.510729196801389 9.483162390168381
Ti 13.503822437604962 8.214349847320834 10.094612689947233
Ti 11.596546882027367 11.181998241610424 8.086628587177977
Ti 10.5305219380096 11.979742564564882 5.690767172526615
Ti 10.094988759301431 9.084053581425174 12.21833047433485
Ti 10.006153689108073 11.140695975031717 10.357475942797702
Ti 9.04716413413111 12.414995901621964 7.901931236204641
Ti 6.6357281979666505 9.734385873739955 3.9500964144932826
Ti 7.677468485123133 5.44318366283126 6.49377923373455
Ti 7.714099900255513 12.513284874457709 10.211353969263564
Ti 7.431726354682968 5.185980884138695 3.7159485989955106
Ti 4.3615002617865954 5.199785537808716 7.916909301882467
Ti 11.570342077395578 6.992624738457617 11.345030523383995
Ti 9.827633796450106 5.480191414626275 4.506394067580215
Ti 9.382948472627877 10.17807017107933 4.006439447011594
Ti 7.764529990168082 8.147649019639182 13.268153794311614
Ti 8.461873667179436 7.5002524365797605 2.9280499720707476
Ti 6.8481516690895825 9.765465434222412 6.543287235909569
Ti 12.379166052013574 10.188604245936581 10.73083097759051
Ti 10.850040313488202 7.944327648415727 3.972446769751372
Ti 4.482794152549088 10.288236682369128 7.923711242158292
Ti 5.362296747995355 4.676554517086265 5.335361201714675
Ti 8.262284543196651 3.3417218564192557 5.642051938792103
Ti 4.220355471121344 9.067676162134648 5.504779369145584
