54
Energy = -363.75523957 eV
Ti 9.008067473134407 4.90015000357893 10.319524082723419
Ti 5.128293593896956 4.3582871368976495 10.963852795051968
Ti 6.779907963952244 3.9300080912647943 8.87983442760659
Ti 6.898918778436285 6.513225514575143 10.441191418353833
Ti 9.306071122846987 3.3776975125416766 8.09241422486357
Ti 6.9073548358325185 1.794955581923982 7.0527318065998905
Ti 9.41053663715826 7.5626082253275015 10.14110797236098
Ti 4.22938683923119 6.732427692823366 11.36037523988586
Ti 10.953389336271988 5.68919877767628 8.503243262365546
Ti 7.355423927760968 9.115708413178563 10.908512415498963
Ti 5.197026791061991 4.102996447835234 6.578790070560527
Ti 9.37096262298392 2.1032246583610417 5.668888986996199
Ti 8.41010778255028 5.929995280229847 7.961143342225344
Ti 11.048049971864982 8.396379644773088 8.524325557105447
Ti 2.6795896921089404 4.970981369837775 10.076636355342112
Ti 10.186816245108947 4.852541560634799 5.93049095957894
Ti 4.888987233525014 8.78066402252517 9.688530935395328
Ti 4.8141559928414495 5.986162727453908 8.873773585619775
Ti 6.246985190441974 6.661021843680229 6.6257714819655025
Ti 7.099503895107281 8.564853200355705 8.355875746236073
Ti 9.201702889475763 10.206075550026645 9.060287413041502
Ti 7.139247923383621 1.8613811460023681 4.353708495701673
Ti 4.707121169392214 2.12188416713547 4.663436313293688
Ti 4.101281943264081 3.285045024197461 8.674890736893966
Ti 11.365096578560427 7.341478602095698 6.330117034233556
Ti 8.589255739106022 3.7048765791169114 3.4424223652396284
Ti 6.641373915441772 10.954553315404093 9.239302824813285
Ti 2.5623346745976323 7.454661658640565 9.37557668423094
Ti 2.723651473856226 3.4237400593760996 5.762907838463392
Ti 7.774814379910595 4.017135521755028 6.020323754192863
Ti 10.587180844568293 9.981729801660313 6.38882714889634
Ti 2.6223160283476687 5.561725926391572 7.31159485905936
Ti 5.106761381681927 10.339067516185137 7.149945142352566
Ti 6.65583366199883 8.839319198952113 5.186901587988933
Ti 6.024879700972599 4.592164146481622 3.9570425220711702
Ti 7.880354496313824 11.040935379231943 6.865366017871679
Ti 5.850307748631853 2.97536496018717 2.1423943792082083
Ti 8.093547575099866 6.32785628671436 4.536668862982367
Ti 3.9774621357211837 8.102949228700139 7.123990185865357
Ti 4.0715649910259435 6.245108994622879 5.064935274167887
Ti 10.155436501789625 8.285130202254987 4.253656347531096
Ti 8.877323734473961 8.252270373025127 6.636139980988981
Ti 3.3080332705686475 3.9494487538553313 3.219739319969014
Ti 1.5279423035955222 5.3824342275315145 4.69131527861903
Ti 6.012810674167384 11.3813225832878 4.9921392253396615
Ti 7.274803167259421 5.500984672323345 1.8478091150646518
Ti 1.916129722381753 7.672947492073424 5.591508205666982
Ti 8.579864831236279 10.581219205484931 4.326209078914685
Ti 5.7673396117964675 7.39790990919936 2.9401063596934627
Ti 4.094323019295282 9.118849872831905 4.560087126460883
Ti 4.715659741632848 5.38536834771052 1.6664221101923897
Ti 8.142555579755259 8.444191834236607 2.796017558530651
Ti 2.8396847954234943 6.88988666573666 2.9770340784442335
Ti 6.189494809863585 10.054922032803653 2.9011890483876375
