5
Energy = -24.30921036 eV
Ti 5.288001456096315 5.362485366490212 5.784265361477742
Ti 7.499400647837283 8.080592756724949 8.597293136969222
Ti 6.870390129333571 5.974791458596752 4.831718014538707
Ti 5.878555939645497 6.722213899600873 7.764918418301906
Ti 7.930092154177648 7.32635684567765 6.488245395802728
