52
Energy = -349.54209119 eV
Ti 7.787407226726303 4.651044815108308 11.187718953152848
Ti 8.213519852749 2.757800465449136 9.379809601895781
Ti 5.764863612182363 3.2074427544008772 10.46562125028631
Ti 9.603668865800124 5.108245584281482 9.088574440349339
Ti 10.848212526365058 3.6904006768906 6.910606509548279
Ti 5.518897361297615 6.135162520269381 10.672010493629015
Ti 7.853440730420878 7.310008432593158 10.350023922373596
Ti 5.886217543912775 2.098430246874689 7.930799266265197
Ti 11.840079394986548 6.015762929644825 7.57865364573019
Ti 6.883736765494431 4.836461966553933 8.752514801507928
Ti 8.121412525823393 3.6347147222615304 6.837349893192937
Ti 9.873855047840152 7.819481512476372 8.443324596059117
Ti 3.8205103289067717 4.7328506769927845 9.531006418833924
Ti 3.111578890490413 2.7145433358498576 8.043146953579852
Ti 5.541808843811781 8.845144291799668 9.941978753723717
Ti 9.558669959183117 3.683379780855455 4.575864801842236
Ti 4.134426804761206 2.08300798575144 5.83507627393346
Ti 11.748650545745468 5.366281344001994 4.88098103075117
Ti 6.5413769278751115 2.7711016541955877 5.20335216359601
Ti 7.335193242945314 7.118945792937948 7.672366739224961
Ti 4.626808167724597 7.078111124273407 8.060821614274895
Ti 9.543999087856209 5.945812598729759 6.655044985559504
Ti 11.257065029744322 7.9741351146253825 5.632968894748085
Ti 3.1200522207426125 7.532043481595594 9.940894249988924
Ti 4.899281080177889 4.378381965943077 6.900969270151091
Ti 7.732257105952296 9.594837892266781 8.643961119765207
Ti 2.456672588104536 4.146590741894735 5.603800873941078
Ti 9.238810236210727 6.615190729981872 4.364348900503868
Ti 10.215585997202185 4.998332661480128 2.5564956339525287
Ti 8.605802281022195 8.95933343943855 6.093599067367795
Ti 6.6580190596978355 5.647335839522629 5.369090125637593
Ti 5.562781784435721 11.028555399652335 8.452923905303354
Ti 11.334874831533472 7.286865629891281 2.986088765092837
Ti 5.745161817259037 9.129040834542064 6.436959006745064
Ti 7.509975154750607 4.972520245261683 3.0332956329927874
Ti 7.2663502928446695 11.410874708628315 6.654959111451174
Ti 2.292013932689048 5.498613604275264 7.762534012143187
Ti 4.711365037958228 4.206998431479698 4.071394672501169
Ti 3.412085828653182 9.820098958028186 8.187025003211685
Ti 9.590711749289822 9.129301452151656 3.6458582100758785
Ti 4.031176853702119 6.796058425268049 5.397416431321981
Ti 6.9775379006291285 8.016713904222206 3.9663949159266987
Ti 1.865378700310966 7.951909445659762 7.626129661265933
Ti 8.835487662343482 7.228641656062414 1.9436423304985788
Ti 2.6781305181871726 5.605566846759142 3.381831300072186
Ti 6.877863050402488 10.525912611126556 4.425296892850481
Ti 4.620758519482222 11.35240702411094 5.92943130908573
Ti 5.056211118077985 6.744957096247309 2.8445835215495103
Ti 1.3551075884444146 6.853167658878105 5.357336479203645
Ti 4.624229240016596 9.550541748453403 3.7782922601391364
Ti 2.636596209744476 9.39550418867367 5.621710090574474
Ti 2.68248669611454 8.053597390310438 3.402285581251
