51
Energy = -342.78041177 eV
Ti 4.070470308003166 9.79274923731291 9.757695673816142
Ti 6.081585729139211 8.287303493913434 10.132948156501556
Ti 8.642721524718853 9.50503093602353 9.191468828984503
Ti 8.760919479041592 6.587085220443436 10.191742001000948
Ti 8.452447787168179 11.479506115640415 7.349974201233312
Ti 6.117095858704022 10.137887998440629 7.990357444774941
Ti 3.4442601804285036 7.050648980845493 10.111068600529993
Ti 10.384101078029444 9.815549638532673 7.329475517047143
Ti 1.9983084443599712 8.800843326228412 8.686677904760156
Ti 8.10792947753508 4.094987924939306 10.530972570110137
Ti 5.9898054924062425 5.705996764433788 9.953044056792455
Ti 3.51963137847114 10.47647172744161 7.277421987382042
Ti 10.415522340725907 4.527796230678855 9.060642255978449
Ti 10.127040733848041 7.291452242186976 8.048017757556135
Ti 7.365868240276564 7.489679530357815 8.058383650365947
Ti 4.412160189670904 7.993415839563765 7.862398336761818
Ti 6.59555993312062 11.296970614245943 5.536724527272649
Ti 9.345437461959191 10.753151135569619 4.8687785158660395
Ti 8.019479288646389 9.13259392232557 6.15860963959666
Ti 8.751110444353985 2.4613622971004556 8.869119798147901
Ti 1.8946083709071218 6.363761948486916 7.821941195057175
Ti 1.94629079091654 8.504679921704257 6.139270812209268
Ti 3.579592408821291 4.611645161576172 8.97670990330931
Ti 8.189914199409158 4.985004755429648 8.019223339585324
Ti 10.875513228285069 8.344825695627566 5.335935759096698
Ti 2.6878506059767777 8.185780537319976 3.795168782741857
Ti 8.867891401069324 6.442025604827183 5.687680678361145
Ti 4.863566502563251 9.047803713446713 5.375979241728655
Ti 5.415263438168293 5.528348385597445 7.305714798612107
Ti 9.041336640308085 8.406001378851629 3.436086696187499
Ti 6.901574894476812 9.602503377647071 3.7074243624411967
Ti 11.087716835001444 5.35304943697478 6.186587231625049
Ti 3.7285211556065287 6.277438474353723 5.379550867657523
Ti 6.0781079983842785 3.301275937446701 8.758964114302735
Ti 6.591216054225568 7.017467263829681 5.065790240581286
Ti 7.294223439985483 4.051192410491431 5.4537082666097385
Ti 2.2957461483187336 4.131312733174302 6.717644200930566
Ti 4.736302436089167 3.167833338182553 6.28005054789537
Ti 10.512196399725553 6.382926482929374 3.6248557520034477
Ti 9.842977190081953 2.9972002856219553 6.633758074819811
Ti 1.2305108507002696 6.0034316883565335 5.005241587900455
Ti 5.094118803238127 7.32151345558882 3.1054337665500777
Ti 7.94580719157786 5.7691880701496965 3.023111248401341
Ti 2.94159401808297 5.796917253052821 2.8615329825173657
Ti 7.183553766762671 1.7201067767094218 6.820825241815996
Ti 5.337180434567417 4.661064818746728 3.7278150838838893
Ti 5.948251893811491 2.035309059285145 4.344369839575396
Ti 9.874337854439105 3.9646921363218866 4.128543898855177
Ti 2.81218882866429 3.8299043238429116 4.362504875510903
Ti 7.59139765531282 3.279995084363296 2.819060807000256
Ti 8.532561689956694 1.7586858098806668 4.6573628737959165
