53
Energy = -356.46487393 eV
Ti 3.0241743979497344 6.705467613140446 1.5315102959774907
Ti 5.114680853342128 6.924035071322009 2.9514697967976735
Ti 5.434324564392318 1.571483524631323 7.508266394326955
Ti 5.225300152969142 8.471595588112198 5.725752942294353
Ti 4.465818898175814 3.025073327945543 5.517206292282528
Ti 6.958842042458023 10.772033207311209 5.262259710993308
Ti 5.852586807194111 9.7578200889448 3.28585422201972
Ti 3.3806555983095534 2.6231439689923235 8.695957973808238
Ti 6.553438140464228 6.234537878811259 10.841048630071745
Ti 7.499426439401178 4.143956233897014 8.970597115200729
Ti 4.485567700559299 8.882054875630402 1.1358906596240674
Ti 2.6089556009889465 4.470236567442231 6.446313536182631
Ti 7.500873963260569 7.339322165792794 4.193549447123315
Ti 8.75682440515781 9.87611979159156 8.861333050656285
Ti 5.798869194970135 2.0301078834295714 10.02219277601869
Ti 6.440797379806395 8.933790002645836 9.81798324725912
Ti 7.449570409370082 5.747781424325824 1.669855023254906
Ti 6.997440578605879 2.777637192846942 5.935075892087994
Ti 9.193682922642022 3.5696490387051414 6.677656698013635
Ti 5.984842020960355 6.971405944177583 8.176358292823636
Ti 4.998228441463264 4.4089200751561375 7.898386919421437
Ti 4.2548888889225145 10.800331913248414 5.595457231614185
Ti 8.529570771586318 7.345223398659189 9.490589182882722
Ti 8.077387837619284 8.261143784720211 6.759336438758184
Ti 3.1268832011940875 6.9460622329128 7.468706191000463
Ti 3.3796854313436095 8.931535781156372 3.5903055436100018
Ti 7.93389592675957 1.5646205203345276 8.26738888613046
Ti 9.959340418369454 6.2238282012443715 5.455912514717348
Ti 2.397651173168645 6.788283803713805 4.522030993806647
Ti 7.3687653598295055 5.513070051393192 6.320214016904137
Ti 4.72399339600321 5.779242605966394 5.5307626551527
Ti 9.15358512636665 4.8355924753746455 10.917692894050859
Ti 8.394134370866436 2.262821824835415 10.771954110962918
Ti 10.477152974334572 8.321309441134739 7.659618627661491
Ti 9.700897082396903 5.617958781832802 8.113797156728747
Ti 7.219591668433627 8.328592806984462 1.5356541984418652
Ti 4.532477108079612 4.350090539001154 10.654992609093586
Ti 10.029606620934942 3.1576713759626456 9.090137625013737
Ti 6.838971285741152 3.865087500689845 11.706048936273985
Ti 6.208785801330643 4.2775943923892115 3.643903247872922
Ti 4.080425017968982 6.952198462459205 10.016813991019065
Ti 2.4946582040566487 8.986986804775539 6.061259427645142
Ti 9.387671955649118 10.473945628271665 6.3729945951278015
Ti 6.427064116159636 10.453924417941872 7.56319509440454
Ti 2.5436376789986186 5.024540787888751 9.060609836610356
Ti 4.201569574711512 9.225667061262175 8.149538107446483
Ti 9.592923186354705 7.266425824790311 2.8114679993345386
Ti 8.633107939955588 4.837579502749592 3.9027277002466807
Ti 10.466034139742879 8.564190963799803 5.006489120162974
Ti 8.673420679632155 9.787785388451582 3.65443665563649
Ti 5.431478852863412 6.7643241986673335 0.26663572067295804
Ti 4.846095922134151 4.652668470641818 1.4794882679454644
Ti 3.2902367562597976 4.704018572103325 3.5358104870407927
