52
Energy = -349.45989856 eV
Ti 3.9756911709786236 5.596527975407227 10.549228472167824
Ti 7.118816824892367 5.918679594411737 10.566662805676264
Ti 5.3445761835300205 7.941135160144887 11.074534926408889
Ti 1.7273261216123201 5.932531675263872 9.38210748772657
Ti 8.377730305881723 3.554321898101652 10.465349538860375
Ti 5.773521193269956 3.763153336064638 9.263610800568891
Ti 3.096735586372468 8.192206103017169 9.781890968326922
Ti 3.2159749316345536 4.128410353346165 8.19981144232881
Ti 7.453863069753552 8.541333307428964 9.701594517803498
Ti 9.636955016020332 5.850212968466666 9.787807377596657
Ti 5.384701945446165 6.6590161256925064 8.758899696458123
Ti 1.0304949111685886 7.971747293332241 8.084602140482215
Ti 0.9627994714272026 5.504086549023308 6.8715997906402055
Ti 7.979641282620709 1.954216805209974 8.56510662382786
Ti 5.272618773974011 9.798886105828174 9.122271076903036
Ti 7.8484812606214245 4.56663687707781 8.169123915035279
Ti 10.272275666766129 3.37864082916608 8.50989953654788
Ti 6.511280789413977 2.6107660173368643 6.46776867369299
Ti 3.1494145934796816 6.670264162787391 7.143934816996366
Ti 5.4922757624066705 4.9726566521585385 6.675695222817706
Ti 3.186715016087163 9.484419560370814 7.3550014230825
Ti 3.2556308239225475 4.2732470777148714 5.499371739390739
Ti 10.265650410065954 8.637127780619778 8.058455115098958
Ti 8.062414843908444 7.112169866415221 7.845581058814528
Ti 1.3958888949725106 8.091240918578514 5.55410230853751
Ti 9.308722494934115 2.08522398365983 6.269136935156869
Ti 10.506071250037987 6.0352556041447105 7.379001031163546
Ti 11.389074842712292 4.027489677916821 6.065339625528932
Ti 8.756908058975638 4.583926830221214 5.689832580878847
Ti 1.7502488402806498 5.817237191916622 4.320219231188176
Ti 7.810199164490226 2.7124858433684835 4.073291825439687
Ti 5.718368334608469 8.386226349702453 6.856641438140397
Ti 5.815153660064573 4.471639474725578 4.031258497425198
Ti 4.371609607137283 6.838273246942897 4.720528669011537
Ti 10.283282001741988 3.313607399939838 3.9808205818558307
Ti 11.8585115212601 7.85363865872616 5.990108342237155
Ti 2.3919978545328764 7.899680034942651 3.1202437205639306
Ti 7.996685038547489 9.884461094247019 7.055232538141029
Ti 7.096153310693732 6.572021576553919 5.067368256313094
Ti 9.242326068590893 8.031923364360656 5.502459094994864
Ti 3.741443670159172 9.578965508076037 4.796928432033655
Ti 10.623212654231022 6.0461055504670265 4.307402837807592
Ti 5.546731041994899 10.89328132106875 6.4433308987455336
Ti 10.644507709158175 10.21214863830913 5.9702900515017685
Ti 8.44788261983979 5.193002962007845 3.0170179406974444
Ti 3.746509956392271 5.816089962994791 2.4317136993602615
Ti 6.519201507146202 9.144018493927984 4.509260642746039
Ti 4.791428540213501 8.422484874614605 2.5479945081373883
Ti 10.93705869341728 8.840635706836652 3.720897876018175
Ti 6.322691158652809 6.466978972168171 2.363273936817207
Ti 8.80647864362167 10.352896527968042 4.245658160014655
Ti 8.487757319750923 8.11835657064035 2.772427585703716
