50
Energy = -335.51094169 eV
Ti 5.145507397909427 9.228166602808068 3.1493355370237883
Ti 4.475398999718141 10.780211335459642 5.071571122050693
Ti 3.8535213802172326 6.022589015392223 2.8332411772213786
Ti 6.995191184724928 11.148514931308616 4.211350352725957
Ti 3.90675174642716 8.038265137004037 5.036796301468554
Ti 6.33504590611881 6.412969253777578 1.6627644910643167
Ti 7.410508078252664 9.035432633934937 2.6061217630804907
Ti 3.5255326487302288 3.299614314668073 3.4213924853851836
Ti 4.878654522721887 4.237135385230539 1.2175879504026224
Ti 6.246132891730768 6.914157773166999 4.086255905825756
Ti 3.5969868943590075 5.338463270596983 5.294073333711528
Ti 6.223593658027581 11.347306990514575 6.855886080641793
Ti 4.391118471128639 9.628481947702058 7.531046557988333
Ti 6.596104251893409 8.984198219713337 5.6158070505348485
Ti 2.907874119421564 7.489997362703563 7.768406662063864
Ti 8.873314434362959 7.1267297017916205 2.8472388004865317
Ti 5.8310395522686145 4.289867954829907 3.7552910603670835
Ti 5.684493200111571 2.085771992960727 2.2857851863540595
Ti 8.598137767921356 10.802086097137096 6.352035250780093
Ti 8.67989706770119 4.939528670266146 3.7606132489371107
Ti 9.295734924680948 9.218572971533314 4.429643584535613
Ti 5.414087013711539 6.5166067770766505 6.702464135380479
Ti 3.1588843003119145 9.172365184674124 9.914130978636338
Ti 5.628499966122409 1.8668048173972713 4.909238621439757
Ti 7.478925429171595 3.9020078152716464 1.5759656704233609
Ti 4.623169876619022 3.3250619989281334 6.689460214290492
Ti 7.445549240577371 9.344167774922578 8.30053825882802
Ti 7.24407891882926 4.047276245966478 5.9548342728192685
Ti 5.421417661739144 10.190601486578261 9.991666479963996
Ti 8.372902207854853 6.604925087338877 5.844252612184563
Ti 3.4837899496439104 5.146791964826159 8.488635799387
Ti 2.9228076610716216 6.777723462021015 10.464831509851239
Ti 7.982804947498955 6.578724258503223 8.503990261151031
Ti 10.735692617498733 6.880541893461477 5.019003291378436
Ti 5.2680161095057665 7.553914104574614 9.261716496919105
Ti 7.863110283889781 2.43505966184531 3.8222492048078003
Ti 6.180529172095797 4.716041505482968 8.395941130879661
Ti 9.828033141951783 8.54391777551409 7.04403571600307
Ti 9.9916819906782 4.352853961383174 5.8500513683598285
Ti 4.811514064032688 2.9058774909715095 9.457983134334281
Ti 6.878612679896901 2.2526143306033317 7.844850575770858
Ti 7.297834810997651 8.923058231662546 10.910811920912836
Ti 10.589003465649046 6.1507980762093695 7.772093151481427
Ti 9.495178695986773 7.898781745126697 9.937627380180123
Ti 4.87789913004454 8.086764225161671 11.750161833494127
Ti 5.0720295100781 5.260932310458129 10.830061227387235
Ti 9.092938967326571 3.861626561627512 8.203408522227646
Ti 9.606653433450587 5.30002274892794 10.202756709758246
Ti 7.4193249714478045 6.418663949837225 11.239356726175307
Ti 7.40710196203085 3.6600242692885807 10.368250171065617
