50
Energy = -335.7119672 eV
Ti 3.1871003177255535 11.06215572250223 7.216152161220467
Ti 1.830638914171226 8.812308118303598 7.473008696171821
Ti 5.664917499706216 12.240415534393662 6.869845917047758
Ti 3.4749525229290725 9.34628399156669 9.466139919856456
Ti 5.358389318167104 11.059747925128507 9.000025005717125
Ti 4.480418583458629 11.32642621250402 4.7918527930364725
Ti 3.0075150835726143 9.13642561056211 5.039621999678308
Ti 2.2461997503931936 6.858992284001699 9.149548206988785
Ti 2.1570974589843814 6.271354659836543 6.462357395562056
Ti 5.261707373419483 9.630875213130377 6.647501645932087
Ti 7.622814243469629 10.511921265414154 7.697081187657558
Ti 4.16706028728094 7.495426717668266 7.6916966081299725
Ti 5.53382390901905 9.023729133218456 3.884933974293898
Ti 6.417367098700811 8.700924371534693 9.263742560231748
Ti 7.158723694173124 10.70889300191753 5.128814798166794
Ti 4.946339711885696 6.763079141814524 10.07773930568831
Ti 4.50683243128622 6.918015842305733 5.163400644417823
Ti 8.80397878693425 8.24166463589982 3.73378728779063
Ti 4.006965662154734 4.83332614603971 8.4628356496426
Ti 9.1834900054125 7.968156577015905 8.31998066651642
Ti 7.33860505484533 8.171503222368544 6.148621775902379
Ti 9.85369731729072 8.961426104541705 5.950334557356842
Ti 4.1275248737345125 6.925935228032024 2.7281118461631086
Ti 6.446764132206514 6.137917732315096 7.855625594459809
Ti 2.52526068002055 4.972338494552123 4.169143367448965
Ti 4.529852586627996 4.4627361382202855 5.985580842510598
Ti 2.0785457602276285 3.6445510846176976 6.522548687205205
Ti 6.581778052801685 3.2276978964321024 7.421808876746486
Ti 8.219851352400164 6.484892010013181 10.0908804415759
Ti 6.721323191728581 6.262663348862758 1.5864271350954284
Ti 6.742767770701514 6.481161918742638 3.8704374061256916
Ti 9.233394186415776 6.365545434866206 5.798803054164585
Ti 6.759822400155991 4.349313930857339 9.906265782733165
Ti 11.308295592262004 6.684438616462992 4.526203055764322
Ti 11.478009880435572 7.277280394244391 7.113954314981525
Ti 7.2949985266626465 4.491640864910377 5.392810450122825
Ti 8.80454526015066 4.792674261085652 8.022616879724204
Ti 4.9888315105250065 4.395746967560718 3.177028462217906
Ti 4.097566785829989 2.148508280158629 7.064335565055867
Ti 3.3978107503920003 2.5655953631119464 4.525722098951003
Ti 9.296254341853396 5.970803371519306 2.842914179645638
Ti 10.947537890876237 5.812594936494468 9.140821273858696
Ti 9.392487314295943 4.150250434693625 10.545855424439898
Ti 7.670422593770615 3.978812663320454 2.9010085844994427
Ti 8.448701877512192 2.271550315495052 8.995769714575117
Ti 5.933728578292693 2.272559485691302 4.966443689902724
Ti 10.107542682279641 4.155803472498581 4.38263290407169
Ti 11.45561948976194 4.689512722284328 6.609248476468485
Ti 9.20915208489924 2.66163523471894 6.437336057466827
Ti 10.828858613457298 3.158671751827286 8.6165268622769
