52
Energy = -349.56165342 eV
Ti 9.30360386039242 10.223554761384074 4.0344015324866
Ti 7.10373122233309 11.849407384992173 4.7402326850877206
Ti 7.451812039780633 10.71389976071234 2.293382965318217
Ti 10.308313259539753 7.731130909244313 3.5362606410216237
Ti 8.545985947702354 8.157641652364802 5.853571953463378
Ti 6.15534791055849 10.476711346845168 7.206581278689852
Ti 8.244820942299663 8.17507501131156 2.264210120122263
Ti 8.970589628618246 10.512747461131843 6.706481608785626
Ti 5.120114684756942 11.100251615954416 2.914458195852888
Ti 4.565394548286025 11.242252112536328 5.277071686975105
Ti 10.266632574228225 8.05788934742793 7.826829573050162
Ti 5.933700078296923 7.635633646528505 6.741629325732849
Ti 3.841542201760735 6.785922537478581 1.8828939060088203
Ti 3.7066859112818755 8.888018449416174 3.8860313041285575
Ti 4.736358109887686 8.538384889729858 8.863710871921935
Ti 8.630508902210734 4.042443710517387 5.750577358156371
Ti 6.44286054886939 5.9003141023692 1.7056757009537713
Ti 9.260920266443502 5.25457987256645 2.7560581948548655
Ti 8.434564803563758 6.065509478647731 7.634551188846452
Ti 3.749810599467189 9.308354006599266 6.542365184976843
Ti 2.6251235633399244 6.006631107342412 4.068386776702974
Ti 3.0609239377460327 3.4421212688008445 9.676207577797177
Ti 5.693591459254725 8.596865313697666 1.9680910750607583
Ti 4.505925085991146 7.364151434705415 11.29987566318696
Ti 4.714199324604715 4.767444073785011 11.211866384822441
Ti 4.433148589731177 4.4738963913185295 2.83181130247005
Ti 6.72402029314941 8.625392979969096 10.87051712600851
Ti 2.993726839043348 6.156062773228675 9.45834687322921
Ti 7.75321811012872 8.570444894208977 8.500800486077164
Ti 2.2821771099623356 4.357156592730961 7.405401064578757
Ti 6.43327929042679 9.399046706331191 4.476230729190711
Ti 6.749216120171312 6.3893113076140065 12.110312636488715
Ti 3.9469353666758393 3.9970864217616424 5.399944952799997
Ti 6.257696760314905 6.440697448724733 9.458143324325125
Ti 5.244184107098423 6.736939586651109 4.067973851000879
Ti 3.499448535358504 6.576569920153384 6.5805103493389305
Ti 4.733719180791025 4.736698431371305 8.11815060947597
Ti 6.245883053922289 5.043873596272359 5.954529990433823
Ti 8.759291371947052 6.665010083711661 10.312123485987582
Ti 4.234986482743961 2.1884216732479316 7.601840775854197
Ti 7.940354485498086 6.3423718011690795 4.299590972998933
Ti 7.153261067280684 3.5717772279432682 8.17410684682232
Ti 6.4188002614786255 2.316684399639056 5.868853601847213
Ti 11.005883442474987 9.01389522336782 5.597389400365053
Ti 6.913884150415136 4.000764555384723 3.5708577998593025
Ti 7.636891720422743 4.254580417204823 10.816814523781778
Ti 9.652016329099022 4.013093133868732 8.84217412717426
Ti 5.499675416334283 2.400824024448151 10.093710507635183
Ti 8.800184130453347 1.7785073001387723 7.258806458759259
Ti 10.528389965899185 6.289193201875523 5.721509058059404
Ti 6.533453598327353 0.9351746484190885 8.157474944272943
Ti 8.263415581982812 1.8997927755021664 9.820874219507418
