54
Energy = -360.59439341 eV
Ti 7.693008643943291 4.276290396500582 10.771041803829103
Ti 5.540831482531048 6.107781497666558 10.96476007573562
Ti 9.501168763020281 2.677097620037927 9.534014277146516
Ti 7.0933085703895005 2.279337475406631 9.105317362706831
Ti 10.357721003837982 5.092234221730658 10.082428634925565
Ti 5.255162774959377 3.405740432618949 10.671322968676053
Ti 8.331100551521805 6.7440049499787955 9.84511330708353
Ti 6.0615041973081984 7.525863916201991 8.596044777686775
Ti 10.304017334718324 8.185891887087445 10.169933835391936
Ti 8.8492033097184 2.172474418230624 6.8486217399178715
Ti 3.382147129380906 4.829454607165453 9.85509770507663
Ti 8.625857715237183 4.728565026157427 7.990699644827873
Ti 11.09183103916226 3.8343516500883763 7.89517775757308
Ti 6.097729925135488 1.343615070011821 7.005509095385215
Ti 10.642136743708518 6.581228634737768 7.97142068859825
Ti 4.186893847392869 2.9158075595031474 8.109720191458754
Ti 7.65905046031885 9.305311441389826 9.817946184389456
Ti 5.893773396536837 4.885027727985657 8.564641792233859
Ti 4.761526826289849 9.782955236368705 8.786405738849966
Ti 6.7208551831244705 1.5688123038362238 4.6532255668326306
Ti 6.875253157898965 3.7509579401779196 6.007667177062533
Ti 4.392398972605655 2.7705769556951543 5.453553892592483
Ti 7.606966107260578 6.954166436142569 6.556984836243852
Ti 10.04508462995174 4.529731099409634 5.651851255131658
Ti 9.147437200840711 8.657520661130947 7.827443060171081
Ti 3.5223426331474776 5.5196571187491275 7.405802091268794
Ti 3.4290552821511193 7.511584756914447 9.401970406956842
Ti 2.031538030241351 4.065385373232591 6.0180435085833635
Ti 2.269947572876278 9.671380621934675 8.14778782807661
Ti 8.614998381767043 3.147147011365404 3.8820542207045765
Ti 10.099409567380222 7.12024131233662 5.118206162107175
Ti 4.0973704204388905 8.122873737286085 6.7345960864081595
Ti 4.931948143185094 5.6256745649799305 5.2805226048104865
Ti 10.280267148779995 5.232834806310455 3.142719643902977
Ti 7.928870552803489 5.71690209995734 4.291171820140477
Ti 1.5725417298136408 7.229132785490903 7.476920075173715
Ti 6.652574547942374 9.539369564240324 6.970534485721488
Ti 5.906614372833781 4.138717737181729 3.3404293082681797
Ti 8.563843384861292 8.970199737047867 4.806253896520071
Ti 2.2428965819622 6.594991267736314 4.876742799596426
Ti 3.975725913292426 10.767062824889798 6.305196821677355
Ti 6.173534758377453 7.8880422892862 4.205859921109599
Ti 3.155202311165875 4.273875598017134 3.7290468618454957
Ti 8.143561665516073 4.865835065770408 1.7750069923347127
Ti 1.7752362064395995 9.28228076111278 5.73652264854577
Ti 9.042951349401502 7.340354346320647 2.4126454659955305
Ti 3.604000577687824 8.971731031935892 4.135100374203309
Ti 4.040508290498732 6.451854315150423 2.8224241655980027
Ti 6.505152663249338 6.753379420730984 1.759818517985339
Ti 5.911715236025242 10.521109685020402 4.396109986911848
Ti 3.763257558229713 11.50842264388305 3.303065038734753
Ti 4.900972900855869 9.406378819031303 2.0915318514112364
Ti 7.374895809026916 9.40381924471806 2.349644565485481
Ti 5.922521484025407 11.807151879750176 2.1647431495009766
