52
Energy = -348.21288572 eV
Ti 4.203369715536166 8.785987741621357 3.402677839283976
Ti 6.551189065520388 8.186350250940253 2.4970559472136875
Ti 8.591213789952711 7.185068240105673 1.351839122989014
Ti 4.487187154810679 6.29690294000746 2.892699146698612
Ti 2.9491991250129614 7.099833828182371 5.053070872601894
Ti 6.789659530485698 5.401636273214023 2.133928947695859
Ti 9.00654731189973 9.018348120723118 3.369281924770494
Ti 2.0863273693553337 8.824539637516791 6.977557884161464
Ti 3.769549270492317 9.881058806045994 5.612591828804882
Ti 10.791540235817187 7.034860643337191 2.656298464301975
Ti 5.44132940291677 3.9486929346032342 4.068958750119708
Ti 5.805529760774161 7.298441274520147 4.956846746706785
Ti 6.40613165804168 10.115546794091435 4.5420533427620375
Ti 8.516623400539787 6.396918371578074 3.973317252906359
Ti 9.569757017596208 4.919473468907804 1.9495410358614782
Ti 4.55837187969951 7.6034063151272635 7.526005802203299
Ti 3.8764764135008782 10.31152439513993 8.415793131330851
Ti 4.438996609349054 5.210891463110628 6.274760067066652
Ti 2.185576481197494 6.2032080215146275 7.514438902530851
Ti 10.62376076649727 7.774804660468077 5.1391393190789
Ti 8.401317570147366 3.5067070085439953 3.7142494417683265
Ti 5.224704265823521 11.745590435476785 6.527266751274644
Ti 9.829334549248241 10.334994712143608 5.849035253873987
Ti 2.6323650931653804 4.113368140462405 5.243484542169624
Ti 7.035150710195575 1.988177311449818 5.264685247123768
Ti 8.16684316704687 8.344863885166449 5.941312677483925
Ti 3.1644858788279713 3.493707445406233 8.245905204205187
Ti 10.659245418242 4.8999320294888316 4.3631360993650725
Ti 7.230618529661692 4.61530009208632 5.87505562417951
Ti 6.394601571667672 9.5354355324885 7.316436740157398
Ti 4.736541186415522 2.4205042291523946 6.358959734873437
Ti 2.731316295933022 8.159385325533089 9.354815845492789
Ti 8.973537999560767 10.652007182669863 8.253134027394475
Ti 9.297871700725647 3.049894982925904 6.248161059294784
Ti 5.849350679474112 4.055218278740261 8.285225185274426
Ti 6.453938705708431 11.244990143095565 9.03720891692845
Ti 10.187139076506389 8.480658121669368 7.743362304915782
Ti 3.8854543653067473 5.808117300322622 9.420728429876496
Ti 7.353200104426957 1.8490185993793493 7.842363238612779
Ti 9.647626388260717 5.893863645075078 6.779157547962042
Ti 7.6345140786966175 11.80512209179161 6.509756038393883
Ti 7.16851836550834 6.505513080295334 7.765521826498624
Ti 4.593768477284666 3.639155712125449 10.606675584705524
Ti 8.647684288622875 4.1957579963410305 8.85733054155471
Ti 4.987386427247359 1.6277939156843597 8.950789742326641
Ti 5.332040980701679 8.640616337668368 10.006296527787523
Ti 6.579055417517147 5.813213349871396 10.29286807688322
Ti 7.872944130398412 8.51620791735236 9.371697688769885
Ti 6.9778935016847505 2.840615602422952 10.352137909798904
Ti 9.286607782962164 6.469721797678437 9.802120674564438
Ti 7.945363573975015 7.390115872292034 11.859331702094277
Ti 8.516668906269825 4.899789244077278 11.675399727490895
