53
Energy = -355.3079023 eV
Ti 9.533160297840823 3.881118369533839 4.9464519187814275
Ti 8.382576515722572 5.473624387619071 3.0328064627727875
Ti 6.546248601484547 6.243198412733898 0.9842640741586979
Ti 11.091192985252253 3.776319641893018 7.057275140291872
Ti 10.612300362934294 6.137145735278523 5.483398019918302
Ti 5.4439196668664565 4.694627777040422 2.823139217148034
Ti 8.413517944556004 7.919393193841224 1.6906765014998588
Ti 8.504625041134242 2.6326557486055595 6.880776245277004
Ti 6.9899172870372315 3.3089280025603283 4.666779358040621
Ti 10.948047329212967 8.894969357988174 6.281111718994199
Ti 7.146587143254646 3.1797916648160887 9.32711960543897
Ti 9.78451128482331 2.686884932772364 9.115613015101564
Ti 8.993166618671781 7.97696032443307 4.310619791291285
Ti 4.420632287477201 2.539839469499954 4.031333671660656
Ti 7.515806795919368 5.814454877126885 5.5272586589047235
Ti 5.434866023991475 2.1474399443439105 6.51148105654328
Ti 11.476692525883287 6.484305057735897 7.718476855504315
Ti 11.285242949142724 4.75731316045428 9.579500903902055
Ti 4.103194077068793 6.989956170080627 2.038658938304001
Ti 5.9629674938554835 8.762576060099793 1.209976214952602
Ti 6.4539257624405355 7.225323615570679 3.367197100202827
Ti 9.085605025290816 5.166160475886851 8.092194624353155
Ti 8.968625565904027 7.824994715945481 7.057679512392851
Ti 4.778492696788329 4.655100660687228 5.622485120671745
Ti 8.37450127013149 10.156489490137217 5.7438738147159585
Ti 7.342087118862614 9.94985044218928 3.1230532288677524
Ti 9.725906845721996 7.110583650350283 9.808531100712555
Ti 2.943202333186594 4.675997814869784 3.528802305988006
Ti 6.390764268091369 4.594093939550628 7.609710857455236
Ti 8.914646771693045 9.720012785509088 9.104848497520262
Ti 2.6687701062091578 3.0939673027809302 5.90839111068543
Ti 4.547552846931665 9.459715822976507 3.3186916373477513
Ti 6.295116406840833 8.466725325538192 5.784975391324477
Ti 5.871590054975787 10.97601148845247 5.034551103762615
Ti 4.065067714113322 7.05585688256162 4.8536932824005525
Ti 9.202539442425556 4.542833881457908 10.878158279563367
Ti 4.229998832846263 2.9816109427551365 8.285631976134873
Ti 7.125562655485983 7.889363518849252 8.839996869596762
Ti 2.156680427944987 8.170614824911688 4.136607450771175
Ti 4.916114902050493 7.00492605991144 7.710049085984841
Ti 7.186678270607312 5.771482476691716 10.255810185451548
Ti 7.886360250585456 8.275749269578121 11.302549725752456
Ti 1.6876320708300259 5.649243007001382 5.434260681458252
Ti 3.806837158908276 9.716215448901822 5.953568729966888
Ti 6.5693764963448285 10.3763584018119 7.6040396612181835
Ti 4.34401353635103 9.451762806079827 8.807043720326766
Ti 3.0144397575433217 5.195599062384016 7.744216603683091
Ti 6.46974098596198 10.118168380136888 10.188732392125257
Ti 4.662655329331846 5.21683977884498 9.90376000898558
Ti 2.3310949297250847 7.772026690174469 6.976058865023779
Ti 5.224057956675713 7.841810387201117 10.789125307123555
Ti 2.939128542229925 7.228900524511617 9.474222616448957
Ti 0.6369904063693437 5.76853512083873 7.947943036226737
