52
Energy = -349.68623355 eV
Ti 10.11971178248262 5.498824681422408 3.9129617650267625
Ti 9.837157709022446 8.136974883519214 4.71524197699362
Ti 11.633511422914813 6.661407343035829 5.796713791317954
Ti 8.452501466609004 7.2511479920808295 2.419929952913834
Ti 8.96511531800923 10.010255201902355 6.0630780732766025
Ti 7.805297033612739 4.580079735004638 2.463670941294343
Ti 7.17892338848389 9.235963823449563 4.061349292316979
Ti 10.705402785857311 8.589607158315081 7.357046730883182
Ti 10.791080627896035 4.283126984911563 6.130994551473567
Ti 6.545922337550676 6.224262869739473 0.9440057450505226
Ti 6.349015434293187 8.664451149607915 1.4399090892588715
Ti 9.272098199162837 6.383596755756472 7.133701003307011
Ti 11.37351851400926 5.857773434402999 8.305006083103425
Ti 8.3231053983617 3.28957925145559 5.371057245718113
Ti 7.140313582735437 7.935032779257669 6.406550742605427
Ti 9.643599176890012 7.590878600633458 9.891481491108905
Ti 5.62133520165144 7.0011711201265685 3.390819057581675
Ti 6.550214175270574 2.507167680121679 3.419021405440774
Ti 8.28904371300139 9.490785997810082 8.544003557129335
Ti 6.575615631591331 10.632996626514423 6.9711339181134715
Ti 7.8182210525467815 5.949728263913382 4.798352366032147
Ti 4.610033858912627 9.497544217957875 2.8578561872793222
Ti 5.071469145874397 4.380705361045487 2.1298151918772157
Ti 4.013475705276468 7.123518420619341 1.4904843414633242
Ti 9.519248581467409 3.5634108809721905 8.174777314420698
Ti 9.405903448114618 5.183266516594155 10.05115604297275
Ti 4.012570468412439 2.745277670537774 3.985853050728497
Ti 7.531927965460456 2.0827738696109384 7.850828208245675
Ti 4.6874623559458035 9.39779435040058 5.568718393502797
Ti 7.038969834564581 4.619590024259643 7.31738353133503
Ti 5.783936620274198 2.0048712890704197 5.91821228751988
Ti 7.518115934799689 8.850488380629079 10.981076680457388
Ti 4.004570101036615 10.827788378612956 7.74930104644824
Ti 7.161907483575917 6.770357764235561 9.217551808477793
Ti 5.6483646568352 4.464798768203418 4.972402878652452
Ti 5.263482130868058 8.577022700034739 8.224475029434164
Ti 2.913362079984144 7.966915937053008 3.9639705836036825
Ti 7.202839523214309 3.876256359081065 9.926255444371545
Ti 5.712222931411767 10.447008797666351 9.884216486711276
Ti 3.2644611838261226 5.401551453575714 3.882629923286454
Ti 4.538635510867602 6.816755564653434 5.73794781099722
Ti 7.436199213788405 6.333946996180164 11.573332574636483
Ti 5.06051834239798 3.0436573927085084 8.4758234440884
Ti 4.621620612127229 5.861022410166283 8.027996383168707
Ti 3.50788057717034 3.826474523478855 6.449917211692857
Ti 2.651022778597571 8.541215071129525 7.301078106008172
Ti 5.055722559868867 7.906581784607424 10.996797786327488
Ti 3.266711875712609 9.530827558817727 9.75280750336333
Ti 4.883920688480346 5.243030812605156 10.52322199087677
Ti 2.168046288304856 6.013409708895086 6.967190963163444
Ti 2.777084152194922 6.997215701283093 9.596798979444046
Ti 2.7530436179141637 4.405543181567534 8.989528214732294
