54
Energy = -361.65306858 eV
Ti 2.0832701987100566 8.574272849699698 8.577321672764496
Ti 2.0125377551245758 5.810428459020653 8.585363079657519
Ti 2.975083277700975 3.2635398089966423 8.516637330967924
Ti 2.9843656171424504 7.244355677125161 10.599089871880647
Ti 2.3294675125895132 4.43439561751916 6.241333798825074
Ti 3.9298146616612595 9.835419594251654 7.125951550989006
Ti 4.291606484626257 9.503340023380398 10.008573666040641
Ti 4.083576960135741 4.893399122368326 10.287461229761476
Ti 2.737966786218934 7.274630521477814 6.196264828950303
Ti 3.460915492953389 9.611900723003949 4.512138524180275
Ti 6.9507698674008935 3.702637001566176 6.651127042264246
Ti 4.441141231101247 2.7163309527043067 6.330512170139584
Ti 4.402378384039483 7.509025281715694 8.32453653528696
Ti 5.4694867575052415 7.2962679259500645 11.190728030528364
Ti 5.667986922999079 2.964358259941904 8.914642440383846
Ti 6.991254541767444 8.156666055476272 8.918433817974444
Ti 4.539322992045607 5.181514715009303 4.884977642024753
Ti 4.502776224418091 5.091921782494961 7.466267719999378
Ti 6.734258967816427 4.743338343542011 11.032667681263197
Ti 3.6433061863940908 7.37102574530518 3.4405844218034347
Ti 6.930317677276112 5.48818729311629 8.671304130683007
Ti 7.268700390685873 9.325718770769939 6.319254829849715
Ti 6.146793754357156 10.775588194100138 8.276743012161942
Ti 7.069658144739195 6.0655660463987795 5.932415533997951
Ti 7.4728078350188305 1.4421315733050513 7.091185449435307
Ti 5.538032664691807 11.15685536132179 5.3230618291847875
Ti 5.16835013262552 7.844367521132126 5.508579566583783
Ti 7.97930208005561 11.814119074997441 6.347570544719991
Ti 6.419555598429246 3.686712088755587 3.975065832917498
Ti 6.376799859014777 6.410413091001635 3.336280646815702
Ti 7.921849041541542 7.11399254581764 11.456871146715798
Ti 8.417375949035542 3.1761671463590444 9.100321390354143
Ti 8.675010102950885 2.54631986798664 4.787266152787947
Ti 8.020114188014402 10.508433119901976 4.015281882176711
Ti 9.123037172395568 7.617018443148828 7.353202810064093
Ti 5.87177865449611 9.150789777113282 3.1574714510701125
Ti 8.623914379057835 10.28642563486012 8.504782656331743
Ti 8.514156922252322 7.760460650626486 4.452402991766821
Ti 5.990889982170786 11.743206441230107 2.780298535838645
Ti 10.193999302499261 2.330829922714724 6.98838065715709
Ti 7.119809704409362 9.611933629637251 10.900049136585467
Ti 9.33708797920659 5.810756600758942 9.69486673661274
Ti 9.48770061856961 4.87735856076421 6.829157490757733
Ti 8.728503265504921 5.046561682740682 3.851977625130167
Ti 9.506348133608117 8.43042070480578 9.98288044969338
Ti 10.99541059957346 4.0090441865611295 8.905257116793381
Ti 9.919525714098578 9.6559402661674 5.788824092898343
Ti 8.148503922697106 8.05554323438363 1.9192793461508781
Ti 10.842794019026949 3.7639816074756727 4.684762440414469
Ti 10.058523604698268 9.294431850810454 2.90902038611289
Ti 11.383949636732224 6.527729397455563 7.963139414143458
Ti 7.50781222418457 10.45462459802279 1.438199029784729
Ti 10.832653723669122 6.546552915021562 5.230001739068304
Ti 12.093952589637263 4.415608582876252 6.6345104503334085
