54
Energy = -363.47039513 eV
Ti 7.871069689703071 2.3401972146986196 3.7518307102401716
Ti 6.6314305214361156 0.9848371924404736 5.7796775408088985
Ti 5.1650139210072705 2.0907367395277925 3.913687788156096
Ti 8.94195159061583 2.2972481190129685 6.295301928624487
Ti 6.008443677420254 3.483776944724041 2.147296858476521
Ti 7.459047313153326 1.1897016883422264 8.268146076869115
Ti 8.049557482127016 5.220376100737661 2.514996824478473
Ti 9.532418656910645 4.642656096374202 4.567642833739646
Ti 4.872764955353441 1.4536118077973421 7.968002941134843
Ti 11.061687873079416 4.618612996773932 7.434683931944106
Ti 11.786404663339786 6.0742400285772975 5.506424174862886
Ti 6.511103712197384 4.370121753694788 4.58214301012395
Ti 3.939576679369884 3.269597781765157 5.979408863817752
Ti 8.72190350049504 3.4257404371250755 8.951022273429
Ti 6.446517112134038 3.276213781275203 7.054757507989812
Ti 5.471475526340923 6.120019478024815 2.326815556374719
Ti 3.898349949424847 4.676325641914572 3.763844107401698
Ti 6.153219362029831 3.0788588374924064 9.792498016999062
Ti 10.069946459090543 7.147226373919889 3.78996313733355
Ti 7.400770386220276 7.993050736377452 2.4526360587531166
Ti 11.670985411758833 7.3166118240769755 7.979105750655321
Ti 8.488711888602573 4.927416336629399 6.821106180751024
Ti 7.554816627625213 6.822186821268124 4.765642153858339
Ti 9.599139457394795 7.069364653003379 6.739639146313736
Ti 10.007311751638705 5.655961538634522 9.412524790074208
Ti 4.834671011098525 8.680383146495451 2.3460108336022047
Ti 11.342297961538389 8.645097288819017 5.606737783679376
Ti 6.993076166385542 5.78827574708016 8.678939616999319
Ti 3.9554741975766077 3.8493568092050605 8.42928965418737
Ti 5.078451272966754 5.649333606835244 6.672064544312299
Ti 8.81515647279574 9.217056210682335 4.917737183397216
Ti 2.813681946739424 7.175231654234061 3.319453350387381
Ti 8.868383809892089 7.856790777281794 9.38103896537222
Ti 4.843627432017671 7.3911613383702335 4.765109665217388
Ti 7.612860298850975 5.506827629809386 10.90386594313367
Ti 2.48766229609863 5.658376399727265 5.687824253304357
Ti 6.3634923795450895 9.806336174043189 4.201279106520289
Ti 7.264274189439049 8.286872521784813 7.183209258425222
Ti 4.7048224063641095 5.65173258763183 10.02508360451722
Ti 9.530235259244602 9.624060419775132 7.529779768708004
Ti 4.4220565690691185 7.716832203675301 8.15765770417502
Ti 6.188411117460503 7.9925206372126265 10.1601059202614
Ti 3.618726209816286 9.749005464199707 4.455858253207639
Ti 2.423164308982436 8.116907272728021 6.148947306191933
Ti 2.3282137450948475 6.277353667171378 8.489510971848706
Ti 5.278281346629119 9.641878872433205 6.595243457703351
Ti 7.482917820212524 11.297089766012439 6.526106792514751
Ti 5.0506824651595315 11.902334081638118 5.4510685651082404
Ti 7.1586251529773035 10.343317191185339 8.999985173948092
Ti 3.393943314049489 7.80085489346537 10.530721046416181
Ti 2.071325975467557 8.914476376658548 8.663255949931193
Ti 4.326876657272241 10.126833733580403 9.510391924283574
Ti 3.077788137940465 10.842384132205037 7.1533239441491085
Ti 5.3729133171815375 11.962339878186455 7.967312701621624
