55
Energy = -370.80516522 eV
Ti 3.896808823579347 6.225620551378073 10.56461207552866
Ti 10.122780637173472 8.185972219028466 6.523625393473082
Ti 8.938696181405826 4.5354712184768005 9.714762123113218
Ti 5.976660334382874 6.217986622218945 4.198219343122197
Ti 9.882760307931788 8.321696933996378 9.461901602855049
Ti 8.853863768716918 9.400251860494953 2.605704415889778
Ti 5.3925639880276055 6.27051395048594 8.224512276254433
Ti 3.730833364961412 6.388657272908711 5.975814486683311
Ti 7.947587391509173 9.211141761201459 5.112972115493457
Ti 8.394925194126737 6.615888722045975 12.061782309699279
Ti 5.897876886233593 7.139534716953776 11.864600903010292
Ti 7.758141484434723 9.0914988985936 7.988098723313737
Ti 5.334328714145178 10.57701333674957 4.930257092079184
Ti 3.5408578629220164 9.045438709164985 6.701400306610043
Ti 7.511411892317182 9.172314181180575 10.835284275960877
Ti 5.579955964391391 10.81087148568589 7.603087721646479
Ti 8.431375926274894 6.880579887630217 3.7548483766936798
Ti 12.46181979007154 7.145811111726997 5.371942794308812
Ti 10.405414033492034 5.61918184666385 5.154274175544575
Ti 8.011935325595612 6.152694760746716 6.56934701640926
Ti 13.090171385912994 7.840037251218404 7.730369235232944
Ti 10.6961781756624 6.26117023686592 8.20849824171323
Ti 7.7132730946794155 6.7539743119413655 9.429888116904902
Ti 4.168374283864686 8.248257664142296 4.279112834326834
Ti 10.770971677052815 6.1614553121131355 11.02846116785019
Ti 7.418090744757658 11.261759353140256 3.520870674325199
Ti 3.66108430678615 8.902001495610264 11.194053697860397
Ti 9.865357566249907 10.98396884695277 4.584565429566257
Ti 7.621243128720106 11.775945090112403 6.102789386273055
Ti 5.578017104019744 9.849203372918748 12.653057535011698
Ti 9.791708225690325 10.792332063113903 7.328967923637415
Ti 7.672113886079258 11.640586957540332 9.272113984404708
Ti 7.604349043874425 8.687621223208788 13.409998031425133
Ti 5.616358491146266 4.539476633381393 6.110913898767499
Ti 12.554346053033555 5.040997450048833 7.027879497032765
Ti 12.325589619046276 8.19061888309718 10.262270065977203
Ti 6.044529514051579 4.7051142879936005 10.463520824551644
Ti 13.0551076467375 5.881003889969955 9.525281059550217
Ti 9.889598145528197 8.928395812338591 12.094555748938069
Ti 6.319273801198614 8.87771536458283 3.012179363839858
Ti 12.143319147182243 9.722373730426241 5.886422526832368
Ti 3.2557082953745184 10.303017490738796 9.033734387365358
Ti 5.919852033868767 7.992755411924879 6.265012804649056
Ti 4.10628666320706 4.341880018975565 8.528176446631711
Ti 5.337452960663384 11.22143602210753 10.495567475964442
Ti 5.339305194334474 8.758494172711789 9.295159462943774
Ti 2.921837858226848 7.5588073251111485 8.722633011204463
Ti 7.871226204717052 11.225595763684524 12.159184719511579
Ti 9.78154771854301 3.9590309283495366 7.1352892021713
Ti 7.993641677788621 4.286119078174468 4.85255547975497
Ti 9.809422459276812 10.823048725046181 10.184311210626973
Ti 11.390916325770458 4.027053503022755 9.319861696677659
Ti 6.916923582529141 3.9447078174715102 8.098684589855392
Ti 11.905450585885436 10.04839902898647 8.51050331540192
Ti 10.69082227891976 8.367552187718083 3.966556177603916
