5
Energy = -26.32737736 eV
Ti 6.2633657102290075 6.106670323723835 5.6012336926031825
Ti 7.279817219703464 5.954469307607615 7.88275160470487
Ti 8.69151029520916 6.843908682241702 6.054585487237139
Ti 4.957882632659576 6.820139389649466 7.6706666193947
Ti 6.785346369282331 8.25107608857193 6.764219290436486
