52
Energy = -348.10190745 eV
Ti 11.851449111415482 9.395260241281155 6.759557399546876
Ti 8.535031615173729 2.887997864446778 10.113437676891989
Ti 11.521647728936207 9.174713490362857 9.24067232028777
Ti 9.304491822148957 4.720001340645973 8.503646752305881
Ti 9.670049316841382 7.50716665864852 10.00972146417819
Ti 10.944950158370215 7.06282700849691 7.696124078459109
Ti 8.606290452823862 2.4579978475607365 7.384129713727266
Ti 6.062193762620166 2.89763541226536 10.918562601295276
Ti 7.438862100406998 5.435955888317834 10.538389051599218
Ti 5.380121014082428 7.00553547265406 11.12708229360582
Ti 10.909818640522266 11.374390110570754 7.9994884904811645
Ti 9.513704634211885 5.702160657764173 5.686631628476966
Ti 7.373066378656825 8.442965886174502 10.050585053335126
Ti 8.684539336362393 3.8719343326024225 4.003331797289045
Ti 10.50738450422375 8.062668784947604 5.1916243853575255
Ti 9.161731569190533 9.232598351414504 7.802397559140525
Ti 9.939974523418204 10.740725124143227 5.582125976885925
Ti 6.594253049135936 3.8934438722879916 8.515356024965463
Ti 6.786033156096757 1.2803007109968478 9.048892138730434
Ti 9.43775582149028 10.586376123209744 10.03987366674377
Ti 7.999171630070929 6.663465145357863 8.038173668628161
Ti 4.304322539922666 4.668081680151918 10.429711221265975
Ti 7.656863823656897 7.8998295908446385 5.708027601795799
Ti 8.793039417935665 8.719918788288945 3.416815290898998
Ti 6.319242911177449 3.232815333602054 3.968123768720459
Ti 6.2087161941799405 1.9524639060746791 6.639068056778303
Ti 8.460427251035611 11.892889185934362 7.676117092840049
Ti 7.272921101377246 4.5700713048818775 6.154436140273196
Ti 4.361410914907434 2.565877824605323 8.681526576424767
Ti 9.52779392908271 6.095283386030239 2.8653185796437914
Ti 7.69437090861015 7.328723877645578 1.5297071491653371
Ti 5.2920908424908655 6.397405426639751 8.474975923812266
Ti 5.198735215639591 6.612369126672362 5.794961636419283
Ti 6.9672283113066955 6.0882060567273415 3.825605435684227
Ti 6.182515895368385 8.79994884581677 3.21550255965453
Ti 3.0693303699539216 6.9340797167815404 9.81868067822605
Ti 5.999674727432741 9.164260644335062 7.596020919206705
Ti 7.365016069424819 10.42445267226646 5.514174926378555
Ti 4.540129234637489 9.078184643907665 9.728939123041418
Ti 4.540994890610676 3.756745202303132 6.06634341607422
Ti 4.325390893510469 4.9353521313377025 3.595822727718116
Ti 6.884244565608182 10.961002518331721 9.450165819081374
Ti 7.370501418301671 4.70320572185846 1.7909537180719006
Ti 5.645064476443718 11.806310544747975 6.863840545918681
Ti 2.761368275021636 5.699574793483078 5.509865707322905
Ti 2.99625428548833 4.997912406015556 8.072186108352668
Ti 5.316862699273315 6.640170274925279 1.7431660935326485
Ti 3.830396842933607 7.507415050317059 3.6900548953687093
Ti 3.318612425647065 7.822432277444918 7.211063650505684
Ti 4.803932337194856 9.435713872337285 5.3531013975868404
Ti 3.2532767423372024 10.241315118683444 7.504972806967708
Ti 4.4478090597629985 11.634510769980539 8.939612736590266
