6
Energy = -30.68646084 eV
Ti 7.331483723559023 7.1500915391318 5.46931655478165
Ti 5.550223365360142 6.3033791352501645 4.749707723274072
Ti 7.5451366820166905 7.658155306434241 8.152814774536308
Ti 3.8150268543841683 5.96172212733893 5.868285356107888
Ti 8.621686618508582 6.024750316171752 7.358291587600731
Ti 5.97600144588916 5.741460265390878 7.241142693417116
