6
Energy = -32.75248024 eV
Ti 3.8812247564568656 5.25370822199531 4.646662137746686
Ti 6.398170034263913 5.129724010998954 4.525463144456036
Ti 5.244140135223775 7.349253193235415 4.276303612443813
Ti 5.009665045097382 2.94940660582116 4.45122983074442
Ti 5.175599132360366 3.9953247105919747 6.534106581515549
Ti 5.2935271228103415 6.324909483570208 6.568560919306398
