6
Energy = -32.81911813 eV
Ti 6.534645112928574 5.480975697327711 7.279427316361905
Ti 8.48334746362123 6.908403380369616 7.286672621492254
Ti 4.634341997402894 6.1215107407084846 5.944780197228568
Ti 7.336403431246067 5.534469363052321 4.929199233197445
Ti 5.807583492640635 7.708191246558842 8.120258329548287
Ti 6.599106848682883 7.641878173328138 5.835090903516537
