6
Energy = -32.76817897 eV
Ti 5.030112607078853 6.478699452518526 7.766240180439753
Ti 8.27395544727917 6.825382688822108 5.5389258605119185
Ti 5.83254124870359 7.845213743363508 5.642621839954097
Ti 7.241696384758339 7.938919015249815 7.710563149796151
Ti 7.472720880586087 5.459390382720091 7.660932254985363
Ti 6.0617989109932395 5.365220117041344 5.593542273395536
