6
Energy = -32.63639909 eV
Ti 7.289948147045321 9.210352903155034 6.848360397273672
Ti 6.01681042466765 7.277846722014753 6.249214065577521
Ti 8.121672839558354 6.217971972160026 5.632516220465569
Ti 6.896195653980457 5.332628930774251 7.720315387097381
Ti 6.182940505799509 7.8202083240569715 8.691300635083218
Ti 8.4900591563743 7.19183610210234 7.891277860461379
