7
Energy = -37.01432618 eV
Ti 8.916879702123943 9.847677784459202 10.751482084049465
Ti 9.794875948804963 10.452314638829558 8.794360078520985
Ti 8.435154958411204 7.201444553994757 6.547438141323222
Ti 8.217886618402437 7.968360384651023 9.147559143082061
Ti 8.194898062584892 9.548243925967155 7.106303974717359
Ti 10.298126021525722 8.282657884286062 7.654815906245396
Ti 7.770879280780644 8.361255748448452 11.793204446540182
