7
Energy = -38.82447359 eV
Ti 8.303571606587754 6.955684153703373 8.46912375673703
Ti 5.9229289212945115 7.881875788428467 9.102740018562102
Ti 7.992538958068207 5.260559000004197 6.179788404848761
Ti 8.477660014887013 7.524703235165851 5.928187996113629
Ti 6.132724788106714 6.075758915393512 7.550504077030499
Ti 7.079831596799533 8.915096006610462 7.2575517113335986
Ti 5.9743309890005385 7.269909775438128 5.395690910118391
