7
Energy = -38.73983757 eV
Ti 8.323971774171431 11.729546279383847 9.258210964988606
Ti 7.915542180741499 10.066184523022432 7.831267860012554
Ti 8.371576496164927 6.656104642442515 9.785169254455834
Ti 8.606265218066987 9.203984812911479 10.25473794349063
Ti 9.19628825770922 7.998198494200629 7.841948455924148
Ti 10.651875973771627 7.7676146922523515 9.900890402070837
Ti 10.355530878564712 10.126654747420126 8.653880786149747
