7
Energy = -39.93621948 eV
Ti 5.578109785188136 7.471642903955133 5.175437899884887
Ti 6.432158907593314 8.951169458856977 7.050816849832408
Ti 7.9716127776333945 7.178660449091202 6.075267996568446
Ti 6.51642189672505 5.149124092849916 5.6493444872517316
Ti 7.907823376661772 7.476824729339771 8.673587254499784
Ti 5.711110604676437 6.5727555353318605 7.583394090518628
Ti 7.965740048100111 5.28280022715347 7.875128818022327
