7
Energy = -40.07914173 eV
Ti 5.439273281345693 5.042837663747133 6.72996066113043
Ti 7.397823060988958 5.393820643207229 8.258775283314819
Ti 7.131935991767683 8.615445002377815 5.80258891539172
Ti 7.596710996816552 6.083926946435873 5.787098193876234
Ti 8.444114023058084 7.601593893971077 7.6852974374784395
Ti 5.8785423205198155 7.391300701441714 7.687965403834163
Ti 5.274760719979654 7.034235463612031 5.211474419766695
