7
Energy = -39.94400842 eV
Ti 6.123597622097896 6.059809949875989 7.475369651796496
Ti 6.123968727290646 6.059100637032854 4.698444625086204
Ti 6.743953901578481 8.107839153820407 6.086474661330116
Ti 4.291847987361441 7.283565658336842 6.086347621172581
Ti 4.231139937852381 4.924560316181653 6.0869703327885665
Ti 6.798187111157501 4.055350124169004 6.087509775875516
Ti 8.295607998921108 6.118077446842928 6.087186618209862
