8
Energy = -45.78379127 eV
Ti 7.547617791333357 9.528329710568928 8.39706940559558
Ti 9.702036416883653 10.335062211238611 7.661083351209179
Ti 11.530041031052525 9.248099613178159 8.505795945700973
Ti 9.315089464835726 7.768990918565567 7.328691713401366
Ti 9.695084316481962 8.25670760261697 9.80782776373658
Ti 7.536411636869488 7.076651390605873 9.015880738443641
Ti 7.4556935695082585 8.818926617584964 10.83246772811708
Ti 9.148199021740993 10.682816301569254 10.20054500907229
