8
Energy = -46.00858638 eV
Ti 9.48594508966394 7.348959817479283 8.564793709350544
Ti 7.036642350407582 7.124868141713174 9.458124044879437
Ti 7.8957350910510105 9.162628473611194 7.961122772949194
Ti 6.656148250633201 8.852716566105114 5.7810773004641955
Ti 8.862320996883858 7.587033467225004 6.031513490974963
Ti 5.447142683869994 8.548991966885728 8.063744166658232
Ti 6.661785969959108 6.639135635822248 6.964846678261681
Ti 8.614328470021736 5.375857743138192 7.8156981143422835
