8
Energy = -44.10936673 eV
Ti 5.062655435557918 5.568238180170092 8.489402962704384
Ti 7.268229425845003 6.888163521221213 5.0577017575130245
Ti 6.726269688520955 9.00420663148441 6.338056479648116
Ti 6.2316571158035154 4.74157613029391 6.401288983660704
Ti 5.133515027110964 5.6985556246337605 4.301004405838583
Ti 4.928742706456813 7.136405246933255 6.425104430013071
Ti 7.176166849023977 6.89481960761429 7.77997775307378
Ti 8.724473746919108 5.319745052886957 6.459173222786348
