8
Energy = -44.74962664 eV
Ti 7.42408536055592 6.002864077404958 5.241700211260968
Ti 8.08853966426231 4.97213854352636 7.326334384076601
Ti 7.769889507738523 8.607817674973667 5.082236890472151
Ti 5.476369062377502 4.804010726214752 6.124672730627106
Ti 3.850418309456771 5.91713921179219 7.305478529012889
Ti 6.306102818195708 6.3469053364102415 8.070659227963283
Ti 5.3545456642126 7.469389884858371 5.827703330682718
Ti 7.7889059048333005 7.938590836452344 7.080070987537294
