8
Energy = -45.83935031 eV
Ti 8.1023519856352 5.743348597020552 4.942213332644672
Ti 8.784329283666299 7.099967521529273 6.568026247852851
Ti 5.711300524536817 5.05882368220429 4.8022056523695245
Ti 6.746734252735897 5.481503703659602 7.2521753562323665
Ti 7.14690495866856 7.946622171280575 8.253280930885433
Ti 4.248788499421879 5.805385498009412 6.307385652184265
Ti 6.2523346535400295 7.519124980648434 5.749911100559235
Ti 5.007255841795603 7.345223845648394 8.124801727272436
