8
Energy = -46.00876505 eV
Ti 6.581561882791552 6.260532581958679 3.7020789205233586
Ti 4.325999251082426 5.333230745650302 7.201876268351484
Ti 6.166719847006678 7.139329369595135 7.665203679823661
Ti 5.4370128016836485 4.389820460586499 5.024758471974014
Ti 7.070826530066993 8.102162221485747 5.47116472884566
Ti 6.304197746617646 4.298452452859981 7.732550795009781
Ti 4.821621265398368 6.962456057145889 5.368724305804674
Ti 7.447517177407216 5.6694726127719575 5.9890993317217855
