9
Energy = -51.87385717 eV
Ti 8.179793730134975 6.667908566171016 4.406421099280984
Ti 6.1428975517017514 7.857609453689203 5.296789463749135
Ti 7.84324896149276 7.028823392593258 7.083109286582404
Ti 7.099698670378027 4.880746409132978 5.827184580684375
Ti 7.0398593931569 7.234584652874293 9.632378639361944
Ti 5.78907096234822 5.802533928677989 3.8871790935326462
Ti 5.437406156468305 7.790952299233703 7.864250581232047
Ti 4.737041413497493 5.876965551802827 6.187272556721153
Ti 6.219025662165968 5.347918247168995 8.303457200199578
