9
Energy = -52.41498809 eV
Ti 7.713494735838451 7.96623969454344 6.361030326078584
Ti 8.43641105571976 5.4492883607913205 6.769103804759229
Ti 4.251672585842549 5.951952622342183 6.906458359139461
Ti 5.440445784183626 7.462605379148295 5.055867692604059
Ti 6.255522590853831 5.092681734332035 5.409279238653604
Ti 6.212555102796358 4.217053931278756 7.662670546370823
Ti 5.112196462437787 8.498628362293646 7.174497051495307
Ti 6.429063915911897 6.582160632795419 8.079997272192623
Ti 7.989530189940982 6.62028128239266 4.42198776913943
