9
Energy = -51.44837469 eV
Ti 6.459324804368352 7.873100354639371 8.145376403232016
Ti 10.646317636310254 7.8036196652642635 7.942962599427745
Ti 8.574305531773641 7.815328931458583 9.441786990421727
Ti 6.154457929472677 10.096265260842284 9.312251376646946
Ti 8.954082643267805 5.860087656976567 7.767316001595715
Ti 10.506948723880516 5.9697405412536115 9.588678599362852
Ti 8.41507588660788 9.987207282045928 8.184198172682741
Ti 8.49266026180723 8.016618741015003 6.59455238846904
Ti 6.262097374204618 10.013990324270893 6.847488366753933
