9
Energy = -51.91682886 eV
Ti 7.13921925896349 4.38360807369534 5.272923518507509
Ti 9.140774576325418 5.718734405656367 5.516374048392806
Ti 8.664168434475803 7.790965774050174 6.678838695670657
Ti 6.81855922430153 6.9477297049740665 5.050475939505802
Ti 7.3667938147713 5.700231080404741 7.508474047789329
Ti 6.119847636200602 8.010637563976179 7.331143360424741
Ti 5.031257745085882 5.53542107205353 6.359469760261065
Ti 3.8570411665088753 7.732591525408346 6.295660010622581
Ti 4.362338143366371 6.680080799780785 8.486640618824653
