9
Energy = -52.53274837 eV
Ti 6.269838811672065 8.714773814844461 5.671907785248629
Ti 6.672653786275547 7.363892356240379 3.7758984400215154
Ti 7.792394935150026 6.682970193501408 5.970871499962468
Ti 4.728864304740204 3.7027970203731644 5.914612827458997
Ti 4.310568332294164 5.103981232006868 7.8819053917821
Ti 6.811295310074332 4.723879884338875 4.526498750819136
Ti 6.69609645556889 4.700726758874709 7.148852117375265
Ti 5.083445077257942 6.324845268174208 5.649881258779925
Ti 6.091071911845875 7.13836239652485 7.9158008534313735
