9
Energy = -51.82583525 eV
Ti 7.030494836364924 6.343151627133925 8.265409742746224
Ti 5.146991044562058 8.021234083260603 7.634588423918928
Ti 4.973539223046467 4.994999343526529 7.4124733509663265
Ti 7.66884948072697 8.293536227499173 7.077589750419614
Ti 7.958063845606516 6.52562188748224 5.046673409469431
Ti 6.4157638517831215 9.136987488520456 5.458074090939739
Ti 6.132703875591823 4.0669804154314075 5.084796023124009
Ti 7.453939742607042 4.520385854188906 6.798190330197009
Ti 5.722164723148758 6.599613696394304 5.724715501656648
