10
Energy = -17.32776652 eV
Tl 10.0691152370158 4.8121215979573035 7.277368345729063
Tl 7.44344207092925 5.6630470912376945 8.816519486861282
Tl 6.639314749128293 4.754702275601031 5.785963935220613
Tl 9.169115016062563 6.805820115481106 5.045728609360294
Tl 4.797718536015298 6.567174713200385 10.166367257387142
Tl 4.33566842731714 6.080493399245867 7.199907935412724
Tl 7.763192442134721 8.304728375627967 7.325179262729105
Tl 6.468802370416412 7.084428890216645 3.576113011751893
Tl 3.2866327488409786 6.319737502693966 4.115681688927583
Tl 5.169762857658395 8.750510494256453 5.833934922138863
