15
Energy = -27.93099036 eV
Tl 4.3668816225637475 6.83395580052371 4.82478113124407
Tl 6.529870388828724 5.425040461667773 2.4966795847187324
Tl 8.880409142604753 5.577635587278143 4.873398926354446
Tl 8.526255883868497 3.38379033441016 7.5106346561065065
Tl 7.202698308097379 9.477360957726278 7.438206518278554
Tl 5.9681396656103765 4.6069325021704195 9.301032097933334
Tl 10.057696514841584 8.39572168361878 6.144631913300307
Tl 6.727072335637844 6.430553016376978 6.9642129364787175
Tl 7.070647829884556 8.294040307302955 4.381582582976211
Tl 3.4119944228024166 4.705041428323013 7.414160821503255
Tl 9.319115533198135 6.488658145372535 8.575832714975498
Tl 4.182443371256785 7.867636254773319 7.9983171775917485
Tl 4.45774798916499 10.207055024725715 5.64876554332774
Tl 5.879978358844016 3.8969886392140474 5.388970822043429
Tl 6.707439781380458 7.697981005100291 10.327183721751421
