14
Energy = -25.70350147 eV
Tl 9.907784261971049 9.363443251487295 8.009398082419553
Tl 7.273114935381235 11.070246445068754 8.555893633686367
Tl 7.546945752609229 8.595369162778674 10.590938246416766
Tl 11.911790053562822 6.706537613537535 6.715135150843079
Tl 6.681784722143402 7.794566846987803 7.724469063984824
Tl 8.68967687646171 8.592718240651385 5.262024544069105
Tl 9.227664075551507 6.16959986344346 8.614685068171779
Tl 5.832658793919763 10.204887576955944 5.985724766816686
Tl 6.867344550989452 5.5820593859110685 10.849920283547014
Tl 5.897404132291666 6.5474950106911765 4.631911881157393
Tl 6.7229526107996 4.56992421577551 7.027544124734337
Tl 9.249018814863152 5.639507417952759 5.396395617683339
Tl 4.464382422720824 5.885223473498098 8.77865462688139
Tl 3.5387767687914633 7.8690056947658 6.488285694257312
