10
Energy = -17.5512993 eV
Tl 3.606535935218634 7.174638943051771 7.428672875441699
Tl 6.022990721079687 5.547861240874179 7.86848569695016
Tl 5.002862759370328 8.967254446878867 5.259152013840792
Tl 3.6829494841944865 5.588310682961121 4.65069632435615
Tl 9.02367868841127 4.575523070221172 8.232299469436
Tl 6.251631262498896 4.032763597438274 5.15741621328272
Tl 7.331457649719973 7.172605146055931 5.198631849558707
Tl 6.255191089017443 9.635811282265689 8.119887467460517
Tl 9.33646073583211 4.713100323879182 5.194686703442776
Tl 8.583375035366567 7.689264627082949 7.9872047469394785
