10
Energy = -17.35571184 eV
Tl 8.446851573102737 9.224374015768436 8.381189778529514
Tl 8.453543047074188 5.7118244219500856 8.475954187622522
Tl 7.911653241508809 7.637882430372276 5.636175236319623
Tl 7.807517609510015 4.244462616735985 5.9615094898496634
Tl 6.145932892864219 7.546534696279744 9.723291178156382
Tl 6.936146084847861 5.518254306976139 3.29438553667417
Tl 5.189409222886939 5.009828180254772 8.243151987543277
Tl 5.128594296488672 7.970238064951561 6.598273519625517
Tl 4.5629933812781145 4.693197144883729 5.3467884411910145
Tl 4.554252434380385 7.5802979057696245 3.4761744284306686
