13
Energy = -23.61961567 eV
Tl 5.309000444089115 4.537978652991714 9.454799276576844
Tl 5.317047351791831 3.236508552733186 6.499969623151707
Tl 8.037918838689727 6.17566392729664 9.689969935740734
Tl 7.056595320192293 5.808121061979728 6.780908221041682
Tl 7.576068232146655 3.6753445968734644 4.273398657538048
Tl 9.789275099455777 8.24569613569776 7.463286361105473
Tl 9.376611116887613 6.351799374228198 4.891305254025108
Tl 3.897722082424513 7.083938184532835 8.320174014685874
Tl 6.589754148988371 8.70865648869423 8.15320785517915
Tl 7.03742582176495 8.680060763027829 4.9882079675085205
Tl 6.1622332398753645 6.172385180208968 2.9900511327356005
Tl 4.230877860770541 6.274676541904528 5.346337966183421
Tl 4.136609838356589 9.566309935263977 5.665523129961035
