12
Energy = -21.41714849 eV
Tl 7.806500366588052 9.116100404284134 4.593144928058275
Tl 8.57789707827685 10.964725116792694 7.017519435928524
Tl 5.353113339360779 7.2455529917506185 4.642416202584824
Tl 10.83440081515433 8.847798189457153 7.373728868428862
Tl 8.363587734610949 6.848795309389824 6.658825593946214
Tl 6.198007908760515 9.14165870134669 7.893169404832418
Tl 8.664500658425885 8.179278478146044 9.578060072930729
Tl 3.317397760418916 7.4476204582520555 7.51918887702352
Tl 5.921275695876081 5.168747980471381 6.909206152106069
Tl 5.665368304348993 6.664426394829308 9.72673270585403
Tl 11.344722092980765 5.85211024316256 8.528634593367617
Tl 8.420195808433318 5.1048611573927305 9.700194685118122
