13
Energy = -23.43374047 eV
Tl 9.738488340839124 5.32805978797975 5.452988104413642
Tl 8.019074479445226 9.358127299913745 6.452213738002479
Tl 6.655457131112364 6.793031453274404 4.738467129421979
Tl 7.181411721159416 3.4514903125477856 4.738328631948994
Tl 9.027366259498972 6.771933340966934 8.037040978351246
Tl 9.34489844159313 8.109865235965987 3.79678901669175
Tl 5.148174224710861 5.4916912282517725 10.488209653408072
Tl 3.660689966334972 7.434683884100991 4.098645551818492
Tl 6.59493586616939 5.075798700428258 7.428417105576195
Tl 4.896996081492179 8.414258191483437 6.993460609645379
Tl 6.543191230516585 8.161736454537703 9.581132106375655
Tl 4.113576574955362 4.400243195112916 4.937105911644256
Tl 3.5405673472806702 5.673908580544683 7.722029127810108
