15
Energy = -27.86216043 eV
Tl 4.718797533700187 7.066516098479849 4.1339625261241455
Tl 7.797277306374574 5.788079988394005 3.5256652545018357
Tl 6.605261625306852 9.400860530313135 4.966313998000403
Tl 9.4684067112161 8.165192360778095 4.641340218628499
Tl 4.304084600133319 4.149936631352986 5.103052952055673
Tl 7.239999873224456 2.9600598611124243 4.704031152532705
Tl 3.4067333516120097 10.065662728196159 5.775946953450511
Tl 6.998031200763525 6.150127276160111 6.514956554230993
Tl 7.960848886312113 3.2073470028413866 7.641052253448979
Tl 3.701938382796059 7.245059260902869 7.162837948270248
Tl 9.285953768026644 7.890662493770474 7.727281003358186
Tl 4.905175069013436 4.4207213791887865 8.201820339802321
Tl 6.145199414594973 9.096655252168595 8.034128744600418
Tl 8.991171637798125 5.353731158746242 9.516337342352337
Tl 6.131111430103128 6.699378768570389 10.011263549618798
