14
Energy = -26.06906041 eV
Tl 8.18054671271721 11.243516456040759 6.756249579370738
Tl 10.783733446546421 7.542724067382975 5.609025472969686
Tl 5.395003512866257 9.618160800568544 9.047821227841139
Tl 7.988046695659529 8.219343019492577 4.612726153942583
Tl 10.48372007452832 9.372464958344098 8.24250927564358
Tl 5.1470820111413405 9.577505234914643 5.931409764412414
Tl 7.696327390290274 8.07197567009131 7.641825182622997
Tl 7.745214649429406 6.532420382156276 10.773759408491907
Tl 10.002673078634187 6.161822700563288 8.61305543586668
Tl 8.168593281939035 9.70148956441822 10.552418133068608
Tl 8.15480171324413 5.085799853970719 6.312009586737032
Tl 5.356281387697649 6.265354357997955 8.748443681025304
Tl 5.256376760813727 6.475538894332603 5.639701521886377
Tl 7.272659647049488 3.5642209999851113 8.984446724923362
