14
Energy = -25.26497988 eV
Tl 8.72746859184421 11.381138477466543 8.107120099919461
Tl 10.713467281733207 9.142455226693837 6.306396519598481
Tl 8.981217767775515 8.467892667766312 9.160690559962015
Tl 7.037625814102941 9.328518366877175 6.485503303669033
Tl 5.712393467799052 10.14600569514809 9.479697638063865
Tl 11.346517879002432 6.525934456583789 8.554439008668325
Tl 6.76717967167135 7.473544804704263 10.99244655293244
Tl 8.493388798790711 7.790342658747303 4.3121688820891295
Tl 8.836596110444079 6.032848530946401 6.766653351662386
Tl 8.567066261289954 4.927863922890259 9.984708213727092
Tl 5.810353406797234 6.655474043974805 8.231818621192827
Tl 3.994089355560639 8.717934314130895 6.763237709356176
Tl 5.681788240574047 6.269437416888509 4.8860871752596715
Tl 6.699051786238453 3.830530515923951 7.260243035607676
