11
Energy = -19.43942059 eV
Tl 9.728824013709954 9.273790546292826 8.37195431543972
Tl 8.551904272187311 9.104692281436808 4.727475573972808
Tl 10.369795566312648 6.991512459372472 6.391239831387918
Tl 8.26035715734017 7.939738216461147 10.736939625400492
Tl 8.82320231585119 5.678672733642911 8.716662502016396
Tl 7.709746913788437 5.73114474201981 5.026100870560941
Tl 7.645790966110074 11.236884697844504 6.934312960083146
Tl 5.997895852761467 4.735530249182869 7.5471699023896175
Tl 6.841668515128154 7.973010496573903 7.256837410391235
Tl 5.341319298541058 6.7917842976063705 9.916374667387878
Tl 6.194246394885525 10.157399845592963 9.57443639883756
