10
Energy = -17.31323405 eV
Tl 9.52140717113339 6.530162803902783 7.053535153111014
Tl 7.188732246172697 6.46029695661439 9.118058611301619
Tl 6.703702201663991 4.423271962716569 6.854160589508257
Tl 9.02364743805852 4.6060169004234375 4.613199810896089
Tl 8.893809073127025 8.736263966748862 4.885789234023964
Tl 6.042696986924358 6.558037188793272 4.769159648002992
Tl 3.593882918872174 4.329822559304808 6.003291762984996
Tl 6.51277666395441 8.580059065421654 7.0302029289962205
Tl 4.132132507882273 6.283584415256481 8.413762604981832
Tl 3.3911261510179584 8.496397539624407 6.26275301499954
