5
Energy = -6.94955533 eV
Tl 4.486935072968092 5.968616099398671 6.872669177510291
Tl 10.223749962719946 9.50238347476884 8.391166247781692
Tl 7.444489611419045 9.47401713838106 9.68854985114287
Tl 9.691592795298646 7.192860036949652 6.4454204215470465
Tl 7.073258538032225 7.164802557174565 7.856164060024351
