5
Energy = -7.12946631 eV
Tl 8.611971255724193 8.867727828064401 6.405474664544384
Tl 6.063068572185148 7.563999034752786 7.311690145345244
Tl 8.771784243636294 5.6790095880063465 6.579024599784039
Tl 9.480821282987385 9.292134097748276 9.279454303763725
Tl 6.851279599433289 8.10380244750111 10.195635209552762
