55
Energy = -111.56676406 eV
Tl 1.0102046029352987 3.108120416076972 9.169159908969391
Tl 2.8958610312860382 0.2141459279528113 4.197372096757309
Tl 1.1209722314654795 3.152957719240147 5.318318731886193
Tl 3.1312934085353206 1.0093589776119798 7.604231196815691
Tl 0.38267280345226484 6.047099576210519 7.148464427620869
Tl 5.978015108625945 0.22268221505620847 9.426429152718196
Tl 2.8445390352872213 3.1571566767133135 2.0504977020319988
Tl 5.939983911697626 12.152110727862569 5.890715152201226
Tl 4.299768778311229 3.0633178415544045 10.550609845836922
Tl 3.3604587411076925 4.4892094121247945 7.515308357173102
Tl 2.433215441614427 6.011515795435111 10.40083391170487
Tl 4.392722688196466 2.9184661839581736 4.9376145700387815
Tl 5.8419751677587195 0.8891176261615827 2.556105612711205
Tl 1.017155613708519 8.948015955768835 9.136689278688342
Tl 2.7513080116000874 6.034738087915359 4.03786582821102
Tl 6.059219956703593 2.865999862772773 7.66117062512757
Tl 1.1467663564722788 8.94071795609534 5.2311397197379
Tl 3.329082457744162 7.55268270176832 7.441864542574278
Tl 5.768671746850819 2.9285176821521333 12.19421046950643
Tl 8.857450530105467 0.04677351610743815 4.081191550425831
Tl 4.2303986955909405 6.061041984733221 0.31232046695177634
Tl 8.834552746335778 0.9264088781181913 7.481999413158596
Tl 7.814025094332821 3.078409169755964 10.484349000781407
Tl 5.58581894783062 6.016980833648635 12.189384494483479
Tl 5.9632846100362835 4.474921782830848 2.6556824585235854
Tl 7.602240894962313 2.862245919915308 4.8445064478275786
Tl 6.168369792013445 6.003363912484259 9.159530104754174
Tl 3.0630135908805496 8.89672335239408 2.001338077079307
Tl 4.274910667528168 8.924576859332133 10.500214968352797
Tl 6.052552489069517 6.0132722340129074 5.763627450805298
Tl 3.147494680725501 11.046155567745764 7.5720261431543525
Tl 4.460017942836272 9.122028258823688 4.937306812379642
Tl 8.885631822738635 2.8969584892882927 1.8790957429685147
Tl 8.796767103214728 4.463924379983881 7.304116254471826
Tl 6.145392550409069 7.552374863449536 2.7116820201472507
Tl 3.0001823030813757 11.821604146323766 4.128824885210689
Tl 6.062697946553279 9.150925038812757 7.703433563199405
Tl 8.18773668573136 6.002021170115741 0.5664376155031118
Tl 10.889205760101571 2.949760148106943 5.082344797904117
Tl 9.707943527014288 5.985738003641406 10.258114057477272
Tl 11.021794035859424 2.9738829964808358 9.001917280223392
Tl 9.37903306925954 6.015412280968006 3.9328975181162384
Tl 6.204193982559094 9.037327532674889 12.220134957238066
Tl 7.769176654859565 8.922161621960338 10.586487726203517
Tl 8.802465672832971 7.570706069632198 7.446094070354174
Tl 5.947126620262167 11.803271322564749 9.463298813971301
Tl 7.685527916240236 9.16959908239366 4.957270885581009
Tl 9.169500706206437 9.048424165727836 2.072178892829934
Tl 6.034111465210585 11.092864001722207 2.57227526765873
Tl 8.825041735743861 11.137815636667522 7.623278903465616
Tl 11.671104556379055 5.987991665836865 6.759624190295063
Tl 10.977631318789731 9.08491991017782 9.191241142789758
Tl 5.99057729313379 12.152110727862567 5.911442145440197
Tl 8.96424992162469 11.976454427828175 4.2073818282205195
Tl 10.955350994501883 9.136531526340752 5.361113145620642
