6
Energy = -9.00603453 eV
Tl 7.629194972598747 6.799949072473909 5.5021218209532305
Tl 9.78577827793502 7.842789587401378 7.733857830658369
Tl 7.560537749532551 9.781410624963296 6.814083186827611
Tl 7.422996398354037 5.437133117940438 8.472313061000987
Tl 5.163797549853146 7.342109631813939 7.568322730606273
Tl 7.299467934089777 8.435248669090797 9.775638380322976
