6
Energy = -9.21294497 eV
Tl 10.351914513200741 7.746064359221216 9.817868444370774
Tl 8.924434118394744 10.415486607702986 9.44283099333821
Tl 6.828761843903475 9.008640491013495 7.891433823123959
Tl 5.527295179048799 7.967055358803028 5.438877716802903
Tl 6.934901666667498 5.279421110671011 5.839220254334591
Tl 8.205924847540963 6.396128513024625 8.274612386180447
