6
Energy = -8.91511703 eV
Tl 6.713347281653191 6.710462752338582 9.68143362015676
Tl 8.886482881677821 8.224160531581859 8.260414731845772
Tl 7.061363716531744 9.459667487545465 6.214759039121345
Tl 10.927995240150056 10.441117002667012 10.498289279027397
Tl 8.01171493717508 10.523695388100613 9.90537892001884
Tl 11.734261291013095 7.998724216060338 8.804838978399495
