7
Energy = -11.01956321 eV
Tl 7.90357710727131 9.791459476652125 5.693032857134731
Tl 9.782416584789223 10.389345671458365 8.106786582938973
Tl 5.652916421804972 7.3835513346925685 5.219264787903974
Tl 7.760010589078332 7.583849659549753 7.684054578848243
Tl 9.377513236666996 8.070007801190634 10.145911638403907
Tl 5.651221069816449 5.283385471811425 7.514435609613768
Tl 7.376137844144151 5.426656514925199 10.093684886632007
