7
Energy = -11.60556921 eV
Tl 10.507153523482415 8.27551401167605 7.979934165772517
Tl 8.5258597600328 10.573227551783392 7.813406915187095
Tl 9.143614087267384 6.493471699078468 10.191650180326398
Tl 8.595543860531327 6.431260133581721 6.604801311561485
Tl 7.315662318114088 9.066899077163306 10.160653356183388
Tl 6.805523161651629 8.984762519174652 5.833764607031654
Tl 6.0525201453162145 7.0859348168432135 8.3149472945833
