8
Energy = -12.97136754 eV
Tl 10.25678494374937 8.033370862359876 9.433832987544358
Tl 8.375550720856793 5.6405570520767645 9.172015452668031
Tl 8.972780920193934 10.531200936625268 8.026179573752211
Tl 5.13966764836326 6.101462194369079 9.496723769781262
Tl 6.670002781103616 4.697441517722225 6.573269216434943
Tl 7.8709443485743185 10.256943187786662 5.163639306676395
Tl 7.088801722728811 8.193043529179294 7.992065150317155
Tl 6.576705290155349 7.4489888645413975 5.168215946325827
