8
Energy = -13.92481709 eV
Tl 8.954457780307633 5.995394737499507 7.850190127236888
Tl 5.7957218513356885 5.896601102141159 8.356118395192834
Tl 10.019188633460528 8.047985131340276 5.639154473104305
Tl 6.856090862034942 7.98062988248227 6.164486555320839
Tl 7.1236304611571475 10.04373297531133 8.231363903751257
Tl 6.048415606164192 7.985743516938553 10.435383928527504
Tl 10.285506209196143 10.137331038285676 7.716273789344194
Tl 9.214280372291185 8.061725331508647 9.917047672927614
