9
Energy = -15.34624569 eV
Tl 10.092877253944256 7.394486980306698 4.684518942593006
Tl 7.620481331416723 5.21588977333508 6.077968860691192
Tl 9.380105409946832 9.99892185122995 7.384673989415654
Tl 9.391761044312844 6.908472407423895 8.148146652473951
Tl 7.056655724645155 8.357968627762853 6.0334302773633075
Tl 7.4772570578960975 10.305189065365976 9.66637306363811
Tl 5.571933167190832 5.130600710424033 8.239744551080651
Tl 7.356388482586642 7.063910140260402 10.206539838998726
Tl 5.203551319382791 8.404266423376173 8.27475806381938
