9
Energy = -15.45922466 eV
Tl 9.252829889884527 7.928061241899143 10.80141496001623
Tl 10.250534000636023 9.545476693045362 8.293870420363163
Tl 6.244116824759778 6.72919738169316 10.956963090213682
Tl 7.00585994089439 9.623889849680642 9.192396409993037
Tl 8.997831507985156 5.632778693353337 8.84855457839952
Tl 8.066661060804638 11.239812851600094 6.697531681241254
Tl 9.996339757818028 7.239824068012235 6.3665623312594795
Tl 6.701502436045976 7.351492125082503 7.317355918896969
Tl 8.010861045261791 8.920959356946538 4.716277319124678
