9
Energy = -15.00279104 eV
Tl 8.629099298272173 8.387922799428122 4.511606223614438
Tl 10.706970653630203 9.400785327539941 6.6900262976377265
Tl 8.154994421499268 7.229932166181412 7.223177985349597
Tl 5.75381492851149 6.7645383914928505 4.926081098127026
Tl 6.025594755153555 9.339840895138323 7.905355711888478
Tl 10.17273902795749 7.918589374259946 9.344109045804755
Tl 5.326176695715711 5.9787528756474195 8.053440361131521
Tl 7.516471462581889 9.18050350628111 10.521116633967514
Tl 7.522332820818742 5.911585204960855 10.267720896750868
