10
Energy = -68.34525651 eV
V 11.012738287448098 6.236774650695394 8.979130751632782
V 9.774646399307192 6.870758807083126 10.138006222053122
V 10.172123708754713 8.570034281613491 8.243027612162273
V 8.815199309046928 6.917164927189716 7.67881087854679
V 8.384844636053513 8.812572768284944 9.383748489886074
V 6.884793940406815 7.392556415426666 8.765100159923904
V 6.848231298047462 7.400817542800575 6.167824527723803
V 7.878365707475625 9.037936112384177 6.716481634077907
V 6.321683130134056 9.902932453423176 8.433356626257007
V 5.409780204902972 8.849075711426703 7.18391856741428
