10
Energy = -70.30766107 eV
V 10.052454495312626 8.448539551115573 9.113423342049114
V 6.527261476161562 8.089926524628082 9.158446431276225
V 8.111328812557558 10.031868027173617 9.15610177193966
V 8.469358378132693 6.506420104687921 9.115635385635533
V 9.643397523882426 9.390321146037206 7.412129064130967
V 9.369378798479406 6.909075580067267 7.390876872365013
V 7.162179558819508 9.664312921693536 7.449191251536509
V 6.887852730287492 7.182612748358282 7.427646219012407
V 8.2865527140139 8.277949698119306 10.47721030620068
V 8.269211512352808 8.277949698119308 6.078314355853757
