10
Energy = -67.86718078 eV
V 5.756126441821747 10.636877750813852 9.089365686575858
V 9.48804442323089 7.143651789608347 8.683003534866824
V 10.19956202117493 6.750786805232547 6.34645827403117
V 7.186729091129259 10.646391452417845 7.940758205250114
V 7.713921340990481 6.744413986354157 6.526724243051545
V 7.310809612253623 8.63278097467261 9.628180663193094
V 6.049808045176994 8.277491939514405 8.106951384988744
V 9.52449541320146 5.163847548710221 7.153058744984227
V 8.453092840326939 8.649998082727675 7.392231762417439
V 7.535255008640274 6.246911961374626 8.63551309552458
