10
Energy = -68.0855987 eV
V 6.113368217690741 11.005442111920933 8.302814194814784
V 9.519327749910744 10.033716603421967 8.720261308949231
V 8.153711257494077 10.551393422140544 7.124315559600232
V 9.184440968344285 8.156051834737545 7.538549566456661
V 10.222080336335134 5.8492045751549515 8.366049517982761
V 8.525833144889411 6.066766909467805 8.96025729887509
V 7.130681192967429 8.670402532240717 8.047377482586711
V 10.120803071320221 7.784793734501682 9.918974218733517
V 7.387069050209428 10.793888447473204 9.580066829614799
V 8.245894191714534 8.248861936907787 10.090791138385482
