10
Energy = -65.93172763 eV
V 6.817867522726098 9.699606172250512 7.62568035279163
V 6.457726493869188 8.328879684231554 8.697021149494985
V 6.6471675465409685 7.823523912433865 6.113429772014561
V 5.678030473050968 5.842653011899541 9.13147731268619
V 5.476205836984491 6.174873913732385 7.337746092550916
V 5.819736411441822 5.867998363282355 4.709269032053782
V 8.846426485296902 8.354291362275378 7.295248926181463
V 7.952002966335245 6.337543143423051 8.201467339032693
V 8.042702392450108 6.185521813782685 6.010823453108614
V 10.224791669279325 6.7749256593499885 7.257711981341207
