10
Energy = -68.25552354 eV
V 8.045342142501791 6.944048940580629 11.089277455542428
V 7.004454757606505 9.028913539284886 11.121928471007209
V 8.063884481034986 9.910053730922844 8.717907730447745
V 7.119395448885207 7.752925958463243 9.243756921702868
V 9.184991127576335 8.791342969977501 10.607388851456106
V 9.38651282297235 7.535447125283533 8.698518532910608
V 10.2957652549308 9.731658367063444 8.249578187062765
V 8.345884619978493 8.581067714241103 6.860911732592028
V 9.370506682796739 10.564368451420291 6.336850869492398
V 10.558932040574257 8.533446599410416 6.386497224312954
