10
Energy = -68.74634572 eV
V 8.290460697629394 9.298422489983293 6.631973840413215
V 7.286651867106465 7.774360053672514 8.426872588755025
V 6.642108023523046 9.783468166038515 8.634354976876283
V 10.415130508642688 8.99657030026617 10.68661504738283
V 7.885855384984921 8.653751942681481 10.620126107524813
V 11.029688088319661 9.908248065137325 9.272152185462936
V 8.581884218459553 10.242953475164919 8.917695791161572
V 10.029311324347983 9.61202105861361 6.901507256873356
V 8.93941910841711 6.864681025215129 10.218607012535728
V 9.70166050109513 7.823775784791679 8.61046038301059
