10
Energy = -70.30458763 eV
V 8.3534486347347 6.751402724636404 7.413905321769572
V 4.785133652543243 6.345590371365863 7.458090231450211
V 6.366672585360533 8.33230885305052 7.456463480325448
V 6.772439029820776 4.764659724136185 7.415278723953592
V 7.945903629176323 7.689809396315064 5.670505673549197
V 7.6688298254119855 5.164987930913779 5.649579556549318
V 5.421052107250975 7.966468886969876 5.7069430290893255
V 5.143852748797972 5.441955790038532 5.686331389533748
V 6.587258966813263 6.535514942984511 8.777706130040315
V 6.526302152967505 6.5781947124659155 4.336089796615671
