10
Energy = -67.45863983 eV
V 6.147590824577874 8.934425903991894 10.491017293343042
V 5.657774175137923 9.369240464358962 8.77284151433739
V 7.057751742297476 8.974257676597118 7.052525160946901
V 8.232117091186895 9.465865855472678 9.176410323716253
V 8.920474007058667 8.293564452132618 5.571791742707325
V 9.570444993858358 9.137862623566397 7.30977120994564
V 7.448122998326083 7.508739205969544 8.747466767389806
V 8.862452702970213 6.772948682184217 6.628108131963278
V 10.06400023169059 7.361058583961949 8.861125791952778
V 9.282833627345788 5.735161231994014 8.886728724658584
