10
Energy = -68.93106976 eV
V 8.93790318583699 7.229351269105645 6.128973847849122
V 8.694768854582748 7.910661213801309 7.795298326507988
V 7.228308831959873 5.86751272677873 7.580950711875222
V 7.04530153371859 5.8899000213962935 5.338864770963008
V 6.4896086193633655 8.131127454018587 6.386972747892476
V 4.900663024422908 6.96981017995084 4.799590470864978
V 6.178760898514132 7.6692160481027525 8.35326337590418
V 5.073113841950102 4.488124694251317 5.054534180391803
V 5.719558309109194 4.145490254898584 6.72692735797215
V 4.6385290124546845 6.415892895322142 6.713488308682667
