11
Energy = -76.67929818 eV
V 7.218314343374143 5.683786000405141 4.220221024600791
V 5.127431020018422 6.1888672202592625 3.332783256139555
V 5.149646387424922 4.257916037561821 4.489674546731094
V 5.817590279243915 7.687138654193336 4.841242291017606
V 3.790344955808985 6.253224462119321 5.225250882254753
V 6.792450118266222 4.475572009365009 6.092397940254502
V 7.597875887073318 6.933884051420151 5.9500256363954565
V 5.170834887723084 6.875055705785221 6.891826405923584
V 4.229324618435584 4.487205446863876 6.470167692943415
V 7.181569038386262 6.017928786161451 7.978111901998048
V 5.626421688555274 4.841224850175542 8.210101646051621
