11
Energy = -76.96382921 eV
V 8.780598806275213 8.44515404393215 8.149012652901561
V 10.638305428098022 8.325316436226 9.371207287492643
V 6.700067012533987 8.122631323643807 7.326944375098808
V 7.32688830141498 9.988283815969107 7.94050477117189
V 8.135825364980727 6.856846956310189 8.378172059430728
V 8.393787444293316 7.164629681611949 6.838873520804152
V 10.18174101452188 7.169120149341254 8.839954833858457
V 8.25647167261298 8.325316436226 10.16827273257414
V 8.438079244584973 9.789091985580718 9.54459873827562
V 6.823212568121954 8.649428456496477 8.937845400299407
V 7.865343872103947 8.704500444204314 6.044935357635434
