11
Energy = -76.40187778 eV
V 8.562045759489306 6.4008292922705365 6.88294434260221
V 7.565387506115952 4.9195451279986635 8.732378601232233
V 7.996435504593286 10.71541835506852 6.570545005625631
V 8.749138684679295 11.152325247311833 8.2085026243169
V 9.648488089142997 6.406853788586672 8.634271875265158
V 6.863951365120904 9.545400388044074 8.51938174942724
V 7.0254232584849605 8.21206999239728 6.867179947125342
V 6.2700999616524635 5.870507734813051 7.897543296547411
V 7.779790999532462 7.482934137808504 9.18681389096075
V 9.346239637245366 8.82777889387721 7.450377597040024
V 9.32702543690959 9.187276733701545 9.491763221431755
