11
Energy = -76.96101108 eV
V 7.218450762832561 6.888725739478519 6.08944184959285
V 9.072295547849043 6.770204910502116 7.803835085804732
V 4.645959345150491 6.070299799280595 5.269073583293179
V 5.269252260324128 8.43034114943786 5.886328005261963
V 6.076673764861039 4.794215578352079 6.814238804563968
V 6.838557951546877 5.101192838221119 4.7866637947844355
V 8.617584551880531 5.114571501596025 7.282288210547708
V 6.698150116761665 6.26366195387905 8.605162781385161
V 6.880897468701845 8.231315097547991 7.990530495398594
V 4.76868523929157 7.087208898159424 7.378167499553777
V 5.806962858276614 7.141732401022095 3.987739757289999
