11
Energy = -74.19400107 eV
V 8.03521211867563 9.587267511485159 9.474860151163481
V 7.7431270985754255 7.542796647307544 6.160806950344422
V 8.86061489987348 9.457384951224466 7.142695557475623
V 6.624277511216568 9.119201930556216 7.91150557037285
V 10.128556256799087 8.803390275033482 8.634674233223523
V 9.805426642538325 7.193938014778351 6.763394289538381
V 8.379236294724876 7.053999058418081 8.641573826740522
V 9.11790925069483 6.208325079358573 4.638305971138945
V 6.882132284875238 7.592585627145973 10.198299387663122
V 5.113675660120374 8.356904495869502 9.498972121827027
V 6.3171125854212296 6.646527751688165 8.05497279304827
