11
Energy = -75.52169086 eV
V 6.907926958010828 7.276271546326358 8.201343256724373
V 5.848017241743546 5.704072746236383 8.56998175188688
V 4.251276961044776 7.400521226088653 7.148929122825459
V 8.180268833268514 5.176975873187305 7.4341159970394335
V 8.710927414617965 6.654788922415593 6.37056211335484
V 6.186810396038749 6.181151513652642 6.182826430299454
V 4.491351539849102 7.107231828296964 4.521266576777832
V 3.8463929234947862 5.633614637089251 6.518684310213501
V 7.152270338798194 6.685169484561671 4.13069786473529
V 7.522251107842087 4.865354600257622 4.825423256913376
V 4.896059512065767 5.297452799787312 4.1206990093264
