11
Energy = -74.92200782 eV
V 9.730926548018703 7.11519290403075 5.389244374103577
V 9.481709199105559 8.771097824084077 9.027740286598807
V 8.82767606436891 9.025302480507731 6.7917549669144215
V 9.367649398264748 6.742071597228444 7.867252719382704
V 7.764948714746382 10.408024614325129 8.343961442120403
V 8.633157768474977 6.70579619205982 10.085092090186492
V 7.157097495687238 8.09930048059224 8.76455920503506
V 6.4918745069860755 9.118015517368796 6.66387893825612
V 7.357546864147134 6.9770294193776845 6.265412900866952
V 7.295856640700896 5.728620288827411 8.249223915065798
V 5.369752465363314 7.072524783646992 7.483738386621818
