11
Energy = -75.66806468 eV
V 8.249366803894576 10.445974000980947 9.963804401806454
V 10.165459624974359 10.204167131522956 11.467738746911404
V 7.867893440526757 8.193727494183845 10.2508644451807
V 10.773965125119808 10.674829936958112 9.827219383440251
V 8.877809797136074 10.096698993113012 8.204879700163847
V 11.04784163678646 8.824992404691029 7.893938713231909
V 9.732086158539925 8.58118082578766 6.531429457150966
V 9.156260834957028 7.2072017747249655 8.29440830967025
V 10.05792748015544 8.161959098312929 10.019274766945248
V 7.023917605831896 8.623579699231517 7.75040647333602
V 6.56437593142831 7.129901736343535 8.529726829679412
