11
Energy = -76.38086934 eV
V 8.863490567409562 8.103232863591014 6.692809477035346
V 8.47560713579179 6.252462120612737 4.8860265329942125
V 8.207538891198777 5.82646848589941 7.360592552939005
V 6.913131081317528 7.24433299899925 8.241561344460944
V 6.925956476884661 6.589290104471193 3.980327611754272
V 7.072739370989886 8.150906859803499 5.835448033167897
V 5.4341149832237665 5.17546783015012 8.61579917475219
V 6.371412440816916 5.484927880188399 6.240602131085395
V 4.9653702691421175 7.459953992801945 7.341504890961785
V 4.697489875855944 6.707190982219637 5.447475266810237
V 4.104134126501804 5.034883235483328 7.416061867508584
