11
Energy = -75.43467502 eV
V 5.495735136467107 5.985255321931397 5.847510947136217
V 6.344113164397104 8.291421628630642 7.7439642169836755
V 7.5450950474782035 5.440110021954851 4.816691653250283
V 6.230685415246816 5.712727821242535 8.363165686850593
V 7.104668633139742 7.9747926944564185 5.231485755479352
V 8.103687183179693 7.253653153874349 8.821403676587515
V 7.113634182507879 4.353024290855178 6.312244820164997
V 5.148749461931544 8.198660715953737 5.772214032019258
V 8.42291637550379 6.2660971984481595 6.866219262612343
V 4.60283617735622 6.744805713323216 7.770364476776961
V 8.570911118809041 8.462483218852109 7.137767368155847
