11
Energy = -76.13326782 eV
V 7.900507350879628 8.217263886033976 7.4056528831874795
V 7.91394397390389 5.750816159722342 7.779559921078224
V 4.4992906601615 4.570164487357632 6.994991635455664
V 5.118494744586401 6.733724598450313 5.7639040865452955
V 6.854186804333894 5.170575808289725 5.9711877505050595
V 6.762076360296231 8.628109597347859 5.212622015690296
V 8.654818640938226 7.105424159409523 5.817158656427069
V 5.816192307314986 3.955666982291035 8.035764160568132
V 5.7291454498810115 8.764861859876932 7.063925629569676
V 5.915033051262103 6.567618542374319 7.971688599556187
V 7.077122843556407 6.776586105961245 4.224356862368526
