11
Energy = -75.15956865 eV
V 9.023137733830884 5.295325219445524 8.112983552912274
V 5.38517997495979 5.317108664221778 5.380919410475894
V 7.855447492022431 5.298643424434313 6.504552945700383
V 6.834994911992092 7.057320765956974 5.304524870076966
V 8.42798604183762 9.096140395150769 5.645876840003971
V 7.569073168537159 5.659032985615253 9.126215372691957
V 5.660001084371068 6.018995855396363 7.592206131672732
V 5.180036564829681 7.824790263832101 6.48310486748091
V 7.799564033159994 7.680545757299377 7.59519468716661
V 6.858221419907389 9.635596791744819 6.232251505597822
V 6.234544281672329 7.954478141435701 8.853291388291769
