11
Energy = -75.01452156 eV
V 7.222918176833499 9.00221180092926 12.334319250429106
V 9.651078209237125 8.687688293164197 8.09366527905394
V 6.645828823490768 8.789448716041129 10.185225377712976
V 7.0731025910626935 7.839034514626026 7.547567048255491
V 8.539333142120807 7.390125422055106 9.360233416445729
V 7.794844945627826 8.942939038666973 6.158996207344149
V 7.8216519192252845 9.968471467375013 8.738627893977784
V 9.080010554034837 9.678462238763647 10.451856274153128
V 9.912902240401575 8.11503052055892 5.520985300551249
V 8.406369099667462 7.761825476545579 11.79352911700344
V 9.025129759313698 6.79812159964386 6.427877233017031
