12
Energy = -83.28941648 eV
V 4.826362862719246 5.578838891202572 6.9560518576953845
V 6.704537221687023 4.888428614605145 5.444944661018089
V 4.71981503361634 6.062479843646866 4.524401798639678
V 7.374210336474671 6.188439601459961 4.028404642312176
V 8.166689079134619 7.39678854403259 6.009306738316396
V 6.289192173018512 8.086763172676847 7.521040846746182
V 5.618755459191961 6.786839753948509 8.937679101045271
V 8.273842752730847 6.912507540292598 8.441055763166892
V 5.743891902088681 7.665877852547023 5.10646744138834
V 4.003272135725931 7.387518402486243 6.853204331326075
V 8.990349929079795 5.588781686987615 6.1112706838293365
V 7.249689996276007 5.309346999924364 7.858459365600593
