12
Energy = -81.74465437 eV
V 9.01191866711439 8.146099045647773 9.075337462431591
V 7.308331604577287 6.319928876205915 7.4358916118433225
V 7.219871215689066 9.661609628678324 8.575122835994707
V 9.790064724700192 6.0206374687147255 7.879290864463187
V 6.434017856205405 7.7343177423623795 9.411716497990463
V 10.357871751138632 8.209003094061485 7.282321564407244
V 8.132920446234099 5.993305103248183 9.471744660356997
V 7.088001544683499 7.3334858113504895 5.477179565697671
V 8.324829559229283 8.994622136102569 6.603133148253135
V 9.275494843389781 6.71459172937501 5.88693717063247
V 4.607133824843396 9.531504053550286 9.176981454190166
V 5.8460463030068714 8.443534542067985 7.24709450863831
