12
Energy = -82.81852046 eV
V 7.456452156365525 3.5670030490526234 8.412311477356495
V 8.393932369878007 5.882243526028824 7.513869333911013
V 9.500475474475484 10.863288115084385 6.086447922978646
V 7.704480676189711 10.566858938066636 6.217104286752853
V 7.618806095245604 4.807017590586426 9.73607418630992
V 8.957847726311465 8.332740461805777 6.599982742938213
V 8.750613810878876 7.536860471029078 8.828159662183587
V 8.925584410266366 10.197689557809628 8.377279479995451
V 5.911321545016427 5.416213142426795 8.000093107457182
V 6.948655590891079 7.600859967094789 6.75796822874893
V 7.16220927219184 9.418506726712804 8.324395531133716
V 6.448646655176802 6.888295836680078 9.122054759602797
