12
Energy = -82.53223529 eV
V 8.107412740821934 11.96956123387467 7.641525166906157
V 6.879403143320482 7.4990308871558975 6.758211278992061
V 7.889244545421274 10.4133923176141 9.9006863828245
V 8.091482704796674 9.443331411943308 7.526080473013166
V 9.695195560675641 11.36385024662223 8.071051355500181
V 9.984893552267444 9.237632860404464 9.366030444431479
V 7.314602529945976 8.303238442794298 9.448142170117492
V 10.999335734923173 7.3759922969747 8.81812527325594
V 8.730098125527224 8.732632225389859 11.480810640942146
V 8.795235927023782 6.9901190907395545 8.188154285553926
V 9.996371967683295 8.558068956754868 6.955736920703976
V 9.413497382755766 7.196463973870911 10.723959266623524
