12
Energy = -83.60189933 eV
V 4.979298549764959 7.329102248510067 2.497039893747379
V 4.4488226096547 5.561129909782702 2.344531313657588
V 6.616001595604927 5.960066968245514 3.617436555671898
V 3.9435737790762935 6.496342064158471 4.615702837258416
V 3.3134833652785094 4.614695436572135 4.626463652367407
V 5.685088570561049 4.378297553072732 4.2121658228322225
V 7.068476153776637 4.793466059816319 6.315997744128708
V 5.387335878026943 3.3002826235261438 6.535585845401701
V 6.065063143557513 6.727409300769432 5.927055614442225
V 4.614733616602118 5.244991116750826 6.806874645396078
V 6.163290076040561 4.305043886387492 8.741082070941463
V 6.468762887832742 6.043103058184975 8.513994229931596
