12
Energy = -84.4984417 eV
V 6.810223797060222 8.583995450159922 8.049384707410118
V 6.667182840387797 4.895867876163321 5.431811057748078
V 4.885004608675863 8.07111738506805 6.7979646629164785
V 6.848337583496667 8.73328634359958 5.6718729922665885
V 8.010967556182743 6.570031747377959 8.543964952161074
V 5.449023440476095 6.682666579133695 8.531408295499979
V 8.030341008892798 6.785450724780376 4.94788318564671
V 4.770828171137997 5.591621802397588 6.635183119598033
V 5.47023570212916 6.922276014427212 4.936898644451684
V 8.709498587830756 7.889547907607161 6.836161360789137
V 8.5956058208414 5.409203599097537 6.690717844621213
V 6.634916396495183 4.747100278783083 7.808915177970012
