12
Energy = -83.36891805 eV
V 6.4647962931508145 7.522867055974061 8.444794910844081
V 8.508192780551619 6.663241934539931 7.296908309683948
V 7.355906019542177 5.440770845487308 9.031765849503659
V 6.762206836956724 7.716734936662652 5.976044130700181
V 4.949524166481076 6.090510418156926 8.83009170671262
V 4.591638107080495 7.128211523544283 6.5959193726750085
V 6.19723751657862 5.2033950772177935 6.9794067012954
V 4.994472971453444 8.210186253879286 4.236904854387427
V 8.541809067130956 4.583756815365202 6.983317984533934
V 7.637507221379447 5.809163194397613 4.987953801551044
V 5.272963581920112 5.755479069764069 4.891496877601128
V 6.444744403961624 7.506470296608294 3.434098621961936
