12
Energy = -84.04072172 eV
V 5.563536686983093 4.239342572158227 4.179208330553376
V 3.2155203225679356 4.471958332833882 4.495701214590148
V 6.204937840997447 6.58238131865954 4.570784157951903
V 8.064855125000465 4.8447664014329765 3.842662402848698
V 4.116269468441491 6.361250978428656 4.021890530071524
V 8.671454811737275 5.907581532126082 5.170623200824451
V 4.322147039982964 3.7096103453555997 6.391205314144825
V 2.964496746960723 5.844175470198044 6.195365794248882
V 6.672355115350529 4.469808968654537 6.043245031057535
V 4.395522968677444 7.327628632515322 6.224897528926227
V 6.553200711984114 6.5773558783247426 6.795545325185122
V 4.819983340414845 5.228419748411152 7.6331513486957805
