12
Energy = -83.094258 eV
V 6.166940787377055 6.429955658924748 4.5326730823590715
V 8.681119159266263 6.458857357843399 4.470019254765978
V 7.611482891054273 7.506026245794663 6.596172530217999
V 5.026075159001557 7.263790809671337 9.17806351040544
V 6.172253352649524 5.063122877510696 9.137115770071116
V 8.098381491572345 4.78500345622007 4.243557149589851
V 7.6373770061800155 5.3681698312829855 6.7015209146322885
V 6.734504739290579 8.290478621869457 4.469015881106212
V 5.014415262557676 7.858657253070346 6.41292677898361
V 6.263936990666148 8.56545535982681 8.48869688444895
V 7.413475652069238 6.525394003744521 8.97537082524542
V 5.352953343421767 6.058004359347396 6.96778325328049
