12
Energy = -83.1041711 eV
V 10.037262538551179 7.859758096494092 7.615984995008361
V 8.145451166629453 9.277342046424685 10.65570801714966
V 6.967369845941241 10.273965580153902 7.214332724347177
V 8.439157382741886 7.494970963006313 9.442461743675697
V 8.70798312974296 10.41487532289167 8.49333198187243
V 9.525561786363358 7.338597856360977 11.685079661677314
V 8.816164423550441 9.446757890731567 6.076405483912897
V 6.527003957986147 9.061725496254505 8.832153761482767
V 10.759009297688557 9.736004409818497 7.33759358786036
V 7.664793046998794 7.942114006450767 7.045903655915351
V 10.32290790375783 8.932899834624713 9.747774237215749
V 10.128370856803944 8.897013685537361 12.38127445882711
