12
Energy = -83.46205842 eV
V 7.433321604369772 8.534868477958002 9.956809476337751
V 9.853676110356535 9.421978083752993 10.019415130615053
V 7.780234429994033 10.998075260514808 9.450894039984757
V 9.109140381129682 7.114363703604617 10.248878711346565
V 9.308246941372543 11.61422880923775 8.828614632843207
V 10.452968583561256 7.314092044609794 8.562135128828542
V 8.087297175289843 6.5116302757879 8.367569804929927
V 10.651669078133192 9.538452193702783 7.956709094578171
V 6.271089431914424 8.214777940467723 7.565226918193468
V 9.233818635132709 7.483037950305874 6.687860627676007
V 8.44905161842092 9.219847604251596 7.796786766234277
V 5.62657732469013 7.144666029832605 8.797567279344314
