12
Energy = -83.51261151 eV
V 5.359897346894373 6.766039444960154 9.06360852270847
V 6.645696134453675 8.524677816760425 9.167777686385087
V 10.858708164762668 7.933240607967482 7.415863281719538
V 8.420904647979675 10.498981669135226 8.663984494835258
V 9.266940622800687 9.654107111964182 6.455492037205239
V 10.261622546630935 10.227505263363707 8.522369771459413
V 7.485776220803018 9.093364900612949 6.680588885581019
V 6.958528105023571 6.684306548458699 7.307692826674151
V 7.696418760593936 5.920410120404422 8.982264942970788
V 8.799664357643081 8.095155605997197 8.850331198606067
V 9.376394051097403 7.104719777512475 6.659292644678153
V 6.753537208135171 6.838186186186631 10.743774618089558
