12
Energy = -84.12157868 eV
V 5.397830559405554 6.459154412046011 4.493471732382387
V 6.3675147220936585 4.7670100814744645 6.807696746434613
V 5.4518553479920815 6.437348089441569 9.159532863794471
V 7.570999229115921 5.457641510649381 4.779122328281868
V 8.657629929468268 6.4603698025952925 6.799061762222813
V 7.605556166388057 5.4429640906219126 8.829215983884106
V 5.557284449781503 8.346645778398335 5.006749327450294
V 6.129289642528044 6.775234667062667 6.821438836666331
V 5.6061158133121545 8.338415402151675 8.650399536297872
V 7.71722382898264 7.413300459992363 4.594387916886518
V 7.953573514666933 8.468570501072575 6.808624871227413
V 7.758166007792954 7.406384474268681 9.023337247751519
