12
Energy = -83.54948166 eV
V 9.120842555348569 8.288893813238163 6.802417999950306
V 9.023818506102 5.791045018275409 6.3151286652294765
V 7.195338985540391 7.572628950414804 6.398738301328701
V 7.155896918845583 10.098595816464126 6.12030689680329
V 5.481820429055115 9.118493413173807 7.653802199364356
V 6.3764124938630555 6.707016075792549 8.514891229662556
V 7.299106979155451 5.079837825823522 6.682576259053889
V 10.072465725025094 6.480480533107733 8.41413045692184
V 7.669137095700543 10.274403332506035 7.9246321107821265
V 5.9831258418718365 9.292343159647984 9.46241884146602
V 8.55965476711863 5.389514006059832 8.746934353562931
V 8.03724102939725 7.881609382519816 8.938884012898264
