12
Energy = -83.52503284 eV
V 7.478063286591747 7.254086798146075 11.504901472034554
V 10.114940512082944 9.967357943144759 7.819227933303565
V 8.803710589392532 7.724469074871454 7.930976904007728
V 7.757832877521235 10.143146101058047 7.903736303877458
V 9.068659164022481 7.10709986534663 9.987153751102737
V 6.732919624166086 8.407739904603131 9.566598013446114
V 7.139278435188987 6.991561626695372 6.1378118818191485
V 8.841229366675757 9.353377045017824 10.023492537439012
V 8.318256407783073 8.621379478608663 5.922735880765786
V 6.876032380787252 6.502124548180593 8.598617877703433
V 6.222609033187138 8.61894416428555 7.248071551073413
V 10.994162732326885 8.745850665220916 8.858455083462914
