13
Energy = -90.30617223 eV
V 7.449153833504375 7.073650237394693 4.493895316507808
V 9.170141264546867 5.840802555086284 5.785650138769831
V 7.042278081162752 4.841162824502636 5.658416000192522
V 8.153532812686038 4.348969333557931 7.5766905212674
V 6.640294869454345 8.741782524822819 6.114764480820278
V 9.005421170265945 8.169153535550354 5.569472013135925
V 7.717996949767596 6.873992873212791 7.245786109963129
V 5.417819297566301 6.663643793623959 5.805211160948891
V 4.7899398030199025 4.2518735560312875 6.5051165958813515
V 4.250140895961837 8.611871358955552 6.8162726171599
V 5.962119492390153 5.391980743948191 8.082633030505388
V 5.7458938948395835 7.924366838434896 8.255348845874082
V 3.9136961666267736 6.415285283587633 7.530067775966481
