13
Energy = -91.24666299 eV
V 5.012225958751522 6.782383102073706 6.7173482651459855
V 6.992068107039473 6.24155945264059 6.722894027876937
V 5.60540367750228 4.701827318632192 8.334078129585484
V 6.607853970701112 8.423174535582685 5.346164536670142
V 3.8550630187911037 4.786507673493821 8.057966818355053
V 7.540829853931536 4.383724602052448 5.630707844001307
V 8.100659620404231 7.579203459721639 4.857635998717853
V 3.055670594590196 5.00257713481199 5.6808966168246195
V 5.244356700586937 4.377968912220877 5.909668984445382
V 6.135815989676321 6.213573423787349 4.183403615707392
V 4.103306397995208 6.507184069602389 4.450980518920454
V 4.571467943426642 4.207529905998206 3.561689353590875
V 6.414454720462527 3.850976263430528 3.6967262033341166
