13
Energy = -90.954273 eV
V 5.627298670841587 8.810838150238988 7.062284960778902
V 5.627291990159916 3.47913538300939 7.062286074225887
V 5.368252044305365 6.144989550241596 6.837160334450382
V 7.276486936727068 4.808035324491229 5.7525242358024276
V 7.276490277067904 7.481929301181634 5.752517555120757
V 4.517894419205552 4.7213645038252245 5.250964223450761
V 4.517899986440238 7.568610142870023 5.250970904132434
V 6.605641744716575 4.575311479087613 8.219102598458383
V 6.605646198504272 7.714630877646501 8.219097031223697
V 5.977290384485208 6.144990663688459 4.159972063042764
V 6.158578794908019 8.89206899031159 4.484577427585595
V 6.158575454567182 3.3979078832776226 4.484570746903922
V 8.167431288903149 6.144966167855744 7.3487503759968815
