13
Energy = -90.59735353 eV
V 6.4742814865618 4.514230208229057 4.844615267693274
V 4.776874883070341 6.719417199167845 3.911314765457029
V 8.99438404036692 5.479624494651583 5.956387362112002
V 4.949420775287603 5.739182413105817 6.336033961908884
V 3.4235236754866922 7.002976494812287 5.017872437093823
V 4.79432134656427 7.046723165653438 8.41950859669061
V 6.883263526464589 4.373022761168921 6.991597010953465
V 9.180527503087863 4.337813433581317 7.298316363968723
V 7.070875166506572 6.501880266055888 4.997327771125664
V 5.602893532291416 7.983196490663165 6.156565762742736
V 7.244229342119054 6.48735528118258 7.766178725345536
V 5.804629175706247 8.54324858480487 8.52011742590209
V 7.808365365961204 8.267589518110425 6.793251787506649
