13
Energy = -91.68686376 eV
V 8.421765675978849 10.78613971167872 6.007210676844251
V 8.144209395984744 11.014764356535899 7.735341152520231
V 9.932947820533531 9.254141946696144 7.035989161791982
V 8.420148666985401 10.315768342888623 10.457621643208643
V 7.522201767764813 8.649348766581612 6.329038430849774
V 10.081347137354506 9.95411589363596 9.389743072976687
V 7.84738114545459 8.748432611071904 8.736891439176766
V 6.660690031681785 6.8969481278215685 8.398438037189413
V 8.910029605946397 7.106333846482727 6.923749658532017
V 10.247145647237675 7.568899638811063 8.682822760242418
V 7.277266315671181 8.143392043224518 10.944132811801245
V 9.28801334249949 7.991150584754439 10.893768773998652
V 8.268315742922733 6.2508607201476 9.351663121398296
