13
Energy = -92.32651242 eV
V 7.662539326884545 8.089638426837062 6.098539611475078
V 6.828568858739469 6.642475301813891 8.032053130234766
V 6.007680772536333 8.48110986811383 7.911055508285978
V 9.849112009648094 9.006644371412134 6.811189321074529
V 11.084874549166361 8.590549257697699 8.942914973667902
V 8.945045034560517 9.428500856015662 10.710446746356668
V 8.503185007278907 8.093841663540278 8.703593978421397
V 6.974174505032499 10.18712340712958 9.459471392935315
V 9.012455384229499 6.651778346865252 6.555801491925604
V 6.800101523426897 8.299941001482539 10.370622997075902
V 10.624658451986374 6.943413531680576 8.334847609414078
V 7.867325801325196 10.138991403262374 7.176355492163266
V 9.446374219050584 10.49194095632121 9.070285979534392
