13
Energy = -88.5598831 eV
V 9.366613856007769 4.780051077586218 7.6711522767576925
V 8.031853554471555 5.532764902497602 5.601622396559309
V 8.168116024065718 5.937403837482133 8.266917793687027
V 6.957972415215984 7.32517766367893 3.779602766147213
V 7.147280538171664 3.9301561567579077 6.56432663965009
V 7.175820289484234 7.592947455027444 6.233994266895631
V 5.609038056069782 7.910691308743479 7.4501903548308555
V 5.887745588615585 5.611669778316399 7.416889448201967
V 5.121204526545191 8.037925735724405 4.8457276894154555
V 5.7541934954902905 5.537560018839876 4.75831174837702
V 4.56351944400285 3.844241168196791 6.043418309855419
V 3.3836643910461754 8.734120409369968 6.5175003308548805
V 4.019882025774982 6.409856564697387 6.015006833612398
