13
Energy = -90.73763331 eV
V 11.636438961003075 6.096929604152103 8.918052406710663
V 8.787754269763383 8.60104094452525 7.971929611572964
V 10.304975433851324 9.47203309372762 9.62461768510835
V 6.687963896635075 8.639738121282537 7.203514220245935
V 6.808494049837522 7.692054268214796 9.373195501813862
V 9.74391978528623 10.768029507457177 7.547893171845083
V 9.357868089159453 6.811194565732201 9.677539908685302
V 8.369409467538189 10.960825062795019 9.57123927060082
V 8.10857672817165 8.679090656433516 10.621571562432235
V 7.902601535305265 10.737688969253938 7.0339942584045145
V 6.587967855594042 10.071022983831783 9.065485104528754
V 10.718081418984127 7.496315101243895 10.970760132343315
V 11.526630486490642 7.863297773774181 8.484951738286581
