13
Energy = -89.78879156 eV
V 7.175579237467816 7.208158093651159 4.997406688916868
V 8.888235114257563 5.87515088827122 8.190321209248665
V 6.601813844925847 4.838859106982188 8.391968597750209
V 7.426665866341451 8.931765331821978 6.600067061556829
V 5.2905121581836205 7.391650278404567 6.229462171222093
V 5.678999666295306 8.778323507700158 8.171140572826333
V 5.130647949028017 5.342631493236173 4.61014365726561
V 9.10684420344509 7.084697940227667 6.824065600052531
V 4.628053137158442 4.638897805149878 6.126480103906011
V 9.077042355484108 8.859916451465613 4.813856828242429
V 7.185188203706906 7.490486499297618 8.590465905916464
V 5.039873931568251 6.251079143164729 8.165541189846907
V 6.990255622615024 5.53515463668863 6.508801063530795
