13
Energy = -92.67595355 eV
V 7.64534863126175 8.733069554257199 10.283922855724441
V 7.5363990928977325 9.039248908455743 6.692917197499018
V 7.5625243037445715 10.233329409604643 8.369560596152251
V 8.509291357690445 8.152954783840393 8.2819710463067
V 9.565412988584573 9.920306746323275 9.4037092744064
V 6.074908995260053 8.576225187859338 8.422043419120602
V 6.6937621947476265 7.025076170146421 7.708113903013178
V 9.605478192293349 7.996224477651121 10.535683294435739
V 9.837589061188096 8.576225187859338 6.343062113215004
V 10.817052203534642 8.615415340743526 8.427937152630037
V 9.476367609235275 10.2664756943486 7.24390983922523
V 9.831697979035395 6.596981166147314 9.217007526316284
V 7.597756708948024 7.022055691184692 9.823750100376833
