13
Energy = -91.4839161 eV
V 7.84613418381253 8.013533990456857 6.507422125579331
V 7.400369041672083 7.006903529060641 8.82732278066391
V 8.520530128045655 7.561384868047122 10.476987890656163
V 8.782546734660484 9.832770215712225 6.4743438824649795
V 6.015595553204794 7.552748675248616 10.957760618466061
V 9.785172181061595 8.145775278748545 4.815372407477566
V 9.745989683589704 6.610825423404525 7.964324627816796
V 8.941957416641293 8.979151407026603 8.621614157976143
V 6.869939140899956 9.53129452754931 10.032291108257077
V 9.48454478046565 6.434354271077463 5.5577651649575825
V 5.122554981811223 7.925809513879103 9.338050014832426
V 6.422905513435009 9.44247921513222 8.060760706482176
V 10.681339652568525 8.065550049791858 6.986867343711174
