13
Energy = -91.48318871 eV
V 9.68565748231911 6.543815671518877 7.072081936899968
V 9.717156400163917 5.465086749480372 5.653652293145177
V 8.012683600383658 7.4017339539852 5.258081502072535
V 7.316606190872543 7.725816704334828 7.237969852091554
V 7.397702435784121 5.36550698740232 6.818969898055357
V 7.310228016466864 5.502633406208863 4.477371562696124
V 5.567238698587125 6.8809123372710275 5.650863744631854
V 5.402619262313493 4.338909806207083 5.895807956762411
V 5.43269370468634 6.082618412985309 8.082749144572665
V 4.295053554867743 7.673503869200187 7.464495677745687
V 4.255046751249777 5.298590170457031 4.50324177915144
V 2.9130333892641236 6.905439982302497 5.674967026567193
V 3.4354335060222425 5.411903537487502 6.858996215944604
