13
Energy = -89.98474607 eV
V 8.11818159182838 8.357895108180724 6.097833840025251
V 8.2107023955521 6.141648426195463 5.084909902611536
V 6.411763227178848 10.075804369626926 6.238036021012525
V 5.507600235541911 8.247249767531578 7.387839655256346
V 6.1683766472461175 7.461848922953935 5.325691650549251
V 9.86312153661393 7.180510693121275 7.543128160299229
V 7.714007726219633 8.778620820276073 8.421261869961194
V 7.447202405751314 6.357575864801084 7.403372912779624
V 9.987286211099114 8.84135500516511 9.401692017383183
V 5.117003589239026 6.027940952769281 7.074189115057458
V 9.234235365279575 6.4813539553444794 9.21986749447437
V 6.699736840205366 7.138495045604966 9.385214923503492
V 8.814494123835454 8.267597452232511 10.744180185472393
