14
Energy = -98.79099564 eV
V 6.670525770911224 5.00158658130988 3.4817739699686285
V 5.036677154708452 6.626166409692457 4.035949693415205
V 2.8601622373810835 6.124652765661918 3.020659133746913
V 4.552225799502147 4.119808180249364 3.7899119077583587
V 6.5306648317106095 3.100455825258866 4.865270994311794
V 2.423706806467101 7.168845861999307 4.378492120035974
V 6.9553116169816125 6.872604177669728 5.14443166031325
V 3.4107624925893925 4.998601437852709 5.317216140700736
V 4.742405074697726 3.097987779376412 6.159551673474569
V 7.965641182992876 4.826384812611866 5.496210167353395
V 6.733118264185221 3.8971512243778124 7.202405527764507
V 4.5940342312865905 6.878834788885145 6.238329976325471
V 6.731914107585057 6.161644024968512 7.17704530868882
V 4.582226090091793 4.9146517911774925 7.482127387233689
