14
Energy = -97.93410684 eV
V 6.353969838707189 6.45645625183768 10.093139408774416
V 10.217203079408161 8.909155052613354 7.833987680659925
V 6.7609628238739985 6.063408321078707 6.626026512698502
V 8.591076413401266 9.20128042873135 5.659542102199043
V 10.779689383609377 8.765252614343144 5.7053876872570495
V 10.024415130501504 10.718008856398582 6.514197907372273
V 8.1242858496985 7.937196186564933 9.323383154783194
V 8.71603304899697 7.214370501285287 6.955277900042989
V 7.863264581887389 9.608070560233031 7.965765252012512
V 4.862267183990063 6.88823533881773 8.128626411111078
V 5.979544626818288 4.97224498920678 8.435602313265237
V 5.6722475879123 8.380026983902367 9.479186677942003
V 6.330821529096974 8.333192108589394 7.026289486869284
V 8.220729081805855 5.690078712392202 8.592221467681556
