14
Energy = -99.04659542 eV
V 8.939005674155855 4.32181368968999 7.7023046539702475
V 9.274067573738614 4.643936105847578 5.8996221050243225
V 8.126438391215565 6.537939862379875 7.200796299031626
V 6.463540736000824 4.63397208449322 8.071644292475778
V 6.895846648689574 4.14019403956254 6.259310686323601
V 7.153885181656137 8.614575829047274 6.382141799188098
V 7.808591748406499 6.537187679721287 5.0210663544575596
V 6.020137588781227 7.294546696853313 8.594685672157215
V 5.7274867641079314 6.303646597748235 6.294821413687705
V 5.417512214826354 6.1183665191930645 4.043885651785068
V 4.2798968890932825 6.619923406511833 8.178895354335175
V 4.797270835045186 8.771585980842387 6.836484880907953
V 6.051793866429859 8.371620906965303 4.644105611114863
V 3.785969879581316 7.692394622419886 5.611904393870383
