14
Energy = -98.6786224 eV
V 8.171804810002545 7.354763639683955 8.139370184023445
V 6.154089342737179 5.866366877441616 8.52539374000954
V 7.606337508235447 5.123893043161285 7.087636077062014
V 6.657163737878456 8.037175115906274 8.94097459777902
V 9.01053366392694 6.774370817104344 5.700859622879562
V 9.03322507552721 5.086561401569649 5.109748825349239
V 6.582195618999435 4.071646977481964 4.8342330316638655
V 5.177593817813464 5.295857798608425 6.343308035030249
V 4.2759497340753345 5.434376605436613 4.20082817001099
V 6.788567221001005 6.131761614066171 4.485741294455306
V 6.4828325402875135 7.591953284204073 6.368734890214228
V 4.5243866123580565 7.432613435898424 7.385796038469622
V 4.546446440392406 7.445162380020986 4.756466017318527
V 2.9508006433798335 6.2819561953328495 6.102378194449893
