14
Energy = -97.76020164 eV
V 8.21827986087843 4.2464927719264844 5.4410830646143005
V 6.922196486892824 6.249012471348207 5.192214901293767
V 7.469714973990162 8.264648451223595 6.260562510482329
V 8.854140556195611 6.291844888918133 7.003121906210062
V 7.43522150250454 4.488403525379847 7.343484641061306
V 5.52312782350948 9.10456806648318 5.105369402277315
V 9.566398743570518 7.098410824251636 9.324506803467157
V 8.362062404429201 5.832995020389433 9.452724371784322
V 5.598361678345193 4.852498772011018 5.959236013913255
V 6.465645808882361 10.30367612985274 7.156428790839595
V 7.38859721816217 8.141300435566903 8.522947567592883
V 6.169966132854836 6.558281283017225 7.76963295646816
V 5.109417856929036 8.967604992399615 7.597953489663567
V 4.757603715967483 7.491506693796867 5.764170246251945
