14
Energy = -98.20679942 eV
V 7.698072421962618 8.4361263498818 8.047191029288632
V 6.205263865546114 5.371316431788969 8.373440784792605
V 6.695166532082128 9.852313178516718 8.193737679664862
V 7.165228454272545 6.4783318463867055 6.6439113586828435
V 8.659594084337519 4.72329152272728 7.762082177582128
V 5.171470175844973 7.695137069112314 7.54944349982561
V 8.988399000941161 5.04060180708151 5.926493300336591
V 3.611257681394422 7.6909218882004255 5.890753439114101
V 6.049346990203558 8.813902916289942 5.943082027436041
V 6.906917863329665 3.725680431396004 6.4989048385599055
V 6.8029196924288 4.630564982201612 4.770499041846845
V 7.601260950796578 7.28874503644239 4.673542281934278
V 4.878747253011053 5.280649032575012 6.641801477006667
V 5.295751614906648 6.704656958688709 4.82993546884679
