14
Energy = -98.64708647 eV
V 11.96382112891644 8.70838943780558 9.473670210471145
V 8.200647567139264 9.314391411353888 8.573609422356242
V 7.282737375524847 10.288635338480137 10.705073344951355
V 9.701112055299074 7.733694285419858 9.495372754154548
V 9.754405890334896 9.654555084476542 10.580049691093361
V 8.583754263071937 9.210454811678561 6.137914331835455
V 5.971877764116378 8.639135809966332 9.26875088371941
V 8.455237067803466 6.938018000247237 7.126765100290621
V 6.701543848902341 7.917026416554919 6.972572717593508
V 7.1510751598577444 6.957256473226533 9.275785341588545
V 12.200945741794403 10.444916952007697 9.85033475961854
V 10.34971328627229 8.256702153940827 7.128909319319536
V 10.312362708482283 10.208079466886947 8.157526724662624
V 7.622714479428644 8.422295385373417 11.14489819573838
