14
Energy = -100.07010084 eV
V 8.563775364117527 5.1438988276878765 5.665773651078628
V 7.824158655081483 5.165984971622016 8.122354971244473
V 8.315020511547447 7.626451430084527 5.0978225363666985
V 6.835816684640177 6.095743182244515 4.413787777519056
V 9.473053175956725 6.549756290094087 6.89811837904567
V 6.610602952950943 6.797936914980793 6.664281712124067
V 8.082488920471636 8.02193450143959 7.943469173912884
V 5.442859059863127 8.971417105165546 7.895807480902678
V 7.065555899181715 9.450676034479295 6.27283235061082
V 6.632088465278298 4.266219225134865 6.624636842122434
V 5.61698944130695 8.417080731981939 5.349628862476088
V 6.170643109192359 6.883512369382825 9.254934938322391
V 5.264799419659737 5.367332804608145 8.399140497838093
V 4.312893675340971 7.452800887435571 7.608156102777615
