14
Energy = -100.80674341 eV
V 8.598651589160184 8.540399753672887 5.401881144907117
V 9.427937906437018 6.481166110154245 6.714565656647904
V 7.161561144612797 6.536583633539607 6.0703788347901115
V 7.515329574346576 8.221997931102324 7.58421797709993
V 8.637582954238246 10.116339714286287 6.480471549341262
V 10.309173300979692 8.38582494687182 7.254013886191266
V 7.714295538340291 5.544975764006947 8.149061428522758
V 5.505005116951517 6.843182739377436 7.952641118090349
V 7.246664836990418 10.259965261057514 8.604865774937094
V 5.537180217896442 8.435514150203169 9.031746895677149
V 9.5019974076577 9.605645605831247 8.852006340447709
V 7.0983995710857135 6.652568003709821 9.903038695550302
V 9.387711317770878 7.118595442525082 9.142900822946341
V 7.774986404885774 8.67371782501489 10.274686756204206
