14
Energy = -98.41564827 eV
V 6.782309125483106 4.755484201879201 6.66839545696034
V 7.393428642607369 11.10635745017985 8.387034554719081
V 8.47585728313956 8.928647002252717 8.602893014321984
V 10.690372549871048 7.659097528103921 7.416968553179644
V 6.6974905982165955 9.565890321023016 6.6184882939635425
V 6.840030367725681 7.1713576113332635 7.545835987368817
V 9.075453449621925 5.678448442975633 6.648119844321616
V 8.77974706065592 8.130757334652905 6.298441385446033
V 7.063660703479661 7.7153024158652554 9.775568739268763
V 7.4376767187224555 6.635765146555703 5.25428701606327
V 6.8882367789747185 10.330912270219468 10.083606639407995
V 9.138160083637676 6.5474395952465585 8.747327766635543
V 5.671994574062249 9.311988478039913 8.290621435779963
V 7.399490330003469 4.881889663819324 8.451917679036871
