15
Energy = -106.10099089 eV
V 8.00340596641047 8.420847920780757 6.594126481854711
V 10.370070216273213 9.06303447180962 6.615799766678288
V 8.626472124569135 6.196165717644214 6.259855114661456
V 5.934676321095405 7.513891477495053 7.29203691627181
V 6.392406928352491 10.149332489580688 7.372496029971869
V 8.767139524502115 10.945125839427053 6.439118866206423
V 6.443823445300567 5.006572215597665 7.105375923536016
V 8.948422373483453 4.824451964167415 7.565165109894073
V 8.835128552567813 10.397688521408904 8.233422377199279
V 5.578957334866028 9.53529282599095 8.991144731272492
V 10.088644707955028 8.004445720757733 8.064910917083317
V 7.51153899501257 8.622035722851297 9.26193000091495
V 5.694313094077245 6.58044138390221 8.977423917268254
V 6.867993569607846 4.2717708874977305 8.78424870477686
V 8.143236319263703 6.675132314425436 8.649174615747322
