15
Energy = -108.48635998 eV
V 7.172815361043786 7.748010166537253 5.730165972099856
V 9.702267518127378 7.521270323576681 5.94706210342124
V 7.758401954727384 5.912189405489938 6.6349114207954765
V 8.274949906686457 9.626362709919201 6.4621232953216055
V 5.9192379099607155 9.008068237029544 7.3992242067866325
V 5.888836700512966 6.810082091993014 7.737664907879161
V 10.599585884400346 8.590862756495474 7.110496472855622
V 7.104404264681151 10.269217593344509 8.648233161643203
V 9.311400885448643 10.334478714316266 8.387470655119461
V 8.379291521035626 7.796948930812545 8.113236562093519
V 6.498539346316694 7.948886397111666 9.656959642478459
V 7.596159889568448 5.599910210549846 9.166043593212969
V 10.201621932145908 8.516595483339497 9.614337281725712
V 8.335920077412965 9.110476411848957 10.4157011115952
V 8.602059637987738 6.552133357692153 10.321862403028296
