15
Energy = -106.23776392 eV
V 9.175081313833044 6.798150933599351 6.851937536493294
V 7.375020941274431 6.734699794963155 8.62250658596236
V 8.024011833329808 5.002381170903227 7.901006004270794
V 8.09668318960925 8.544828156538147 7.098861819137312
V 8.165870132597782 5.581321928338574 5.045414987516249
V 5.305956701322671 4.906507928671542 8.223600825547003
V 7.935487429550856 7.853383004045343 4.913117641213172
V 6.52411732972796 6.402103564651348 6.3735580393773335
V 5.701795907273628 8.595253759031381 5.8959556533668795
V 5.829841488518349 4.018659231600812 6.420859466932396
V 5.398310720497393 7.194698447631365 4.269459117163114
V 5.297302190901266 4.998125462460433 4.466652764649546
V 4.071003284650284 6.477084213322234 6.591711213676545
V 3.50402731090475 4.3318362980371115 6.231119224526681
V 3.197425640467109 6.055811100545012 4.686944740416886
