15
Energy = -105.52472055 eV
V 11.33035389655664 7.676375539015148 7.335660227513227
V 10.259399624919878 8.077056747044944 9.505863635546463
V 10.423240840714051 9.405416887080692 7.441624299085278
V 9.55848881795815 8.003427921787056 5.600988858383585
V 8.820331872604797 7.063325990724384 7.682375405466032
V 7.383681765533159 8.241183162134476 10.866455097118056
V 8.730060171405476 9.355331944744076 9.150696927170676
V 8.088820893209258 9.151953717503948 6.333924442340829
V 7.882625215554544 6.803163164182626 9.902134090575654
V 7.129499823452695 6.780326814747295 5.92781227577154
V 6.192116434681811 6.033612655599367 7.716541688483942
V 6.686921819030723 8.340930516261645 8.169687607227281
V 5.214681582034458 8.11881778922924 6.288441423716311
V 4.229322342290625 7.263979994914511 8.064123126826477
V 4.492742703652046 6.029786513361466 6.039275322336233
