15
Energy = -105.5365148 eV
V 9.113065192597043 8.95782282754425 11.701802614274348
V 9.963001481271707 8.328268902850974 9.25293182663985
V 7.019793750730245 11.1982712112187 9.594361848261746
V 10.678580429858275 6.730864213061617 5.9409930750601205
V 11.922232972955799 7.017355419734201 7.881033859972648
V 5.804940149972617 9.058900266588017 9.599216639983974
V 8.841612006612936 10.165005497645366 8.115699555347685
V 6.916710922141325 10.12141506222911 11.351354038482112
V 10.92691244281499 8.762442187150032 7.11514087460489
V 9.802212677801512 6.352725827795165 7.938126524024573
V 7.867985713586141 7.913587095224459 10.512202043598421
V 7.520898378277362 7.573560236434636 8.293097783367195
V 6.394499187123879 9.819726905380877 7.827925878712854
V 9.205935977951398 10.54814383375483 10.30634522655637
V 8.58633927880844 8.278211172018802 6.721339353755261
