15
Energy = -109.07771236 eV
V 6.521999257345304 6.522216588475785 6.5222637173244715
V 8.860449374705446 6.361419756924385 6.530856769723962
V 4.184310093726217 6.683474158715182 6.512912615448655
V 7.588753961111662 8.74702982919726 6.512189852358412
V 5.251938371088778 8.904139297995112 6.502234570622902
V 7.790959943045429 4.139163995355968 6.541254355742166
V 5.45830676645978 4.296312747296063 6.53190020409211
V 5.901514676898868 7.778907168365209 8.396801898106538
V 8.188322393966413 7.515113050116428 8.402280748936501
V 7.12750113949252 5.291580512862097 8.418144899559664
V 4.843161521759638 5.555048259415012 8.403798377582698
V 5.915127004610013 7.754345595329077 4.62792580031587
V 8.202778834092891 7.4904792010481085 4.6422435629350804
V 7.142098267055014 5.265146849270797 4.64749034440004
V 4.856736124847824 5.5295807198403315 4.641660013056985
