15
Energy = -107.82708711 eV
V 8.7698632214246 6.822502545570879 4.604026653307177
V 10.204124686717366 8.572338985518789 8.861861595560194
V 9.892945232565282 6.9179195413125125 6.651582481502276
V 9.199132431755237 8.92450741427305 6.1141243691526475
V 8.36672902462552 6.024144901972724 9.548395835930872
V 8.205788603792325 5.212555495516604 6.904346259969869
V 8.500249656201389 10.314488591086807 8.275182735431763
V 8.823014504134058 8.676698300612095 10.197306389952969
V 7.208760346078618 7.133725642234313 5.542826024192813
V 6.751807522652343 6.962606860877022 9.960307129088955
V 6.854626901816881 9.5590993737008 6.760372996404132
V 6.7784371122745135 9.585904328526167 9.26840754254293
V 6.5196290106374954 5.685827095395967 7.696560839991208
V 8.132179350315527 7.67799786127997 7.935546390927659
V 5.700447135478552 8.092167199691543 7.717079860891297
