15
Energy = -109.06076449 eV
V 8.399764704524605 8.409380333334106 8.400006446664715
V 10.737853162037432 8.24863931095489 8.408723693072739
V 6.071872471593279 8.561342271826172 8.400006446664717
V 9.466173466789284 10.624496872119119 8.399326893069734
V 7.138897964572621 10.782069212112406 8.3891965958255
V 9.668945749134922 6.0261902181316795 8.419253098966285
V 7.345937409458277 6.1838253912577406 8.409761487058846
V 7.788236287925905 9.656832408187784 10.274603612007542
V 10.065638940577998 9.392952920151812 10.280027941486178
V 9.005741902550488 7.178674587150573 10.295778362231891
V 6.730835325102265 7.442177891443956 10.281543669466178
V 7.801805450736134 9.632176332224683 6.51525221864685
V 10.080088592273434 9.36831990194374 6.529483297317517
V 9.020318149469551 7.1521950895859385 6.534674250913407
V 6.744416580099196 7.416747102729938 6.528886143453278
