15
Energy = -106.43760577 eV
V 6.446093296097183 4.845428588259016 6.317363360588669
V 7.475552858587302 7.362437633732018 3.563319964217916
V 4.249614721528142 5.6789692891693315 5.510673827408939
V 6.847930444896617 5.046649062739585 8.827197821250476
V 8.994834001082143 7.84739741640316 5.5545683367575975
V 7.912857156959779 9.360196696214983 5.06850941743197
V 6.988302358922404 6.901156155071513 9.505558400230132
V 4.6447383493549586 5.963541873932704 9.548509187852304
V 4.417233969102197 4.8049551709632405 8.099750384224977
V 5.328376089418222 5.452434628461501 4.101698659959672
V 8.05722921358259 6.408236577922965 7.185015952231367
V 5.397662162006121 7.024918380265617 7.505175047658503
V 7.865353426472121 5.671522710799655 4.54351354849435
V 6.237025309542361 7.403500521219371 5.49903864336014
V 7.418078678734764 8.560589760474624 7.405138201809518
