15
Energy = -107.16891861 eV
V 9.91359600245973 7.691187326397521 8.6994889156422
V 9.33011794722746 6.444699079457579 6.939244316689487
V 9.412725264688413 9.284277106415725 6.711256184072622
V 9.371273830696047 10.171300620547624 9.278715156923239
V 8.317883908120054 6.157211923806412 9.339002827000273
V 9.360053091671958 8.16799069009348 10.940786633592893
V 8.12535097465455 7.293819269009373 5.3311393439274735
V 7.6390438262093685 9.731897840560292 6.0458969039783526
V 7.992608637815589 10.754638598389263 8.29356426183549
V 7.126102199788511 5.74156114096089 6.980544560565677
V 7.660802973390096 8.531164430342557 10.188517277099075
V 6.113008414747008 7.562722407098364 5.6438448233511425
V 7.448880286863662 8.139994213649938 7.816742585438019
V 6.149901126429235 6.348207522359125 9.196687253505148
V 5.255762853557416 7.407187163954445 7.724830046358985
