15
Energy = -106.79671293 eV
V 5.450510432744211 5.735267300718601 3.48862227624167
V 7.830742915715894 6.00586618089326 3.9420582480753246
V 7.038873788968117 8.001108212023189 4.788110660983126
V 4.535178030604115 4.646240761345707 4.613823614257273
V 7.0630529399968 4.276692751302892 5.096996604071698
V 4.349709345940767 7.927462084797518 4.941088940617031
V 8.580537846296062 6.410537377387268 5.92509994818972
V 5.876578357518029 6.340481642501669 5.940734611771074
V 4.861598475445654 8.557831108059931 6.516228342776187
V 5.516642488733565 3.7639292524416215 6.748408273773498
V 7.487015054405192 7.965122140844089 7.138797349677633
V 4.469007698628297 5.538362022835919 7.587190426151645
V 7.262341703493193 5.288011351419987 7.642060301477052
V 5.926026220176706 7.105225653062875 8.454568906718224
V 5.793394826293771 4.479072285326196 9.217421620179248
