15
Energy = -106.04955874 eV
V 12.558270335470553 8.182387780971144 9.852773214124436
V 11.619375419957946 6.661726027305105 9.678519803180178
V 9.822977513821487 6.983000971002718 7.907246484609469
V 11.179265636082071 8.31749049106684 7.791830470847764
V 8.83229030995959 7.211067435580616 10.265886058259504
V 10.18533193177149 8.539681671272625 10.54200341816656
V 7.298983482990545 7.56660788581389 8.244223991287411
V 9.055695914349153 9.355329321043762 8.592893509229507
V 8.553414498741363 8.490052936198639 6.178722532932462
V 7.2174031369774285 9.105413028730563 10.381132085521756
V 7.703374024250204 10.119893548421654 6.630626635751346
V 6.817275646171954 10.413976864145518 9.071155685155281
V 6.04845373687668 8.26386432907509 6.303438270973643
V 5.413615110089138 8.240539874947604 8.843471823110235
V 5.3351158007200565 9.898572347940352 7.218413507142063
