5
Energy = -30.08466682 eV
V 8.168456745844587 5.6612050994573 6.7782146954151745
V 8.325569273103191 7.580875361554443 6.518217220911375
V 5.881847054351315 6.941869295618127 6.11436064919056
V 10.210050839178693 6.405374915450609 5.928685314512926
V 6.066378179452725 6.670330466088219 7.833288925000047
