5
Energy = -30.61597398 eV
V 7.205170610203856 7.640516746487571 7.294714237135398
V 7.885448102422162 9.502278436757432 8.61007149768138
V 9.290452259048234 10.257506682195245 9.82768206866685
V 9.990938766539688 8.669632116376288 9.500291839529936
V 8.75445300907242 7.284431337248536 8.024505381566113
