5
Energy = -28.96907054 eV
V 7.820310255050373 7.32703305740935 6.821762074420152
V 6.476121496900551 5.2485571426350015 6.135312395901119
V 5.885487827428464 3.6734193135322535 5.778576056860958
V 7.043057919677006 8.8634828826373 7.228688660948079
V 5.410736607575045 7.530586062533592 6.679713158258779
