5
Energy = -28.11958662 eV
V 9.169822294907572 5.918603787209609 7.516404167206212
V 8.754249884351388 6.075448429749415 5.589979922263528
V 7.801287194438878 7.607108142520612 7.025592580563593
V 4.384388061896429 8.57321396295608 7.855878601118637
V 5.3278655415665686 7.180823825455607 7.44004271135375
