5
Energy = -30.47068828 eV
V 4.314252200403067 5.618618824550905 4.6510239281404715
V 6.432237825428181 5.199653090805029 4.488641698386277
V 6.487480670786014 6.938087158191853 5.771623948476612
V 6.0136029487090275 4.263159236723645 6.3917209179953
V 4.781240591720168 6.009295926775384 6.725803744048158
