5
Energy = -29.97012527 eV
V 8.522245224468586 7.086919736815716 8.525349369666797
V 8.749408298261388 8.8028259405548 7.903253731738938
V 7.639422288414278 8.76202654954567 10.054934904114859
V 10.549891104455131 7.158518363078766 7.2183460533322075
V 7.876423215119773 10.45080888952698 9.574430085443204
