55
Energy = -425.73558695 eV
V 4.3805992914794505 4.313172453763927 2.2536600114201546
V 8.20223919054158 2.5196098365190833 5.414691115928015
V 6.418315958553453 2.338388384356178 5.899869925548588
V 5.616815118045931 5.828425401942487 4.031985348885903
V 3.9795048544723532 8.036315118420566 3.7368530771085227
V 5.847329600077476 7.932614778053236 2.4484977445260974
V 3.975129737019053 6.234223631136548 1.9471989118786996
V 2.5571788439435355 7.04963333547557 7.850066570233331
V 7.392220790470531 5.522801612166772 7.982758387334457
V 6.868341693726769 7.698121866868448 5.099603938235628
V 9.313712948909872 6.623454593408146 6.58208752754588
V 7.664268086123954 3.1615021000101575 7.914282668994863
V 3.1580861108481453 5.672279238347804 4.285075066455458
V 4.070246092483105 4.762754757965712 10.714337176027271
V 3.184041668172114 4.833099671156599 8.23628749863484
V 11.739621281799431 6.535972516731359 5.596137173840607
V 8.62143546194781 9.199141340450632 7.030577399145516
V 9.96314197998532 5.684454243708942 3.764842938526025
V 4.387815116909208 7.4540594294209095 6.2012109334109935
V 2.1333614454328607 9.148531524236581 6.944185198532853
V 4.048496504729539 3.2889881923832798 4.711925002050432
V 6.742332060718839 9.992773307475325 8.818635503409128
V 6.372125843134321 5.359666034001672 1.645242351345123
V 11.61321839042209 5.369913512749394 7.043744132849867
V 9.27407407248952 7.949665682277074 4.484063967876426
V 10.812242859432128 8.896067164378929 5.949306994815645
V 5.612421511396251 9.79922709231479 4.48768588760819
V 6.590018226639758 7.664829752271972 7.522841562015505
V 4.934756599087148 6.48872983603577 8.850383165303532
V 9.895235708297019 5.8748128998389815 9.10960299387389
V 9.475427204202457 3.940299089797396 7.347431566913432
V 2.5933004933114048 5.011876002117488 6.020191629827933
V 4.91945934436667 6.539678449479323 11.280213979452128
V 3.2163551916901527 8.276436145670006 9.985495356977674
V 5.37082418255412 4.974797324271586 6.311571108010375
V 8.081003321114927 4.0754453578088405 3.108300231303434
V 2.0590715562689805 7.70705886634391 5.195900239954424
V 7.798485513737101 6.736607320733555 2.9218263316617636
V 10.963123346768686 8.02240800012152 7.694370514038349
V 3.9528117765739776 2.75695587622523 6.50623829160025
V 9.062652646804539 4.4254961790969585 9.854550235610727
V 5.291405140114477 3.755933010351792 8.36464812811468
V 6.536177825559834 4.674561861973379 10.288542115759935
V 8.20227155921008 10.186266846305646 4.841009842072422
V 5.978193520916986 9.915688211690425 6.468776109279304
V 3.4271000395249165 9.895533490113714 5.685178233946949
V 7.456650298713234 6.463707583577198 10.312608232182145
V 4.3373013725819005 9.138027508569422 8.154514150522559
V 7.6888638819944655 9.554130348541 3.157137997490728
V 6.065053231709474 8.67678450586825 10.014372257563876
V 6.4409202255083455 3.3692259305806544 3.651065809830788
V 10.297569279851716 4.35926498028923 5.039824032481604
V 7.778215965588395 5.13353620998112 5.462333792130727
V 8.557645528814755 8.137567555704148 8.906322931465366
V 2.540398053141854 6.498091584834035 10.328544256358967
