55
Energy = -426.85279456 eV
V 7.34378519926708 7.986593720874734 7.9814821359795
V 6.024599240500818 8.980319539770107 5.978872393430927
V 4.285400717873452 5.824439719771685 9.769473042459108
V 4.2327460366918634 3.8468998507734735 9.060484787696701
V 6.6334547957563705 4.732882013754149 10.118834755063656
V 3.6443354670133417 9.588279644978572 6.180425494707408
V 8.763621943056217 8.62489686298614 9.970896770164163
V 7.048874545244818 10.832940833309712 7.233823538356265
V 8.239089905454746 3.6668897297363707 8.355709382478958
V 11.39977061078901 5.3453489648634775 6.890184322804811
V 4.098375798709808 7.046808851826734 5.498471258945672
V 5.3394465403307665 9.678721304194084 8.540200576553868
V 2.3805856422511207 4.80960997190417 4.707295497392701
V 7.199492783463909 9.781800430863719 9.878990217004135
V 6.0066046005694576 5.363392902615686 7.648663925857043
V 5.464595349963276 6.211372564608793 3.0319009784837117
V 9.838507842267127 4.387776234871952 4.78050272585468
V 8.10743912095478 5.808206404350587 9.557561830487026
V 4.589748407419741 7.498094037375771 7.74179499677114
V 4.724480214668207 11.081726475524304 6.383818222381039
V 10.71724102444472 10.140321898859103 5.5927426265872
V 8.512710409953025 8.671258583566704 6.100437529945325
V 10.457437922836638 9.103534396375228 7.983691997593867
V 9.914085806682788 6.931775510363999 8.265868496554228
V 3.5197360308889216 6.652501464485337 3.3660963065837723
V 2.0309358627571146 7.350999770901448 6.929425069687912
V 3.379597360249395 2.753953276838526 3.4697608026249456
V 2.6898551859910906 3.237146007681465 5.807584335433265
V 6.588010046557919 2.675018145438701 8.322866638519317
V 5.956265389398341 3.234440289367944 3.3075214271118654
V 3.7715636805644084 4.249139500831829 2.428727774464057
V 7.720658831577622 1.5168345228533946 6.252239000325007
V 10.62153063476051 7.533973468810697 5.727275212400116
V 4.80276340860481 2.915763466094853 7.008752503416196
V 9.653170266385505 9.5047319487016 4.073822336736336
V 7.0743125266813704 3.935144516993187 5.919606239079474
V 8.641954812072814 5.774123172418447 6.678292641120519
V 9.753588810439174 3.338686490055625 6.334212869800487
V 6.616545996430442 6.702252465058552 5.560868595580059
V 5.381099487305402 2.036354881905995 4.888826867351563
V 8.699908283752418 11.431317985539085 5.4132706620352415
V 7.280796452460193 8.13835414384923 3.6124309632153024
V 5.364064075296515 8.706625669615022 3.711277942639512
V 2.7711084160638086 9.28813599236761 8.622772010960164
V 7.475475697372127 5.1936691538175985 3.868382898426549
V 8.09952734218012 2.1869215903732835 4.558782132905133
V 6.0644489823351995 7.355072386045639 9.867942413912166
V 9.243309455661226 6.776091655133112 4.307156737613507
V 10.685248532440909 4.503702016689364 8.359231924568805
V 2.183114979646521 6.798275577680482 8.77304631475141
V 4.842344865566561 4.631204109213559 5.034275936669243
V 3.6631450509214125 8.535982390624355 10.085693942085255
V 3.400131291653805 5.198502215340149 7.248457530057064
V 7.242258546007686 10.699279102933538 4.498817745985057
V 9.079424493583103 10.464236895990384 7.972779442157673
