55
Energy = -415.79280485 eV
V 6.959493852186683 6.959493852186683 6.959493852186683
V 6.959493852186683 8.26618539601754 9.086246587785768
V 6.959493852186683 8.26618539601754 4.832741116587603
V 6.959493852186683 5.652802308355506 9.086246587785768
V 6.959493852186683 5.652802308355506 4.832741116587603
V 8.26618539601754 9.086246587785768 6.959493852186683
V 5.652802308355506 9.086246587785768 6.959493852186683
V 8.26618539601754 4.832741116587603 6.959493852186683
V 5.652802308355506 4.832741116587603 6.959493852186683
V 9.086246587785768 6.959493852186683 8.26618539601754
V 9.086246587785768 6.959493852186683 5.652802308355506
V 4.832741116587603 6.959493852186683 8.26618539601754
V 4.832741116587603 6.959493852186683 5.652802308355506
V 2.7664183080356866 6.959493852186683 4.3612465813024714
V 6.959493852186683 9.557741123070898 11.152569396337675
V 6.959493852186683 9.557741123070898 2.7664183080356866
V 6.959493852186683 4.3612465813024714 11.152569396337675
V 6.959493852186683 4.3612465813024714 2.7664183080356866
V 9.557741123070898 11.152569396337675 6.959493852186683
V 4.3612465813024714 11.152569396337675 6.959493852186683
V 9.557741123070898 2.7664183080356866 6.959493852186683
V 4.3612465813024714 2.7664183080356866 6.959493852186683
V 11.152569396337675 6.959493852186683 9.557741123070898
V 11.152569396337675 6.959493852186683 4.3612465813024714
V 2.7664183080356866 6.959493852186683 9.557741123070898
V 6.959493852186683 11.333175006628789 6.959493852186683
V 6.959493852186683 2.5858126977444154 6.959493852186683
V 2.5858126977444154 6.959493852186683 6.959493852186683
V 11.333175006628789 6.959493852186683 6.959493852186683
V 6.959493852186683 6.959493852186683 2.5858126977444154
V 6.959493852186683 6.959493852186683 11.333175006628789
V 8.310734245952702 3.4225389096779666 9.141894721554277
V 5.608253458420663 3.4225389096779666 9.141894721554277
V 8.310734245952702 3.4225389096779666 4.777092982819089
V 5.608253458420663 3.4225389096779666 4.777092982819089
V 10.4964487946954 4.777092982819089 5.608253458420663
V 10.4964487946954 4.777092982819089 8.310734245952702
V 3.4225389096779666 4.777092982819089 5.608253458420663
V 3.4225389096779666 4.777092982819089 8.310734245952702
V 8.310734245952702 10.4964487946954 4.777092982819089
V 8.310734245952702 10.4964487946954 9.141894721554277
V 5.608253458420663 10.4964487946954 4.777092982819089
V 5.608253458420663 10.4964487946954 9.141894721554277
V 4.777092982819089 8.310734245952702 3.4225389096779666
V 9.141894721554277 8.310734245952702 3.4225389096779666
V 4.777092982819089 5.608253458420663 3.4225389096779666
V 9.141894721554277 5.608253458420663 3.4225389096779666
V 3.4225389096779666 9.141894721554277 8.310734245952702
V 3.4225389096779666 9.141894721554277 5.608253458420663
V 4.777092982819089 5.608253458420663 10.4964487946954
V 9.141894721554277 5.608253458420663 10.4964487946954
V 9.141894721554277 8.310734245952702 10.4964487946954
V 4.777092982819089 8.310734245952702 10.4964487946954
V 10.4964487946954 9.141894721554277 5.608253458420663
V 10.4964487946954 9.141894721554277 8.310734245952702
