55
Energy = -425.80286075 eV
V 6.5485104752078875 9.959120291106384 9.46457929315124
V 6.966087180077743 11.483690086955217 7.584328232260451
V 8.651702801241333 9.185324515576626 10.203858298349074
V 8.374433429985215 7.133546793840449 11.261217414168982
V 6.448803635693924 7.996064767717465 11.07649155611066
V 8.579915396042551 9.341122593416435 7.725595709053035
V 9.800636786713968 7.451430462690386 9.206746040308898
V 4.746402567052302 8.861083090067508 9.106386027451364
V 5.087141294995947 11.151595871412166 7.376715955582501
V 6.621217830048402 11.177692092295766 5.063417959241067
V 6.271058843014673 8.974648589585085 6.8913890533218645
V 8.358419454404743 10.88351435994397 5.576250464206004
V 6.86112128599296 5.271926523881031 10.409655414585215
V 10.867948231764279 8.325994319568911 7.333603697670261
V 7.126705605124008 7.434805456012226 8.87525346854735
V 3.613877543889037 9.091539467094575 6.725794769612767
V 2.6842172341801716 7.65264747317191 8.74242768978445
V 8.562614798278275 5.212473479243339 9.384934643806295
V 4.655960449498864 6.342570997072261 9.861862035506569
V 9.98297185576064 8.853066122340367 5.615301907971117
V 8.621838037130438 6.892938888710726 6.878819200031
V 4.664390903704637 10.022004814510284 4.7955941247039
V 10.782928203266268 5.679848531167084 7.359344237088661
V 7.405172239355177 8.624537227893423 4.8113530605697
V 4.820931138868018 6.902529156318631 7.469524619880118
V 4.811834291914587 7.437939821966956 4.999405998970422
V 5.420607666466611 9.080412150665842 3.094597397746778
V 2.8371698277990056 8.365858538059395 4.144359049070966
V 4.4472001847529405 4.361379331010634 9.043183657447104
V 2.563664264469245 5.667196538709065 8.222980191649569
V 2.422304167749555 7.049942351110419 6.164932158479567
V 6.376163467730515 5.034152084399286 7.917902303871305
V 6.8284745059395995 6.1424278827676515 5.590244317517576
V 4.121522045619709 4.968249112878575 6.242862964750548
V 10.991924128804165 6.527862394326974 5.561406093250726
V 8.975445778799902 6.928797896573575 4.187906809983756
V 9.236425014021222 4.74497999241916 5.336777271854794
V 4.622548834115742 2.830799450841884 7.248239877301295
V 8.697017697838072 4.037550653428182 7.0519431073416845
V 6.856007463033554 2.903144948916823 8.464821270729246
V 2.7816620958972984 5.850905491371845 4.04565278598621
V 6.55818678013756 7.001595881876331 2.9795254999843146
V 4.096640881025031 6.8649323352445615 2.5013522677213498
V 5.2684019137869305 5.0738126901770215 4.062202343900584
V 3.0215159395005102 3.510980177198381 4.5531483449175285
V 6.618513260388231 3.5117087267348905 5.784145253014536
V 7.697321899242947 4.690701376474896 3.1663870063707447
V 8.068113155443422 1.456732917146644 6.875903218326416
V 6.103601610387896 1.0528486024686607 6.860026773932273
V 8.634372773931347 2.3394575384098504 4.543892942823825
V 5.557607763375183 5.0544605723166685 1.4646171270538628
V 4.104084361865212 4.045169076720564 2.2233553317566956
V 4.702554898561361 2.5005555361311185 4.611007621835898
V 6.6084549461814825 3.1228383620879634 2.9844644239986287
V 7.130503926305276 1.2017443623480728 4.537164481823207
