55
Energy = -428.42642343 eV
V 3.2076429061439624 5.861969799020238 8.646741973988192
V 9.218515975797732 7.6463818353683894 5.623617235583439
V 7.501544804615212 3.6594438794451545 10.027421278185756
V 5.137766798116817 5.491286227632822 4.353448694064131
V 9.25210514977282 7.827606502227346 8.516370793820041
V 7.048843690900953 7.269636291867899 1.5704019207516482
V 5.232940063326965 5.782431843122108 7.240602535098797
V 3.177273135146148 5.688902472616032 5.882623690123247
V 7.181427728172955 7.54275578318688 4.248666401053788
V 7.227195929488737 5.9505029317289635 11.507719808259324
V 5.200970427681158 5.857122730214995 10.142641495084124
V 7.26927406877557 7.870233503300489 7.085523920405806
V 5.194193765945904 9.534429269653849 4.010428688412865
V 3.2454665939355714 9.521748523563888 5.482107940957333
V 7.244964964243592 7.902940768106537 9.941027960723536
V 5.170995012735432 9.806676569440127 6.988139961399853
V 7.134166428866321 5.4078898379902105 2.9402519403648104
V 11.263976503245559 7.322382737420023 4.389418261087899
V 9.173189195542607 5.452067627235934 4.21739581523906
V 7.169597545952481 5.5923969909708005 5.761845972848608
V 11.338479926229532 7.79405096374198 7.039822876956561
V 9.29751715842214 5.64968598293218 7.201797182905484
V 7.201464808566769 5.776913819987073 8.685920715106064
V 3.076550670201401 7.809581685919678 4.4150447217496165
V 9.238762952176264 5.828728717122148 10.190093777606899
V 7.084495794285966 9.328256101049123 2.6247682947284834
V 3.1331704941087097 8.154475905147843 9.83790700628536
V 9.17280849938063 9.514725880879185 4.090483624501345
V 7.256288014072123 9.790610461388365 5.428766641948437
V 5.266441869617058 7.994339373430976 11.431579303010814
V 9.345244014077368 9.852326758535703 6.9347080939781405
V 7.292186531079884 9.982554054503076 8.488139277840121
V 7.1692594115854655 7.97160725427567 12.634230881909321
V 5.112180981164694 3.648426531848617 5.984840551068716
V 11.210555449706115 5.742151396109656 5.599824613728559
V 11.326817357994258 7.653780390791725 9.731839848757362
V 5.141939313591218 3.822606311309516 8.757390073059799
V 11.247260016052575 5.938153581474581 8.73422341894298
V 9.135054308769611 7.969633562524611 11.386188504555719
V 5.173551853512215 7.446738408137808 2.805885492338346
V 11.168681417273147 9.585191203132272 5.507051100749047
V 3.2758547935563844 9.714832482957666 8.564370194079
V 5.21550569739146 7.6854839259036325 5.647023121417134
V 3.274672384843329 3.9741757400217526 7.377328750084007
V 5.259054669514304 9.91070694914679 9.97631668253305
V 5.246668494026653 7.871501299513084 8.583521291890296
V 3.1181483780266857 7.799368220753014 7.137932924863962
V 7.179126136680934 9.878393710063225 11.330755963941504
V 9.020589063731336 3.5403617482630794 5.733137972604654
V 7.444401002885228 3.320980964466967 4.692582940834401
V 9.237608194047864 9.87467889953806 9.8012125574683
V 9.055374521693844 3.743840731477008 8.93201869262835
V 7.110158395928484 3.5769678898723285 7.358676643742344
V 11.202615968502709 9.761598734612576 8.337428196882966
V 9.03883433706201 7.423137803219917 2.7601653460149107
