55
Energy = -424.63671554 eV
V 8.158759167969373 8.474921868358924 7.903075424470648
V 3.781437280719701 3.823571409509243 6.317041229015189
V 8.311466671457742 4.0197161971006246 9.6592901773647
V 4.001584184833964 8.2221126826734 8.425506704395232
V 7.867472430004898 6.979258015502514 5.854914307525682
V 8.307251810186854 6.976234707979308 9.951202769082897
V 8.242628045390981 11.138903163271983 7.53021224847558
V 7.8545098133567315 9.935751190277305 5.865362541039759
V 9.872484763684865 10.439733387701633 9.142618492137954
V 8.165445950107014 5.539488147328391 7.815850545653598
V 7.983837057741029 4.067851199715265 5.836270871017563
V 6.143867609222442 8.218820790294208 10.193452428732602
V 4.093394716976596 5.505024285428402 8.304608491866611
V 9.918553271074062 8.437193405795503 5.59854905933132
V 4.438223382344734 6.805378391228542 10.271663555165018
V 8.483026579550872 2.786502290808503 7.728863579187916
V 9.906868207609827 5.617759847909918 5.411600558005178
V 10.299148070331192 5.603687725218468 9.84941647741803
V 6.060906197453871 6.910969505876993 8.049204856486467
V 3.414223445676068 8.229887143889615 4.571553276508214
V 10.415329402155042 3.131012635875753 9.835647393043393
V 5.981209861237567 9.872432070909474 8.102906155824057
V 3.3054077679980476 5.470162374818029 4.4389571578447615
V 8.062498481636442 9.801902134862287 10.005997488992648
V 6.112594160016192 3.920829918034689 7.962959356894191
V 5.510378908911323 6.868775171190432 3.9463604526269336
V 10.43337671248111 8.176260393196731 9.535527508557436
V 10.243940420804984 6.989961915240004 7.595938171541727
V 9.590780385323427 6.853867262018659 3.779496005224526
V 3.692047718698462 7.133870212396464 1.9157680483290553
V 10.363192420315215 9.731914056404445 6.97178598892968
V 5.800315004017899 9.705443313102414 3.9741797238539585
V 3.984637101310816 8.922862456685134 2.3957521293409654
V 10.257516261199063 4.281724090558101 7.699678733366037
V 3.898195404055234 10.441046982842021 5.012526289469523
V 3.7872713971205387 4.855741056754993 2.6459918391112147
V 5.712367954140873 8.408851985612493 6.024279719985929
V 5.632396925453429 4.034708012722847 4.100599770079808
V 6.075032316907984 8.187035135128752 1.6143048571144465
V 5.651093535557725 11.089848403187556 6.432211619255489
V 3.741458910475214 2.8360446855011388 4.677644834100157
V 5.785807680419078 5.57497887027864 1.6389614374938484
V 5.808312495503533 5.454267354439918 6.03797864836314
V 7.659393333974914 8.26999853534666 3.813611195795242
V 7.481925080873527 6.696221857588898 1.8056054821866
V 5.973608013497936 2.7040898598312224 6.251157603362511
V 7.65166803863961 5.391451239089415 3.8126400517919765
V 9.451129764804529 6.539208171203198 12.29216760264489
V 3.6663905969189265 6.860920577550248 6.380372231519978
V 6.2430845277356095 5.432140167204423 10.100814288514393
V 9.817564523853848 8.874012675898497 11.456400797829437
V 3.490464898926955 9.656219131178814 6.933688811990746
V 7.692357288169554 8.36894467760106 12.305011005096006
V 8.676066967783335 4.895866148492236 11.792011384311223
V 6.842234299413044 6.630758327410274 12.226945838757993
