55
Energy = -427.70853678 eV
V 8.01559282299955 2.6138962902442513 2.730331588871714
V 9.185442746924744 7.399895278650454 8.051502937981176
V 5.302299755264931 5.372639259665357 7.910296133759467
V 2.6161412087403373 6.917685325830873 8.497037117160568
V 4.623896452297154 4.182217259640919 10.336700393820196
V 8.480711258642916 5.380674371570115 2.14944439819906
V 9.532113152819816 4.4435408004908155 7.066269496513901
V 6.283876804454496 6.229628919343282 10.228340788103557
V 6.104400997343163 8.896364156425449 9.875424084992861
V 4.448211287681166 3.8081758110879464 3.354735603583671
V 7.923505255965614 9.644477416063284 3.906820641284322
V 5.471370025949098 10.230734248359745 7.423435737415018
V 6.28056096569132 9.269471119949333 2.880065590376324
V 4.442627143494297 0.9158565852186957 6.188897141845644
V 2.066897116605121 3.422668836920038 4.971988313406796
V 7.976361347913194 5.389111678725477 8.700410002534714
V 2.5504098069286307 7.319876797136839 5.6179463270687595
V 4.6268783903772785 3.5847272275331976 5.722746180549812
V 7.040506199313913 6.956696672526146 3.808358764327762
V 6.150381843053035 2.3622766001558526 2.2988840032260516
V 9.67565284341048 7.170706471517166 4.224538711537115
V 2.4084568236112913 2.463662758849055 6.572304246308416
V 7.949455913807701 8.290404462310931 10.03349724219007
V 7.770300450500553 9.718839300712476 7.953205442423057
V 3.743959589966965 9.870858916964183 6.007759615782447
V 3.0366568663519886 4.5275015418698965 9.230052255277968
V 6.730220057307626 4.4267926180823345 4.0519247593572
V 6.295568907084801 1.9608354924939704 4.658933371347838
V 4.366760913600531 8.18459814923784 4.128167023087801
V 3.015470782388557 5.564705701193813 4.1058886903414
V 4.914855561714216 6.374854084511263 2.721881597788979
V 6.932202751575842 3.9778657250627902 6.547426439996489
V 4.369078277300938 6.800065234052774 9.841806489082886
V 3.720125340010855 1.4897218068293774 4.494645243465438
V 2.0064485832452816 8.966837526951386 7.361616870718857
V 4.575384136513248 3.0266329373148784 8.046414900755487
V 6.629372696833018 7.56125383687132 7.882096658272712
V 8.51358118884029 2.5897673380027117 5.316733518967034
V 10.392836780627608 6.641337757007412 5.864782610167122
V 6.7075363444555 3.6213832158098196 9.27879634188045
V 7.698256921824922 6.251677975986558 6.161524586230261
V 8.720670314795383 2.815243128496529 7.941831185341101
V 6.233764604253287 8.656959061592474 5.618325462715852
V 5.845375708358166 11.079393367869988 4.814445161719676
V 7.348523842147914 11.141441382264379 5.935068265177354
V 3.4972546856364706 9.385925680113862 8.65592832626555
V 4.368721792390467 7.659560229525596 7.027842441088835
V 6.5116721708529814 1.7732534805979538 7.157659323321704
V 8.99948240812174 4.781049087229568 4.620931902389171
V 6.8790447472529355 7.278411899267945 1.2128305760028975
V 2.9287529958130216 5.112152940027258 6.722380133693506
V 8.45130894684486 8.01554771235522 1.9530839036855527
V 6.71486727950958 4.764315893233262 1.6449358195394697
V 5.147449099065132 6.048265225570749 5.3230696543281235
V 8.689688172770246 8.578506485929498 6.078979065975591
