6
Energy = -37.60848457 eV
V 9.496384989990762 5.372990343336781 8.1176067784516
V 8.524354375744933 7.616421356829188 8.542042324190698
V 7.929510302707253 10.111801541675986 8.297182717311014
V 8.033425310149902 5.6375766074942115 7.289529104469641
V 6.471263328568283 10.386990487654861 7.4653105667783235
V 7.020076850854152 7.976499549581172 7.704549587221875
