6
Energy = -39.05358813 eV
V 6.9194572406583585 8.308638293959588 7.34898865820047
V 7.882125699486076 9.01321631184804 7.707003427081278
V 8.104279748913122 7.149612750562869 7.3658251567546
V 6.569208550400188 6.979947306350208 7.785779221772431
V 7.849089268958959 7.911095297787076 8.807528109109946
V 9.397968491583171 8.056370001836974 7.70700342708128
