6
Energy = -35.35408127 eV
V 7.051507900939947 8.200178477826233 8.667724670432962
V 8.250401805760644 6.480033554813311 7.812644388522213
V 10.029652422863668 7.310216878431055 6.526604905330603
V 7.32068023837776 10.712340884866613 8.375296610779577
V 6.148470713552508 6.173092183365725 8.9505595190639
V 8.723638220010885 8.761673744940541 7.607734446020989
