6
Energy = -35.527129 eV
V 8.50183400328577 6.127734822584157 5.866164039961943
V 8.239997776358576 7.841961991016896 7.1509630398842905
V 7.996398105268339 5.87307737119191 7.959192256277199
V 6.223808051455697 6.648371472759749 6.4361662633637255
V 4.450183050888126 5.988775312213069 5.321801222515755
V 4.112348174077 7.045344643419696 6.791380745205883
