6
Energy = -39.05383474 eV
V 5.307689973422818 7.3884145535110495 5.72951633604036
V 6.963125817004087 8.096603278837108 6.100270161443347
V 7.19056496027645 5.539565504843229 5.750677164218759
V 4.952764302209426 5.3645767018398605 6.871157417756836
V 6.234096498892761 6.2994511307204935 7.892008664115392
V 8.483045088705653 6.442675470759691 6.787656896936506
