6
Energy = -34.78727011 eV
V 8.373726054438167 9.164291490654735 10.426925800208563
V 8.247403177610352 10.030747815688677 8.925927972742343
V 7.481644725418425 7.773630351401287 8.483230453849322
V 7.3637990856514595 8.759346612816477 7.022101134068539
V 7.5958420601882075 6.371490907260153 6.259328474627627
V 7.138017925589239 4.17876318221336 5.005393893097712
