6
Energy = -36.84026595 eV
V 7.289007964575252 7.044309353033599 5.6052311463331
V 5.30253029181583 6.1866549165138816 4.693666489047278
V 7.484491080809812 7.546934216218186 8.067015497781473
V 3.9626905007701096 5.805564674047011 5.785747059197697
V 8.36179652310843 5.9032110551284065 7.216014057490155
V 6.017812522324381 5.940149453963531 7.056240822383007
