6
Energy = -38.26453842 eV
V 9.496874578446258 7.933796868513823 10.327437622367457
V 10.29994855301767 11.259053779864239 8.628289194328692
V 10.292517106290664 9.908901790606748 10.653159269621197
V 8.153220895687706 7.730944104870227 9.000292495546107
V 9.921991085379332 9.342207563550513 8.137666835673569
V 8.39352020845931 10.102332678051404 9.729401099133545
