6
Energy = -37.75596698 eV
V 8.401924589431955 8.551498224658168 7.300325208710516
V 6.20324066987799 6.05203345628398 7.341391599180999
V 8.498806857138817 6.117888034409564 7.3970082842059695
V 7.333811753475395 7.374823592893266 5.6415349597779985
V 6.111401552497424 8.465825536701741 7.238704438751523
V 7.274397677883271 7.235098497519355 8.987440663651364
