7
Energy = -42.20057709 eV
V 4.305933321290873 7.646612199922172 8.088395590882193
V 6.570122583331627 6.968443433836415 7.459670119020359
V 8.772792290185015 6.866345718868854 6.326850481257399
V 8.398750137319192 5.32250792750734 7.353945492649511
V 4.8790292070878305 6.591078172253919 6.060521858465596
V 6.813849461055236 5.654025815710491 5.473946550381031
V 4.935658509870556 5.624366729561946 3.907682698109017
