7
Energy = -46.23574826 eV
V 7.910427081075317 10.332247268183538 10.041927619387993
V 10.073051235821014 10.201633830897892 9.607507868426648
V 8.83676402271152 8.10409105590622 7.119500041461057
V 8.082455250894677 8.279937575973046 9.604052445862889
V 8.48588831169798 9.825624162375451 7.65828033980142
V 10.387361485677015 8.135147028975714 8.644006187044376
V 9.781269677203118 8.705792207111353 11.018379877201262
