7
Energy = -44.32785578 eV
V 8.490069062070521 6.888904746338935 5.807415941372702
V 6.979200428998875 8.719278679090749 6.39984373339273
V 9.310173632897902 6.072527274396942 7.1555083200078675
V 7.937568265754323 7.928687651721139 7.911732753344346
V 8.793674576633354 6.956799423281349 9.500204225394839
V 6.300039109571973 9.555320085061075 8.582543741865047
V 7.075206783306211 8.790329784419473 9.997970918827479
