7
Energy = -46.02835642 eV
V 7.911890902664311 5.442246309297396 7.601092883325818
V 6.104587644008322 5.916084151191853 6.956254433755105
V 9.188745354715493 7.6139324582952765 6.987161358505339
V 7.47240227053008 7.356692883628833 8.483280784244762
V 7.880789594978202 7.160290423695155 5.661082291409265
V 5.237770856265537 7.979303801595736 7.8829476541578165
V 6.2067652121384755 8.517264908966638 6.441727843317324
