7
Energy = -42.71329546 eV
V 7.82426339001141 6.102314791607212 8.6945013
V 6.729920033540085 7.995082079062562 8.694003227585624
V 5.6355766770687605 6.102314791607212 8.6945013
V 5.6355766770687605 7.357525275472955 4.765338767080171
V 6.729920033540085 6.729920033540085 6.729920033540085
V 7.82426339001141 7.357525275472955 4.765338767080171
V 6.729920033540085 5.464757988017608 4.765836839494547
