7
Energy = -46.95840137 eV
V 7.782857153150174 7.937601754036851 9.077884830458805
V 7.803180636373205 7.991050421095634 6.6864908856146545
V 8.290699605029292 9.538698771762718 7.824582100337923
V 6.292981555200434 8.557284936790767 7.959869360992459
V 6.515064843437533 7.000773148797443 7.959869360992463
V 8.37680174883472 6.303700492838555 7.955504282796614
V 9.6540949223999 7.744160629486266 7.966658023998861
