8
Energy = -48.59814439 eV
V 9.441391088723705 6.373039098653229 8.114418798583488
V 7.077951195083844 5.442303315820636 7.955718246412886
V 7.292187115898856 6.951825935177251 6.934998485910313
V 7.059172744539576 8.683494419833789 5.299036623701838
V 5.361516478677755 3.9833676317755375 7.030830869258241
V 5.44812997949827 5.5349036001869125 6.164328828119376
V 5.6963586469308005 7.770682217038943 4.928219615682216
V 3.600666390564555 6.241328074462658 4.5473824181411535
