8
Energy = -53.76557302 eV
V 8.168827863315126 10.664930951292384 8.905996854265467
V 10.364091233066594 9.654707763532862 8.201098686168216
V 9.355082592777043 11.889663978063751 8.297876317385608
V 10.069339354260213 7.593656042057124 11.167366910954378
V 10.01069062434842 11.196650457119546 10.529387035176722
V 9.053201061120152 9.823269366606139 11.251868446073034
V 9.406158538702083 8.282225167067892 8.92938839157044
V 11.25077117943697 8.819108162865035 10.55133206537792
