8
Energy = -53.19796265 eV
V 8.379079723942898 10.49640118398876 7.362679780985124
V 7.825843350923046 9.342603767087981 9.710099057512297
V 9.682586745532324 10.489664420896526 9.407705262250639
V 10.331092248259097 8.351648065685639 9.761157238875878
V 10.561404257944048 9.883829965348673 7.514943190382717
V 8.890143256782673 8.280169611356396 8.01404480911825
V 6.992254319454525 7.094171939661434 9.327487990409734
V 8.583343988821117 6.932726724218758 10.246594250556498
