8
Energy = -54.58597894 eV
V 4.219096208779382 6.343223061321974 4.215112925564629
V 5.937859911964041 7.376300779328671 4.670462129304791
V 6.2436598788499 4.879735643422456 4.550420156246454
V 3.912319598913151 4.470266915320016 5.016261614428862
V 7.328071352983139 6.536647310519844 5.935105284571864
V 5.130297686200299 3.804392093837698 6.537464599184128
V 4.877864471030259 6.243523742876277 6.57340079738808
V 6.846120315652591 4.841199877745315 6.997061917683825
