8
Energy = -53.07360791 eV
V 7.452649687954874 8.517491451255603 7.591820831452623
V 9.22986610255295 9.86150756672466 7.30511820641579
V 10.989600592023157 9.097203365054007 7.536042301027179
V 9.25191182775804 7.337309215531157 7.343262478707803
V 9.55236367133144 8.177060158262377 9.362141527294751
V 7.468736306716856 7.354297356713088 9.46592008201098
V 7.723472656140916 9.962274187271884 9.634272901194537
V 7.894418174976996 9.079993397527732 11.176243066548656
