8
Energy = -47.44457799 eV
V 3.869815373318991 4.768772041448071 5.55987817635823
V 8.589784736510415 5.003685444924909 4.813645834728154
V 6.206697150331932 5.066252873476044 5.326511672755127
V 7.7260167203312236 5.910968191074365 6.747595707655733
V 7.738747732197349 7.003784900681226 8.96649533266023
V 6.855414265977592 7.895749787035151 7.843437065445221
V 5.2818706296311815 6.7320246494390465 6.324858389361988
V 5.32316407051043 9.210272790730295 6.009088499844431
