8
Energy = -52.19686546 eV
V 8.208672230000001 7.327796757502143 5.715576735446918
V 5.2037328273650285 6.084608299862885 5.715576735446918
V 7.327796757502143 5.2037328273650285 5.715576735446918
V 6.084608299862885 8.208672230000001 5.715576735446918
V 8.208672230000001 6.084608299862885 7.696828321918108
V 5.2037328273650285 7.327796757502143 7.696828321918108
V 6.084608299862885 5.2037328273650285 7.696828321918108
V 7.327796757502143 8.208672230000001 7.696828321918108
