8
Energy = -54.52763866 eV
V 6.446601391053679 8.569251436369274 7.931128165723604
V 7.923148650194222 6.5404880120366 8.215110409007696
V 6.790738887086795 4.970763647280696 6.976357358525547
V 8.665083078077798 8.064892047271105 7.113340605718027
V 5.581311884804598 6.773985875947605 8.492926499366055
V 7.047412136161058 8.261213364058259 5.537119920425607
V 5.688322362831052 6.900533608312845 6.199010363085022
V 8.034561155977599 6.091469882342162 5.737474737134721
