8
Energy = -53.97567118 eV
V 4.026160104127644 5.2629102944462565 4.637980602728863
V 5.097477389802596 4.458585210542041 6.935383915954531
V 6.761085330183268 3.7295448840627645 6.732584586484611
V 6.408127370589287 4.589665068632981 4.5434465673118405
V 3.9142529299996083 7.081720453473762 4.495348418530117
V 5.22197018231935 6.891512959944686 6.475841404001272
V 6.937691620185708 6.083307342106437 6.59207955742899
V 6.150939742544384 6.420458456542923 4.105039617311641
