8
Energy = -53.98271078 eV
V 10.209019490385415 7.176768217600834 8.851709800806145
V 9.6572080145412 8.502548612590134 6.832876861043585
V 8.120061359553189 7.020554111882409 7.364915427664733
V 8.703534648073065 7.1197827595861485 9.922510943699276
V 6.607499420557993 7.884672764146101 8.931047605880787
V 8.831402437431553 9.328316805781855 8.713098766075914
V 7.230706112638644 9.037021671805231 6.75351313481465
V 6.62518460064965 9.859155372655563 8.609696045182496
