8
Energy = -54.20888474 eV
V 4.957995990877172 5.9144846959938215 5.58692453726605
V 7.41364286326346 5.73256365226339 5.427785374647751
V 5.661938916418665 7.499253502392161 4.955785527030843
V 7.918629195954107 7.545993431693463 5.942656469516766
V 5.869118468040787 5.765313866999294 7.863585092807263
V 8.324945689036838 5.804762090282779 7.723675996537506
V 5.4388310891217655 7.6138888700409275 7.404524595199839
V 7.704406675014681 7.413248764224609 8.384571308558261
