9
Energy = -57.10648869 eV
V 11.660747844928519 8.576817143598358 8.613217420445071
V 9.600920111138615 9.670633536074922 8.365968908746915
V 7.366993030164456 8.387736494281835 8.919582259987521
V 7.575908692565393 8.721551362046332 6.880151905761755
V 5.325218784735096 7.609412310760275 7.496294293616655
V 3.6269645458657096 8.04654485134341 7.593858481638506
V 9.786029692410374 7.3089347754383915 9.294544279667111
V 7.725925893864495 6.515655777908697 7.719475674488649
V 9.994731447486743 7.640019025105034 7.059803764362658
