9
Energy = -61.60761787 eV
V 5.5955445600288405 7.840897918189716 7.8046153344251605
V 7.778704257263077 9.105337011179202 7.461194218180463
V 9.16072752050041 7.206325590221891 8.434103470797085
V 7.30215485696576 6.242211629399915 8.989697529837807
V 7.26073658682784 8.425684244445387 9.365143035561992
V 9.007098197341886 8.004532631097199 6.022937622342684
V 8.09866848219446 6.0938744894607275 6.572599064950738
V 6.475701372206712 7.899700240924025 5.819879937742524
V 6.074327223964906 5.823210454743887 7.0211140671262235
