9
Energy = -61.86013729 eV
V 6.42329351598747 9.838007464142134 7.6713782975085225
V 8.80263619813443 9.112055181114636 7.324453830168066
V 6.691352511905626 7.900871936819691 6.281799375509134
V 7.3462937749900785 9.732523654498051 9.284891117792373
V 6.997431541153684 7.4478729040934075 8.475441672424818
V 8.670781199212819 7.113217808331487 6.358787771578427
V 9.17772843985383 7.70154597142193 8.894785683849076
V 8.622001734498282 5.453285610677292 8.249345063194317
V 7.080898746803441 5.348300567152991 7.232816576932661
