9
Energy = -58.80330382 eV
V 8.80415710553068 7.026141083272014 7.687866373194876
V 8.211380205006527 5.58046743748908 8.650641794052758
V 7.4303953503884195 8.015940695018447 6.310527392657843
V 7.277053313605853 5.384467402704062 6.359658448498982
V 5.945769334105728 3.829076407069084 4.848081775458857
V 6.316468591253968 6.956567184903907 8.131109641586908
V 5.686302616238215 6.228514756750701 5.705898504007411
V 5.3189354366388315 8.65045093841049 5.2572661099259355
V 5.02005658413591 8.348728877246378 7.04181400071799
