9
Energy = -60.39229975 eV
V 5.292778796768756 6.7431538945792315 4.748753206226845
V 7.515458993812136 5.794525084199882 4.131898180020159
V 4.289446703679702 4.68470901226307 4.185492348180228
V 8.041078677221654 7.153383161285153 5.1450559710672765
V 5.986422271307811 4.1418107089022485 5.284201810608975
V 3.751560029125515 3.8121525940656666 6.510500130116257
V 2.3651202871876937 4.474044885310608 5.6069263558702085
V 4.511021006183321 6.136928395200983 6.380107527743237
V 6.797525598590064 5.609704628069215 6.557476834043736
