9
Energy = -61.98975797 eV
V 7.406653233296229 7.106933326199228 6.1136608907824055
V 9.227729886654549 7.148731243343543 7.561975214983772
V 8.919338709322492 9.365403979086269 7.99518752346338
V 6.725168404150276 7.466014570114959 9.438396203656533
V 8.151130429645853 8.56629401451721 5.989175781627264
V 6.7696405551172445 8.497453876018083 7.7177802932820585
V 7.993285657066639 9.36371663167678 9.283948838641614
V 8.878595647961392 7.492891447271733 9.185990993721846
V 7.209759740407781 6.273862175394296 7.995187523463378
