10
Energy = -98.64275234 eV
W 11.245715227218342 9.070713882128139 10.78648754644349
W 12.258298805473352 11.34013012291397 11.263302236426028
W 10.989806704007737 9.842453701515968 13.10049456412443
W 8.762787871723747 10.470479094834053 13.379218439284061
W 10.951722066207347 12.805825594728473 9.328847295042957
W 9.726677084279165 10.680422088192465 9.354695067985228
W 8.83429007731943 9.244201187842267 11.438757094765252
W 12.09426500510975 10.367103871250292 8.602998698034577
W 9.899927602515763 11.860558368933109 11.59326101462042
W 13.217976932081287 12.299579463597285 9.1334054192097
