10
Energy = -98.76642905 eV
W 8.085190393432145 7.971302330390559 6.7650890265524835
W 10.43347015822244 8.831025424670223 7.0048771725257035
W 6.595411649231521 9.943125878798137 7.005181913932209
W 8.46472850528741 9.752446319675574 8.675730169545497
W 10.916652443950223 10.054743443509626 9.051213769788747
W 7.588030762726373 6.519412714188124 8.663461557058383
W 10.0177202287784 7.3804073748692085 8.880789112534133
W 5.928545456281313 8.452431301510453 8.564736749034534
W 7.776598061819247 8.146279954059171 10.466174126398494
W 10.131613811838806 8.886786729896516 10.860707874197304
