10
Energy = -99.41858779 eV
W 6.209738922781729 9.235748613583496 7.511880848556317
W 8.235275428675177 7.939651360763591 7.1845027821045075
W 7.0975283091387285 8.48034809307376 9.643520865988302
W 8.150977542817932 10.541392125900995 8.132986369012192
W 10.140102384735439 9.500021504604469 7.104074806540039
W 8.525211229714605 10.27058185746604 10.568716009570412
W 10.798997618245135 7.6355684455038935 8.628070070552166
W 8.638713118930545 6.5949667937458125 9.228348986774762
W 9.788704291491388 8.13068715363126 10.828978643664069
W 10.726046153469564 9.982329051726802 9.480215617236853
