10
Energy = -98.46768475 eV
W 7.739408197741533 9.581019138259167 11.277097856258163
W 9.042678124572474 9.974420534121267 9.188744317888919
W 9.367707937422432 11.757607646886122 10.831927980208663
W 11.318156093720292 11.428587971892455 8.82076627285899
W 10.516772495794825 9.663356615445336 11.588661863838263
W 12.78734061957919 9.929974100231588 10.076756622267233
W 12.109466693882723 11.813484325608107 11.449308139449984
W 11.035144808847392 13.402452765715138 10.151727356454652
W 9.024486352159283 7.777871033075383 11.117498775020984
W 10.928063676579232 8.540450869363697 9.366735815455264
