10
Energy = -97.4356144 eV
W 11.977622183143461 8.136891270740307 11.021032739892052
W 11.034427520376166 9.323280966092344 8.976572069610215
W 10.041280254003802 7.19291502089821 10.658443062429466
W 10.184265575131029 9.635660740731192 6.518681564238975
W 9.753006215167892 9.627946712324453 11.170980745958225
W 8.796070764219035 8.467140714150647 8.60124487199709
W 8.04197221524713 9.936694174210562 6.584611606499574
W 7.359632980685667 9.322437388950085 10.633299916382093
W 7.867508355247443 11.453492697821165 10.986731664065111
W 8.910446361329383 10.893752065806298 8.77793946165571
