10
Energy = -98.5454685 eV
W 9.327988042126673 6.896685361227185 6.415029378485025
W 10.025188525405463 9.001913565056194 9.693645364163656
W 7.742215580517477 7.051566529472747 9.932510855671252
W 9.745767900614673 11.442382835459282 8.440709283951799
W 7.962842758528342 9.382960519624188 10.995955441154534
W 7.582250181848061 9.693491865346035 8.616485846693907
W 9.789449287880155 6.660900710970653 8.73514859353468
W 7.306384968370448 7.369282616762943 7.634551304622275
W 8.856416039348135 11.54692250266029 10.431933066070998
W 9.584087837418272 9.124357069360181 7.309089075702805
