10
Energy = -98.92250432 eV
W 8.735841537848271 12.150442935477162 8.917098612670697
W 8.062300092908249 9.59318843051243 9.054924679365554
W 7.718909761933769 11.342006346677444 10.942097911015258
W 10.567403526771503 10.191899469886321 8.989976378419593
W 9.613317366782645 7.8189844877547054 7.8476494321507975
W 9.982775716489163 12.062020405815323 10.830832375911783
W 11.893044757555687 8.327100822192158 7.9875596726016225
W 9.503719270454619 9.456096953266213 11.187017169737718
W 11.09906026848579 7.650460923172308 10.093585075389347
W 8.71054146973731 7.331885638137815 10.038492379578898
