10
Energy = -98.65377211 eV
W 10.576993216336371 9.62501689451413 9.491102578829414
W 9.517258681262183 8.589512674503343 7.4417223095235165
W 10.358995361865883 12.142223489672627 9.36951630013247
W 9.13727673947436 11.224306307496253 7.6512061949318975
W 10.40699803956614 6.997301908938301 9.088531493742229
W 7.726939958043836 7.084015677266704 8.329846406040176
W 8.483257508131771 11.187098033781924 10.360632553022365
W 8.59092002771166 6.037190650099894 10.185469893315048
W 7.434933484843912 9.716274486168034 8.69562018534148
W 8.670328382497127 8.54039801781724 10.564141623704078
