10
Energy = -98.67437109 eV
W 6.818896647041709 8.148874693248791 6.426507672381849
W 7.877072397968346 6.039055444690779 6.845213289044524
W 8.516922735628206 10.074206210448919 7.230542514472403
W 9.462750679559898 7.873026027955224 7.588682468233395
W 7.37283627613399 8.997497963104518 9.139050963376155
W 9.13377573870234 10.925620384567868 9.460424515032832
W 5.819571319588219 7.172014526497608 8.316936128793536
W 10.896684114124474 9.671374484054505 8.864150684128484
W 9.420994300191982 8.08258802703195 10.047265650619417
W 7.792053544751236 6.127299992089828 9.192783867607396
