10
Energy = -99.04442891 eV
W 11.790638489671338 9.018856425142339 10.373522487081093
W 11.340771171221423 10.903411786950503 8.367979014617072
W 11.359469594715822 8.577366212773065 8.116657995037894
W 10.372258216418718 10.875665812285101 10.497356882063281
W 9.339634192275543 8.362025106634993 9.990723176769436
W 6.9428832758815835 9.72487873839849 10.185587259296224
W 8.962688744243 9.940380383810332 8.311705125051796
W 7.930270313830299 7.426916331757372 7.805215191756935
W 6.511782131627272 9.28370156127406 7.928754119034672
W 6.961704176285602 7.398897640973489 9.93459874929122
