10
Energy = -97.22758057 eV
W 7.9160502209743795 7.188912813849183 10.854706273735353
W 8.662943960232926 9.791752691492709 7.1149253261175724
W 9.44457675087099 8.638060292368042 11.917785594183488
W 9.98859782446669 7.076760170580807 9.737318628941763
W 11.58280312354745 8.085838764386985 11.144153695626688
W 10.57747307617172 9.553024065765971 9.291143185335187
W 8.210424692636755 9.40609521043746 9.677648006614445
W 7.231630255968389 11.324669732934096 8.221175613173894
W 10.73448101290888 10.829292134516228 7.061487508764012
W 9.41063369343593 11.925576833074102 8.686970229096438
