11
Energy = -108.50485547 eV
W 8.899304415882874 9.337108324676471 6.5604967910859875
W 5.527683404945893 7.766805230808448 7.840437786366062
W 7.771351543845926 7.123226906648466 7.213856408772272
W 10.44026359964862 7.849548229682619 8.040699571288432
W 11.231577691105143 9.941293538872676 7.022202664165153
W 9.65830181141833 10.220211108742594 8.889033103162044
W 6.913287226389835 9.72354470643971 8.144234298077894
W 8.858228591885132 6.213909034881213 9.208155089931697
W 6.877115344559734 7.500692374873078 9.82903459994367
W 9.740439676308592 8.235330732773512 10.414968283666724
W 7.704813397296502 9.710696514888083 10.459248106826504
