11
Energy = -106.16779923 eV
W 8.769950642726787 12.765557885721991 9.564333094665978
W 11.420762253339317 10.137089063032786 12.732828449930523
W 9.450527129251787 8.777433897213212 11.856647607830638
W 7.825745465953486 7.627931671493405 10.574644831124896
W 8.217719140748288 10.25849662147223 10.306506841420845
W 9.984535584140577 11.68196966352782 11.287532519076228
W 10.092964797423157 9.183983594404303 6.620546164895278
W 11.338461774144644 9.689099712481601 10.320643977051938
W 10.026939963971405 10.977047315974547 8.457150219060232
W 9.542986712849597 8.333406730309838 8.979579768647598
W 11.920096914569594 9.081061807990046 7.812740522159353
