11
Energy = -108.83446387 eV
W 9.961092163179314 12.338173210612744 8.61983193530128
W 10.119218382118241 11.311127303688824 6.506774492012632
W 11.558591169782806 10.610214938484418 8.830927509882429
W 8.619728656771205 7.090268104046911 11.856489944974276
W 8.37898827130299 7.7008064183235865 9.156897694168448
W 7.665192287416978 9.084865413717658 10.898046341142003
W 10.561702629420754 9.165835791103436 7.21982461327595
W 10.440240186481342 8.619745544996745 10.28821580495389
W 8.678702260910125 10.128172602763359 8.512293748864845
W 9.91422619311822 8.73300727168973 12.693687670843586
W 9.605704799497769 10.721170282512237 10.920397244580684
