11
Energy = -108.59623427 eV
W 11.940535839837793 7.731978935286692 9.374949838808229
W 8.327068331384677 8.068738757253865 8.005341694823908
W 9.745980000801973 6.997275815430611 9.681182542934494
W 10.421561257081969 9.284486802298286 8.192959017669649
W 11.210512453198422 11.59444398743604 9.648174845604835
W 10.740901341194553 9.433171267888014 10.843219348796003
W 8.32710343625208 8.993183841958418 10.622077097176183
W 7.7519896158866946 10.449282697153581 8.605826990424726
W 8.960914274484928 11.602437185329181 10.65304581065904
W 9.700451150308538 11.67832163371302 7.879832067515268
W 9.007883440865857 10.265500801907852 12.61747765091166
