11
Energy = -109.90732622 eV
W 10.383734897571905 10.868344171493987 9.91765221524422
W 10.765975977283903 8.44499963479415 10.193007574378639
W 6.510772394274811 7.033285139008915 9.162657933168212
W 7.376651812261807 9.135007177314552 8.100723707023151
W 9.303206733368691 7.370701432318375 8.527530316972417
W 9.391849598329362 11.221319931969028 7.594632319678963
W 11.271106228789925 9.556521820548719 8.047554382564636
W 8.095189679122168 6.2543339431162925 10.461119285232549
W 7.926173305041052 11.041326661049919 9.540675945948959
W 8.349609557020633 8.77865696798408 10.536148757522273
W 9.317113893478366 8.986887196944725 6.609681715351481
