11
Energy = -109.19013414 eV
W 7.570366740700078 9.091985527883244 5.449177162947135
W 6.85060576813658 10.468449501595973 7.1145976135807025
W 8.499704409687435 6.366486611838336 6.366219610595697
W 9.236147646145762 8.78748211389026 7.1725243115386155
W 6.780583788255676 7.731574616020976 7.511846647350614
W 10.442918497199976 6.562799532406397 7.860073084482549
W 8.212449214057289 5.509627329701384 8.545504936100173
W 8.111759542052573 9.679657896102858 9.224708584674723
W 5.75952969194392 9.266767637135308 9.167374070260442
W 7.21829946496832 7.234581704446098 10.034381427270503
W 9.60357066723181 7.586522959358579 9.839527981578403
