11
Energy = -108.84308909 eV
W 9.591705467762445 9.36182160661837 7.52882002360729
W 9.775238710504949 6.915333986050377 7.622761926056777
W 7.168093178910622 9.88999529438525 7.8879895981757215
W 7.868123099920255 7.657487448656973 6.090180564468932
W 8.104137741350284 9.878184628938207 5.580050314959057
W 8.601193942601938 8.20875702157884 11.226712830387111
W 9.460134101829981 6.3840206147862455 9.925498694073166
W 9.076676296397574 10.5108375604554 9.85629666217904
W 7.496183408053933 7.603365564699505 8.663547671923448
W 6.84853036435631 9.546779831157144 10.340436205903988
W 10.646042171210235 8.67947492557235 9.913763991164135
