11
Energy = -108.61983266 eV
W 11.824510595490018 7.738028491384707 9.66512822177233
W 10.960088233746115 9.734367828701323 8.038028285832668
W 9.264457789914541 8.361881454313874 9.4724215455729
W 10.577451554001723 8.368172865482281 11.601495860651637
W 9.87462975023088 11.806164985390373 7.508168050970478
W 9.492228355442405 10.62030327705912 11.293031369167865
W 10.790916229654751 12.073129037694834 9.594284937900472
W 7.443274247510929 9.087370188891388 11.338253469615328
W 8.354500217218268 10.624190701450242 9.105574673378351
W 6.622123106530558 8.782441306184928 9.344810469571247
W 12.095261785669926 10.017666034338674 10.278111820276415
