11
Energy = -108.83784562 eV
W 9.475302614434804 8.226859789897102 6.992234655518555
W 7.8968409754575255 6.517357942948663 8.068757672052014
W 10.980393872546 10.463479868161237 7.177597747875826
W 11.630134990228354 8.627866454629292 8.35465337643753
W 8.666517525688931 10.420416966421753 8.002141651104264
W 6.794068811551487 8.519302576542584 8.150251657538156
W 10.421223489753562 10.368987414595953 9.827355474088142
W 7.560303117331927 10.252541375655227 10.437156458419949
W 6.9149432890580425 7.936840950971204 10.477747865118653
W 9.139743392190892 9.327909461544138 11.797961397075236
W 9.311527848514727 8.129437198633106 9.50514197152806
