11
Energy = -108.75131381 eV
W 10.762791904058773 10.284395544201594 12.281868474019696
W 11.151970708176313 11.85025142460845 10.389098235948843
W 11.06922792629781 8.22597556824072 9.063310604194209
W 8.638459167660892 11.072596417930622 11.244432211434388
W 12.496795153216443 9.831132687779652 10.141558151655424
W 8.547387594236593 8.469223617105852 8.191625950510097
W 10.308212809457226 10.40153149735135 8.369140419124573
W 11.228354255180012 8.089169963235097 11.574293310962569
W 9.051061538159846 12.414527241035074 9.129452857577398
W 8.94621808353576 8.662995689686221 10.692601578759318
W 7.600615335050815 10.410763126819575 8.99749351088888
