11
Energy = -108.95625867 eV
W 10.350502006914605 11.026638191843213 8.937639864367014
W 10.884884346236326 9.191108895732066 11.033764648124569
W 9.595079705078087 10.932923749641633 11.507731637608412
W 10.581498694608205 8.427874721770763 8.371064784947691
W 10.435376278905311 10.081859655190874 6.562622577448903
W 8.408459648149053 10.911769705781673 7.190799795365607
W 9.07308827173967 6.989840191181609 9.932306089177022
W 8.349381881357147 9.72412528215932 9.525716506588264
W 8.393212065283716 8.336397171496195 7.396161996655977
W 8.631863574342718 8.511628002426338 11.819570748302965
W 6.953627076727888 7.532851622984258 9.420541145609157
