11
Energy = -108.52783806 eV
W 8.051696684836777 9.353107516172965 8.720986406879023
W 6.756444025308775 8.91503088068656 10.892594022075235
W 9.33217027304945 9.327559448013792 10.93833651772163
W 10.068523741302691 11.335102377518483 9.502054979087756
W 9.758850945399791 7.68800268431998 8.813280806652736
W 10.513246212217386 9.548946742130491 7.356802135992635
W 12.35121913979828 11.764473727374197 10.662194200912202
W 8.901215618808457 11.22139494938322 7.318507829144491
W 7.8781456612114305 7.093480617402353 10.466874161499154
W 11.656781528699398 9.544483830347925 9.675223540306076
W 11.14778497649635 10.706760658083297 12.132012801883805
