11
Energy = -109.65361576 eV
W 8.404744338892188 9.10344696513465 5.78227240442779
W 6.157075061030863 8.934402677241556 6.402993268806
W 8.081734762599787 10.555032744603313 7.6950103844457765
W 9.72845781104904 8.24273141572985 7.758801765771369
W 7.403833097113606 7.37164641278819 7.834885805510461
W 11.31339623594999 7.413817196814245 9.611715815381533
W 9.250590549725564 6.246591552142108 9.695985734901297
W 5.983595762464 9.744737544035775 8.592636081675565
W 10.00179705327935 9.89751988520387 9.49986330661924
W 7.923253983232582 8.726906229545095 9.852857131526811
W 9.837188900185469 7.8488349322834745 11.358645856456318
