11
Energy = -109.51794646 eV
W 9.690347604698674 9.383193183197967 8.245326280742667
W 11.277635384467999 9.45097648076275 10.35432260976131
W 6.571768415856246 8.270112200453111 7.473168506398282
W 7.683967738090658 10.778335142211253 7.849411729080974
W 8.292806026130183 7.127267502902946 9.094750711467386
W 9.121422192963628 7.419689940765369 6.842954619536013
W 10.659556700641232 7.228780442238763 9.617129159858612
W 9.450045872122198 8.328436544817814 11.479494565326242
W 9.176062964656719 10.631891706911697 10.625973439590911
W 7.343723695343879 9.314149208763709 9.750806370387123
W 8.021959966878216 9.35646414697464 5.955958631550254
