11
Energy = -109.30897565 eV
W 11.904477206437875 9.103541087953143 8.81073158098766
W 11.249390744172446 10.246390062624462 10.778476201544557
W 10.481566262101818 11.618022885183992 8.612905220256126
W 8.355235238074473 12.542483168475405 9.049446881102014
W 11.3830103989427 7.497601329973811 10.607137755875446
W 10.106253136602412 9.631896696752259 7.194207795663946
W 9.38116497130609 8.491404921927469 9.603424239738832
W 9.901571876383501 8.512652973413598 12.293649732386495
W 8.05475947147434 10.388809983988445 8.218652704351868
W 7.757699552750556 8.643860376447556 11.434485443990127
W 8.8427591581107 10.800293421362788 10.804999457648833
