11
Energy = -109.69953354 eV
W 6.6086350545307 5.8889599352826725 7.281628558848925
W 4.560214312178904 5.450929674448561 5.854352578104873
W 9.5335651727078 6.103767643588056 7.352411329054519
W 8.026840060861947 7.028778125134519 5.566356997193426
W 8.22858580680478 5.0354220656549185 9.024724883992462
W 4.008636177062515 7.2858850441788165 7.182731661045051
W 5.36712137650599 7.61428737520096 5.2957648173479015
W 9.333880082578323 8.515013429457643 7.5524163524255385
W 8.08546790994798 7.331351263545308 9.35271109259763
W 7.7798445474106135 9.3651353517824 5.855771810359784
W 6.457847729011505 8.292374821552576 7.607311272528379
