11
Energy = -110.34151332 eV
W 7.354846007166267 7.8078576349956315 7.688215815966261
W 8.32039653940742 10.598496563469222 9.969356992630937
W 9.718630556592538 7.414313401952853 6.586034114134408
W 8.55017056889211 8.050030845623695 9.924083405209428
W 9.143400800158208 9.619768664428227 7.75218733834472
W 10.353774917499715 9.411366506841574 11.13377392591107
W 9.218433601004463 6.089695078966239 8.418733282628574
W 6.7037628844058785 10.389003034986949 7.908997315257041
W 10.863860636288504 8.103512068081177 8.860393551910052
W 6.201966054066457 9.062173085141628 9.747215627212157
W 10.855813434518568 10.73883911551281 9.296064630795234
