11
Energy = -108.20465132 eV
W 9.999821225385677 10.126318433447905 11.250093600345764
W 8.252142152917397 8.521373389323003 11.623544055623537
W 7.187583274034747 10.27117652402434 10.733914231298723
W 10.971464863804057 8.000009312154233 10.696740236225391
W 11.82429387646374 9.396681982879182 9.17649829220409
W 9.110951850586021 9.63438749378168 8.897057493346997
W 7.126783509442995 9.937974256056558 7.165177845236505
W 6.992358641443775 8.463503502790854 9.155560946415367
W 9.644764527148789 9.473283992426046 6.309278860487478
W 10.449252687231922 7.820727062019611 7.9808127497813155
W 7.99145257982623 7.911011223635207 6.546408501245261
