12
Energy = -119.04730558 eV
W 9.531197243090471 9.76103211875754 7.321275064325339
W 9.03305432870141 7.434313413043946 6.570451276420229
W 6.998827729138809 9.112277305245367 6.594687283137736
W 7.789277423384343 11.358259953006606 6.8856419793961905
W 7.033195439003217 6.495529011237456 7.7791697561101065
W 10.832377302449066 7.598444025867898 8.346682085740369
W 5.75809605385953 8.307816892037698 8.610648226108836
W 9.171276971347973 5.920137017046566 8.9116311869274
W 7.448621169830802 10.199850955609985 9.046286719269117
W 7.61766849396286 7.754457017329097 10.199092280395627
W 9.73015683769164 9.574860081371641 9.83752828210682
W 9.912371300656218 7.339142502562145 10.753026153178018
