12
Energy = -119.23768268 eV
W 10.187598520753633 7.193461460824763 9.239860467965864
W 12.606030700514811 11.603299479746882 9.37193869012258
W 11.058454827361597 8.158782507008707 11.27595992381276
W 11.950032453688026 9.24418483143512 9.068425516147158
W 10.661981272799387 10.637666225452747 10.733045010536465
W 10.69160637202153 11.779970940299826 8.217954065238162
W 8.481403270317447 11.11228817096345 12.054897925066937
W 8.646638624887627 8.889504254750708 10.83441437201752
W 9.524449717896447 9.432079694861597 8.314849234433277
W 7.689598583401808 7.343579235669226 9.068997634809492
W 8.345725674298022 11.459451931519347 9.774983275474089
W 7.033680596880797 9.510659030605852 8.663204305224289
