12
Energy = -121.04625944 eV
W 7.758150457864488 8.41156859946475 6.745589337014892
W 8.37979639921668 7.316836996404709 8.29969139415998
W 7.746439572884191 8.076265856685627 10.780257605083944
W 9.164221538268603 7.325919193717935 7.04801728916498
W 9.794592368697092 8.763151502694267 8.294323827208382
W 9.163735248441961 7.307518295888658 10.418477166041367
W 8.044824922186493 9.937521983552134 6.8414553847182855
W 8.05509797568002 8.988960157163005 8.45678822414023
W 7.707654042002029 9.644507075908251 10.849748836522034
W 9.488180069327845 8.808597777715764 6.366749411030531
W 9.31712558740297 10.243947427574444 8.294323827208384
W 9.14958781802775 8.944610133230247 10.59060793614241
