12
Energy = -120.25443526 eV
W 11.694881858483182 11.582601852930106 8.387182764413247
W 9.72900965149765 8.558137604025427 9.354658548054262
W 12.253929157967015 11.261097086381234 10.734789235638727
W 9.80856167635848 10.876413120526045 10.393352286487023
W 10.413042686888065 8.52055480538374 11.91682985194163
W 8.766248023209965 7.09142231835167 11.244770898520592
W 7.429091359305816 11.662887410247649 10.084478771933863
W 11.28181796349796 9.501431168096207 7.367234344407884
W 7.982393844753635 9.349823939071637 11.633198574251312
W 7.341273304927516 9.566787461544754 9.258615324260687
W 12.127260025022991 9.162667461354292 9.712432983289075
W 9.268471662648409 10.965486775029525 8.002308872833202
