12
Energy = -119.67663891 eV
W 8.226743808272134 10.875932663649023 5.81681372737955
W 8.04803376188282 8.519823821978457 6.331954113522797
W 10.214160876698221 10.440594838561738 6.737070048874608
W 7.789379063845473 10.40897186768342 8.217332589437262
W 6.949696542159027 8.050865058271127 8.57004748329185
W 9.660132844600886 8.269031835754019 8.213229858244162
W 11.055605290472974 8.190860083157354 10.670136230555386
W 8.763245016302115 6.598637438051064 9.816631763651065
W 10.068771210447501 10.42818943953801 9.374619600089325
W 8.097660042456463 9.099639438456366 10.545356572925341
W 9.231000323743773 7.454055042062365 12.044075214720126
W 10.130030861043206 9.897858114761492 11.897192439233118
