12
Energy = -120.55830266 eV
W 8.47780561590304 9.05703046087596 5.6510468285848985
W 6.89048756322365 10.30067267908596 6.678756215329462
W 9.436304550953402 7.502851910361646 7.457112010997911
W 9.622717135129765 10.18588161884392 7.523117039253348
W 11.223789972250685 8.772848297373212 8.951250141043548
W 7.325650274141068 8.390303295036102 8.185217071151252
W 7.852271111129371 10.904301609109984 8.982313046708583
W 9.899797469655823 10.201416960945728 10.363504605799452
W 7.567613006554681 8.895417822669813 10.69417705782568
W 9.231964388923283 7.301503668712637 10.010838152651935
W 9.485389367687672 8.865190582208399 12.396949084381012
W 11.231375115676645 7.867746666005717 11.350884317502148
