12
Energy = -118.63539444 eV
W 8.794442965591879 10.407620721069883 10.264812345723966
W 8.672758667769248 7.059179108513787 7.2009602083964594
W 6.699103714449953 10.229523321540956 8.811885180241584
W 8.830644790637786 10.585206241610315 7.420957901983441
W 10.365004295309213 8.537488928734529 10.704400552179045
W 7.04984254352763 8.683148572747406 10.688065137747268
W 10.416747244648684 8.782411960851904 6.778711289995326
W 6.57155453334351 7.4243691172193875 8.634325146904017
W 7.101323298752789 8.929941334210227 6.762611093107522
W 10.894711152295127 10.041968484148043 8.832000783764704
W 10.767582729756498 7.237005155986829 8.656048500315631
W 8.635566022243195 6.881419095041586 10.04450402633959
