12
Energy = -112.98071885 eV
W 7.693705662291035 7.696492181521059 6.420620907760268
W 7.649969212872713 7.647718224716952 8.922636418737001
W 7.696455487015866 7.687877487766814 11.385492372841727
W 10.106318909746822 7.695834638176975 6.4101564041389585
W 10.160657268665434 7.649412726497474 8.91083340122805
W 10.119276151335336 7.6974428883369646 11.37379384821691
W 7.687721261281317 10.109375348184939 6.415669216053635
W 7.64617746258808 10.158278130684922 8.916249862283898
W 7.700764940006088 10.11083785639059 11.378922663432448
W 10.100648713557892 10.108534358698817 6.413787194115086
W 10.156701566222567 10.160085505981778 8.915525834141425
W 10.123807438617625 10.120314653042476 11.378515951251108
