12
Energy = -117.73444145 eV
W 13.01546857815947 9.809340470295842 11.250815004069636
W 11.541180476011519 11.545581912542257 10.713707943487377
W 9.783198703161752 13.057124478226449 9.375017809142857
W 10.600840217563276 11.344055428646774 7.986456971101438
W 11.185363859552597 9.201171664419606 9.680112978326983
W 10.718786098850579 9.529624288041319 12.35674142841523
W 9.008182485768597 10.775890638494383 10.489653371630542
W 8.325469303951882 9.643759620457555 12.567345839053308
W 9.090226271709565 8.003980630028824 10.970096900905558
W 10.145073612707876 7.113444990058379 8.827429654373237
W 8.903750245195697 9.067047572013811 8.464434140785013
W 8.277601336218432 11.637882303379401 8.079931099048402
