12
Energy = -120.73674588 eV
W 6.967276842399683 10.273381168496524 8.445689005631092
W 10.30650228503611 11.780633753107047 10.41414974064292
W 8.238119523590376 10.528060575923446 10.880541724619366
W 7.686501983864697 8.173265419520824 9.350318424840479
W 7.833276132819034 8.744863697864872 6.637759816633084
W 9.411800792595656 10.30622119926512 8.44403054494722
W 11.852282485939803 10.046807077616352 9.668121328953651
W 8.743605618283203 6.751500563364078 7.634070679115697
W 10.266938789955516 8.471442869005829 6.902601920142903
W 10.786446857227999 9.74529454557454 11.77302136143385
W 10.309191408442668 8.11804226400797 9.465358074759184
W 8.842322480421647 8.320228971682324 11.666696028723647
