12
Energy = -119.2425348 eV
W 11.659007736262629 8.953078773330727 8.873281591204062
W 11.05222645874297 11.826227621482763 8.87943219957956
W 11.662087831447442 8.461435385784013 11.424745222226413
W 9.282114478565074 12.52417013337225 7.695264164096834
W 10.118907518875378 10.347988355463363 10.840399176938744
W 9.649467763370193 7.986392899307912 12.34744034545448
W 7.8436783281416105 9.553270133579103 11.546559687705532
W 10.436105965641177 7.550900486244955 7.579672963945316
W 9.386800048052656 9.955745552686317 8.021744539803992
W 9.337337439750248 7.922486421770104 9.813460821913097
W 8.299460109068999 11.639055132994192 9.724411878757984
W 7.264521821296772 9.284507586256733 9.23703833388284
