12
Energy = -119.83683316 eV
W 8.917378464581706 8.56198981328721 8.063363899796313
W 10.185262442012494 6.735398020908375 9.265934270523314
W 6.845788632467834 10.585500095588127 8.19740001358193
W 9.194262140550679 10.958768436546311 7.5060589388077
W 8.876149486181161 8.239857191283493 10.784748261005479
W 11.052580204835456 9.523325688976842 9.359403590551542
W 6.802338638657826 8.669387664804457 9.406098890747579
W 11.6701967506904 7.468358372804388 10.811418517009782
W 11.191204969472585 11.933936126548575 8.758739018188813
W 8.758238536012538 10.773907294178972 9.935771135796854
W 10.725389521110111 9.526679654438427 11.811436933686476
W 10.683940913696263 11.942020577438445 10.991070657617872
