12
Energy = -120.85099415 eV
W 9.700426941804338 9.48213630432478 6.972252483478612
W 7.696218823316551 8.496934900042573 7.829459830327132
W 9.62112831751276 11.813588947570643 7.68549976585142
W 7.3447010592273205 11.061118112477521 7.647029258450559
W 10.241451707809853 7.047925377995772 7.976437342792137
W 8.081658777466012 5.972603559112329 8.107208707682004
W 9.174047934905051 5.629545362073416 10.152695854538006
W 8.742296766656576 11.798571077757535 9.875351156232258
W 9.71282058994897 9.492483432541317 9.466284035976008
W 6.9770193553033995 10.202567659738971 9.893823124455508
W 10.808248215839228 7.313917012137186 10.287339631094296
W 8.035154575264933 7.82378131928311 10.241791874176634
