12
Energy = -120.29135293 eV
W 8.7397570298449 7.5956503776659705 7.152212905985622
W 6.34331986571196 7.425684282919884 7.621062767500195
W 9.539562713025283 9.840168831491683 7.6735221077220555
W 11.470523174965562 7.7628698775719425 7.251032206054917
W 7.046074583591381 9.838887037068572 7.273057005833181
W 11.963623990862345 9.541484684915702 8.48678642262698
W 7.538090486929398 6.733966147432348 9.583257595672695
W 6.074405661212103 9.06689792590837 9.602949466023203
W 10.0174118644793 7.515865982569016 9.266423412204306
W 7.739360775789688 10.816867893162092 9.369332115578745
W 10.088560971137426 9.767305891397868 10.224847246913319
W 7.97091321798994 8.625955403436127 11.027121083423916
