12
Energy = -118.71242337 eV
W 7.398993156352078 10.84592441589982 10.776028389655167
W 8.634836708545775 8.724745992326282 11.330141414986118
W 8.060449219438453 11.439945927658458 8.331797056720204
W 9.778368773434188 10.441549479678905 9.893827161426628
W 11.236752617408694 9.034968557518926 11.49457195461915
W 7.073620926038272 9.22692873453075 8.957150572953703
W 10.966207880154524 11.025690628771043 7.666682561655584
W 11.518000420713774 8.93837255521734 8.873115502244945
W 10.892014318536084 6.962093193488157 10.751424877111983
W 7.512321234986387 7.6002240623970785 7.168540653659278
W 9.183150909508303 9.489305674071336 7.15157168946589
W 9.213761989737135 7.715832988685288 9.038566003931157
