12
Energy = -118.7791787 eV
W 8.259071061553806 10.076707013009559 12.849487392857775
W 10.23087135063311 11.92620924315232 12.750101054383045
W 14.663611917708284 11.729492269364558 10.688531077954345
W 11.62135519421631 14.044518433574158 11.43798487503706
W 13.238468058855709 13.416098586004809 9.419582982444648
W 14.07522329519759 13.79147488401888 11.682271578033875
W 10.855304144405142 12.379395008336212 10.058310768695872
W 10.91622143187917 9.987524737988728 11.624109240944806
W 9.57164503084514 8.147738298534646 12.693527386508547
W 12.733109850497561 11.702017449926814 12.291504119401818
W 12.595068789808558 10.864929660132693 9.655664907081833
W 9.889394734313838 9.859333185785664 14.336157757667866
