13
Energy = -130.63652576 eV
W 9.039911740593128 7.159227866209989 11.008502554074484
W 10.917007353272552 7.128968276614454 9.534778600571359
W 10.172731019058723 9.44379144746706 10.637023765798821
W 8.31904211959702 6.909596848275021 8.626590323397224
W 7.8460242972747425 9.266567927819588 9.955069093901887
W 10.35945802178463 6.363537730421665 7.272222027736355
W 9.208227772183186 11.492177395065836 9.198602253147344
W 9.891165724806982 9.064931810578761 8.089694402624787
W 9.012290871883067 7.954764558909509 6.086809581637554
W 5.955335774702008 8.264594885827515 8.433307836735988
W 6.957134955245231 11.592569153004506 9.079018405551533
W 7.517571005436333 9.900590266603116 7.404788515447537
W 6.674028849035918 7.329343526650805 6.521514796784842
