13
Energy = -130.77605769 eV
W 9.836521179757513 9.52036501770941 9.896050724497721
W 8.208848856569649 10.407183776903906 12.022697366128963
W 8.958842733870895 8.027216668667988 11.66263570891933
W 9.620130813914034 10.897106202704771 7.188586869963913
W 9.445614645218082 7.9141302599225 7.794653532797883
W 11.013240429917948 11.693228932777325 8.740389183567288
W 10.85153370566009 7.2659681958163995 9.54583381798144
W 8.448397647183745 11.544493806981272 9.759412295522898
W 7.897322551980133 7.267730497493658 9.751388531451592
W 12.346963880765632 9.539534002029479 9.657998446422594
W 11.619064568465177 9.204112162841511 7.53431163345391
W 6.690534092678521 9.345966093993386 10.599554365289078
W 7.548094477368077 9.858073882158507 8.331597024003228
