13
Energy = -131.60757151 eV
W 9.286782273275724 8.737621866225702 6.742261737927328
W 10.794103573208398 9.088661844229783 8.861474153566993
W 8.432635720890536 8.344657494082583 9.284506828836552
W 7.62134369830298 10.096371496071175 7.380046973353236
W 9.982664943185824 11.11715301013421 7.431629729270637
W 10.650087232612586 7.557800556471376 10.992534583470844
W 10.48704059361377 12.683821168917033 9.401084222654406
W 8.400036921400842 7.21062973262965 11.623380146008365
W 12.167071229984455 11.329602021443687 8.784326490713408
W 10.80885860291771 10.474624150981073 10.953773519904805
W 8.672411713951432 10.811635005687277 9.67317339315642
W 10.268567830704978 8.869916931870435 12.926630802975334
W 8.23325025582373 9.550315010496556 11.942221705382249
