13
Energy = -129.8210649 eV
W 11.545401022565565 11.275821386679945 10.002003221755487
W 10.623209472302346 10.578160511348454 12.395370514080597
W 12.377137420245168 11.128798306296076 14.265565245066806
W 12.444742480425123 13.741030234057739 10.029619984752541
W 10.106775330026904 11.149770740995697 14.948600082867157
W 13.458248100936338 12.290837338276866 8.452003682203545
W 13.130794115241738 10.20639841795944 11.843690811231175
W 12.624691833940267 12.678986626758812 12.301432206512526
W 10.512948591922664 13.317851510349511 14.054547655199032
W 13.614796453926267 9.979686843676468 9.399774030964226
W 8.672982592580118 12.011994390189638 13.081503138783718
W 10.24331207123274 13.018354156295032 11.412769940860356
W 14.643491070692338 11.932097430024125 10.481191086274205
