13
Energy = -127.48730575 eV
W 12.544777394152995 10.147819693603122 11.84154452388196
W 12.021632891817301 10.718269985229187 9.473168072648699
W 11.412211051919664 8.369119788127195 10.515873548766747
W 11.384747831596112 11.278060245477016 7.120470408475807
W 10.164096464135577 10.537232021847041 11.419463032465153
W 10.76260757205526 9.002152708547332 7.887609407341381
W 9.740398592960785 7.156252533781691 9.172636901357462
W 9.487786309145708 11.195246057840249 8.672614749274903
W 8.757922390038969 8.252145907351778 11.158381432695247
W 8.244021638083767 9.941291847235378 12.886795218731143
W 8.09910633400906 8.889113998574837 8.507644158450553
W 7.702455536621051 10.552961821465374 10.494890395164154
W 7.063563476422239 11.081791315421826 8.107421084578924
