13
Energy = -131.33660068 eV
W 10.64494637172794 10.438000663370815 7.359298451565431
W 12.593682111987988 9.007188354778316 8.787153345179975
W 10.477479971728085 7.920086821043836 8.211399755797908
W 10.680946237940791 7.047085481183975 10.455262640411405
W 9.811755384124119 11.874979751052502 9.164861810887999
W 12.394717671959942 11.346594422404841 8.537573799865028
W 10.749845807556024 9.794448002974514 10.253741556931725
W 8.44828914595824 9.621601046133204 9.130205949527333
W 8.511041098207839 6.974515406880612 9.724494032482433
W 7.234214989939815 11.819673679167588 9.59243105613193
W 8.780038078502141 8.529244832251777 11.569092893892744
W 8.478740995346943 11.394501024208633 11.493455553234098
W 6.748525067876315 9.842293499898194 11.183086307414138
