13
Energy = -130.50108541 eV
W 13.582906439827939 10.616225044051323 11.237264967746153
W 13.74404619402373 9.471451123796715 9.243092488753486
W 11.962773410959496 11.206113355298239 8.98896092771858
W 11.138762254844194 11.529700952510414 11.27971023527755
W 11.876048101572962 8.97393085053154 10.871922951689031
W 11.042371087167108 9.101532381552078 8.327007448896614
W 9.241468859360817 10.826647234147773 9.432644848387719
W 9.452468973880519 8.193141762654458 9.91181803753881
W 9.537430541955999 9.796762658070408 11.921391645539936
W 7.8837511769929245 11.541786921961018 11.51189641209731
W 7.808575366894555 9.06619891945919 8.335965014769679
W 6.689162491802266 11.20189817463442 9.217225412599197
W 6.932060642026753 9.440150721578412 10.659750051847364
