13
Energy = -129.60162532 eV
W 9.18596151437583 10.018066898975707 9.260513375540821
W 8.378058291611087 9.2790419256937 6.834038811710323
W 10.556123001623058 10.325206175113676 6.993649257974112
W 9.94082194472789 11.425553890168885 11.395279594804252
W 8.468407717753024 7.8173947651941464 10.541909293435898
W 7.856953237620022 7.320380551382461 8.186658688413821
W 10.284349974394004 7.890508026924102 8.136804696716153
W 11.182836352281292 9.112886714633596 10.742813159208037
W 6.649239594470407 9.215019484022376 9.107358487804946
W 7.371533706932931 10.187089660398714 11.205180595363487
W 12.225853878855471 9.397734210155141 8.495528855943517
W 11.40719065700966 11.476162841153387 9.467044126420722
W 9.314512541433356 9.289354311518167 12.370027487765164
