13
Energy = -130.90288663 eV
W 6.899305464386718 7.619929782450546 6.860942704845975
W 7.974994418348471 8.182973051389139 9.043681653524157
W 7.5346689120605355 7.595831717385733 11.432751263657648
W 9.185399417816953 7.800550689733613 6.4128185340089985
W 10.437325553338084 8.499097973003629 8.709054576885118
W 9.873900553425797 8.03923939083651 11.292830893151901
W 7.4317045018975465 9.915568493320388 6.7475451082669
W 8.628633299426893 10.57905851118261 9.043862943180814
W 7.732435109216561 9.894066759575596 11.353827272122958
W 9.802024739586622 10.084861812624823 6.679867210426484
W 11.122346977006785 10.990950522650534 9.287788450824852
W 10.177123803383955 10.527732558615321 11.51803214869869
W 12.061535750104957 9.131537002021712 10.478395662002162
