13
Energy = -130.90764234 eV
W 6.835821113117959 8.500957572861664 8.517206179179654
W 9.537260580227995 8.195440613572401 8.964654305035339
W 11.187012893950229 8.683294626215453 10.770506049120774
W 9.87295341264902 9.491280415299332 6.930822075727612
W 11.913477954188442 9.649587785316529 8.28343462494253
W 7.695787445323889 6.72361679266739 9.874665130109493
W 12.28391253793255 10.943331500181264 10.427543094925262
W 8.798714171401068 7.754078662420349 11.702908521333939
W 9.504312000790591 10.441313056083077 10.74787688829606
W 8.325985872509696 10.53396599377447 8.47833645039023
W 10.663044853979953 11.71626031424712 8.356839887613424
W 7.174721086458335 9.232217157349666 10.827573470580685
W 10.699032146743681 12.62669157928512 10.609669392018409
