13
Energy = -132.39977578 eV
W 7.820467990587017 11.588661732842018 8.680134124569088
W 6.832865733793669 9.185909036359105 8.965214789196079
W 7.147360302896106 6.734528601536879 9.119248841624307
W 7.6256264140021015 10.113880459409422 6.729774459140254
W 9.114433694478143 8.213554012972386 8.031622662565734
W 9.329995429727225 6.937221423208353 10.355923982181142
W 10.065421100367987 11.846855709389772 9.13039942529435
W 9.075042755091834 9.585245129604104 10.325723306851627
W 7.125975815910604 7.94393611668297 11.117696851922169
W 9.82152346938336 10.781172510278976 6.934859583439553
W 11.23712315899236 9.610488772109253 8.79373997012419
W 11.373130757944894 8.304966178250561 10.893302033310976
W 11.392051876824837 7.1145988173562085 8.883378469780022
