13
Energy = -131.53144107 eV
W 9.894395887815378 9.170666442469626 9.005948576543998
W 12.077972258540875 10.158279985161744 8.843979152257017
W 11.834527587299107 8.220015800057004 10.318213575744252
W 10.504001095037168 11.87964218900138 9.83598624100476
W 12.525472775714997 13.311330638648194 10.380706932802916
W 8.560398284116822 10.454600595705841 10.62815682108852
W 10.038727372377078 13.596065220371683 11.652707819920094
W 12.613436934727305 10.913174878282856 11.193828054178784
W 12.013498327700361 14.731877898478086 12.178859860400395
W 9.575704293368103 8.493959214404203 11.60726473917875
W 10.23183697058081 11.173406687318836 12.404608151973987
W 12.24072046447359 12.577675083816832 13.071565763081859
W 11.64723645993091 9.077234077966876 12.636103023507426
