13
Energy = -130.68447104 eV
W 12.444374091967445 10.655318552286595 11.559155820439967
W 11.587438173749378 11.688179757525116 9.387764271292536
W 13.100072732671945 9.34556888995325 9.737644844415161
W 8.9413975552512 11.668409272416216 9.464896753221817
W 7.58920949907967 11.684729165029651 11.997352832299269
W 12.171595679877175 10.120008287240662 7.637554515759279
W 6.727455344482053 10.223144834123618 10.315924716919621
W 9.82541439551064 10.258349363335608 7.660690552864786
W 11.176029101382387 7.954634776447534 8.902248768013443
W 9.955788357048595 10.90089426871478 11.556112997451564
W 7.861449907192545 9.306416027309595 12.14331065602184
W 8.988022812003827 9.068632610809619 9.753378616111297
W 10.979550565097002 8.473512410122252 11.231762870503605
