13
Energy = -131.25425239 eV
W 13.297215374992925 10.151225201438514 11.052516950777115
W 13.057084556292208 9.695511308198117 8.707290050174803
W 12.706308315115843 12.125112570158183 9.235231426145376
W 12.167105980390387 12.211993090718124 11.572495470329674
W 10.94974917320023 8.966682762707052 10.002181430930587
W 10.932788659181623 10.082194629284611 12.18472716639752
W 10.989498970372837 10.927415699698733 8.009521596811128
W 8.90831195996545 8.237041359375123 11.499478715452934
W 8.781610189268934 9.616882040121935 8.934788326420467
W 8.4317849860718 10.487237971478145 12.389289360686211
W 10.017973414450136 11.552256011504728 10.20708563009348
W 6.980580530676143 9.144348983396243 10.467674108001528
W 7.475404992361302 11.497515474260316 10.433136870118982
