13
Energy = -130.53980003 eV
W 7.853437465457448 9.630596761138321 9.806692547321147
W 10.390322622735258 9.394363077876946 9.65618649412471
W 9.133642238669093 7.406894766353231 10.923772698207248
W 8.922226007251448 11.466118143247037 8.22323892255873
W 6.550822856974779 7.993582159048396 11.04910664201032
W 10.419897571640533 6.897997637040548 8.96598519934804
W 11.057648222335477 10.916488269650658 7.799175374941591
W 5.624609079948113 8.180019540042444 8.953380243582911
W 7.869040177401265 7.131665863817453 8.69554030251872
W 9.576005749496364 8.897889161841768 7.249736850424511
W 7.120706896880756 9.604542535084924 7.372768583419427
W 7.421397699374736 7.31265300049673 6.263141007292315
W 9.565218544242532 6.541164514220439 6.481819993803912
