13
Energy = -130.96201861 eV
W 12.112550635579046 6.7065053047774095 9.995136027440099
W 10.19511197477371 7.858042627999739 9.157374650551628
W 10.312892317324772 10.437981212813282 7.891763987884404
W 12.332879609932125 9.10371282430925 9.488659657481028
W 11.452313224488046 8.844568103137325 11.680750021241256
W 10.266620118123337 6.806290589161149 11.5282017837261
W 10.099773354934188 10.739004722195457 10.376442503396337
W 8.268750850056822 9.404279139446535 8.616494503905852
W 8.58590172397644 9.003389727277382 11.097238613340984
W 9.977040658465194 12.817382576003226 8.38268691744164
W 7.296597515228668 11.209708028658836 10.592766949725894
W 7.7626629335473885 11.855578345226336 8.269278857920202
W 8.934076544017387 12.929751887909342 10.511847341679326
