13
Energy = -131.36863126 eV
W 8.840613108114532 8.484933660086426 9.187666429149884
W 8.916015095476082 10.563423100061131 11.19083090841237
W 8.916716056899727 8.36480723625288 11.84326713443454
W 9.065144044145683 9.954305534002723 6.851342636855021
W 9.053514538477582 7.546588450765824 6.906530271500298
W 10.376295884680964 10.761661787073837 9.045549439682555
W 11.064950338794867 7.019217381742308 8.37539231968312
W 7.43410295925544 10.82235079245637 9.202659360836597
W 6.788819725599689 7.0687139422750285 8.309058698925613
W 11.061372820463774 8.77355870385848 10.222221161072566
W 11.409431006769125 9.088195298154416 7.402260547792224
W 6.7882367550815825 8.734335878144911 10.376587993829022
W 6.661275241281164 9.194395735125536 7.463120672866642
