13
Energy = -130.45444694 eV
W 10.310907951993528 6.801673703522176 10.551416282432323
W 10.500895590582914 9.289809611473942 10.351604735502008
W 11.210958162462738 8.204913992655298 8.232496740110273
W 8.308895755703599 7.866365805974607 11.47429289284748
W 8.842314229488549 7.624369722121406 8.691001805184888
W 8.865038487378047 10.182682728524792 12.029325377175143
W 9.808043066049407 9.231701053447036 6.434392176401961
W 11.263878012118848 10.685807445379702 7.902678130154069
W 9.783597978287094 11.577954837246002 9.709253215447278
W 7.801542240247879 10.080308336463046 9.761333634807139
W 6.584275818502576 7.893623799945561 9.740679983698806
W 7.514946272103598 9.292804151336137 7.421753348530445
W 8.884629350731428 11.387100744544835 7.386561994490373
