14
Energy = -141.62657133 eV
W 11.887129223130714 8.607445192866063 12.284935438946045
W 9.849815965168872 8.833033627868996 13.654891473380205
W 9.892465129373214 8.17469606784184 10.948692646464021
W 11.081780271972377 10.886102993086677 12.94542675302218
W 11.41432954272256 10.28562719102175 10.330942950453567
W 7.938983187076834 8.604533384360645 12.274951793019811
W 10.360089142206045 8.867676855815375 8.356845589528461
W 8.844282519169603 10.500330050075792 9.189005338730325
W 8.944061914789142 10.779274768612353 11.851489833903301
W 12.447350909011652 10.292795285326195 7.965822909847742
W 10.304608407185848 12.540452084120986 10.55355993889024
W 9.448139406318672 12.772781885416855 8.227443078440203
W 10.245361231710536 10.93932810032799 6.917077198002424
W 11.875824701198319 12.486880499529772 8.557005552936104
