14
Energy = -141.68623441 eV
W 8.705235770849272 11.904140358402314 10.377237360199173
W 7.9908306458858345 9.257135657294514 6.381510822868519
W 9.553760202766806 7.626618701876262 7.307436297436901
W 8.564961550850395 11.404600600660201 7.8029023022184285
W 10.501249692822023 10.054244315791863 7.554747553541866
W 7.548461416722981 7.53836066576543 8.529397974391863
W 8.476553355683691 7.554111523764551 11.234516768271138
W 10.177345207533238 6.901123082943008 9.830639432065784
W 10.8179663164421 7.697428744465035 12.069140013247559
W 6.600506520284027 9.81121576400974 8.175923652684013
W 8.912264116782397 9.44169556537267 9.551437176501608
W 10.039234929137162 10.091739552324414 11.771495343619195
W 11.56259439036829 9.294418484778557 10.21990813039917
W 10.830711647751194 11.704842982551337 9.47538305449424
