14
Energy = -141.98689373 eV
W 8.63861125683308 7.604360280057229 5.717965749017716
W 9.03974109931532 10.003197097770762 6.067235283158877
W 6.805670162856321 9.41045461984968 6.8535226364031026
W 10.602174628587527 7.881257901777232 7.073217706931428
W 6.72971663572709 7.019942002324714 7.1144674477263345
W 8.845541636225422 6.505284318719633 8.38091320337425
W 10.69299805446113 10.204203538764949 7.829033068810595
W 8.310540483527753 10.480795598859709 8.78524336098573
W 7.147969809195738 8.263942623750916 9.338241541057057
W 9.848955349235839 8.581381388443186 9.633334583173772
W 9.674155627522275 11.000121097116416 10.81925981329916
W 8.295034267067521 6.984607744386898 11.030562682058548
W 7.847061641371097 9.7381069146855 11.522800119442858
W 9.832172038135528 8.63268756355553 12.144545494622937
