14
Energy = -140.88774491 eV
W 12.772626184808157 11.768326977852766 11.557333982559783
W 9.537483409037176 10.623695508259441 13.491343354142499
W 10.917121977918885 12.534215246722164 12.609218899610042
W 11.123626480634982 9.882173954713275 11.704256424116693
W 10.936832249429848 11.804407124556976 9.844685134534545
W 8.865630378331229 11.682956379197808 11.13752740356736
W 8.469553781922583 9.054107993018793 12.034151230587275
W 8.457347322868744 11.728178408653575 8.540927846308442
W 11.749250371853725 9.29016962166372 8.741208513418279
W 9.276145352765514 9.584598765800626 9.45942309291721
W 10.598348343917987 11.125007552763256 7.419385105773772
W 10.157894304380934 7.692388602123829 10.993811927974054
W 10.547066175818275 7.299893036197514 8.414596909323622
W 9.506462052670226 8.931484008079579 7.09418180948603
