14
Energy = -141.55741777 eV
W 13.409901849864065 9.95977136704596 10.023552456828119
W 13.26905190588154 11.790776234436489 8.528322062715771
W 12.598579877155721 9.627547318930544 7.76568872591819
W 10.914063365753632 9.427866948759487 10.03806841228234
W 11.406873218079452 11.754490018682466 10.654386109468529
W 10.782660128850432 11.741207472958923 8.172315928415186
W 9.983649918929517 9.550045533075698 7.792822099631766
W 9.8290883238973 8.063303565204343 11.926327857513227
W 9.291321067766425 11.871036216102638 12.481753168335803
W 10.90197331745008 10.259078090202255 12.727815418851252
W 8.224513053418164 8.941902393553134 10.27474583727911
W 8.876468430370556 11.367937404857043 9.864720981025213
W 8.271655078148274 9.589447333957517 13.017031294318315
W 7.00905419302106 10.708683231791513 11.376169967964449
