14
Energy = -142.49646498 eV
W 13.203320186657868 11.443592367222244 11.02096766326768
W 13.056011843623022 9.265763033484385 9.906855940569903
W 12.812631819288779 10.946996357789955 8.41083890130094
W 11.907038666928287 9.983122374082672 12.425328363849886
W 10.681277024970177 11.192664742508978 9.979619327540487
W 10.49122143919227 8.597746033480158 10.579024821664671
W 10.866805483835675 12.045544206859722 12.44379156414122
W 9.018342707402489 10.433045092905669 11.946897427899053
W 8.082380385358181 8.256359485705293 11.05181270253107
W 10.736072718644817 9.394682758544185 8.254155277374352
W 8.380760602504083 12.138391008153437 10.29836891203488
W 6.972107440911659 10.15424776459638 10.00263167000147
W 8.341416588887835 8.427734349557417 8.556454900180084
W 8.462681127907924 10.724536738691526 8.09568846179106
