14
Energy = -140.95434357 eV
W 13.079109762843949 8.467826333885696 8.323906949485616
W 11.34327339921835 7.020748696761375 7.6546287385284755
W 11.906525837497634 6.49512726984756 9.908946013338076
W 8.10448130711351 9.983292889462058 8.217361781104778
W 12.836564947654917 8.632854048133273 10.622440616227365
W 10.881952488506903 9.552112076119082 9.038153455257968
W 9.49663777511914 11.832847470751684 8.817307790137978
W 9.390307415534592 7.6145838387805425 9.027143519602443
W 8.571508476033461 12.610553161498853 11.10102113670618
W 8.677161473167702 9.989171202708826 10.595343966391763
W 10.3883783015566 7.9991487078030294 11.165717364235565
W 7.157223471839321 12.571014157068253 9.107770751287328
W 6.037195434940131 10.495603508540054 9.444992535348993
W 6.70698622895564 11.312422958621537 11.552571702329422
