14
Energy = -142.20998328 eV
W 11.57672646749516 9.5427461989998 7.447949973366989
W 9.473947537713524 7.900980469320955 8.369645287715064
W 12.034761119714814 11.114005003853825 9.241703585456314
W 9.933769167103737 11.798542159291701 8.079608297673424
W 11.719399057144496 8.36206335584025 9.53394396345025
W 9.22224861979154 9.962070497557097 6.7947139423034075
W 11.642412363560883 10.02321430450141 11.367950203884446
W 7.875941275696485 9.995215910107536 8.953460860523853
W 6.877677609303054 7.74020505643031 8.471558136125125
W 8.217032835100694 6.587541161390742 10.135851501961898
W 9.66326989595996 11.314773403931751 10.593499772396678
W 9.363187074362182 8.747843312575025 10.87102465799317
W 7.499296214422622 10.414911579013603 11.459955881134512
W 6.532907132779045 8.322468193533131 10.784528428456023
