14
Energy = -141.64009193 eV
W 7.005222637012105 11.965566604933073 10.506056773916757
W 9.299509099363961 9.234414055725018 7.347802683757407
W 7.3722564590597734 9.850198676970574 11.629267830244968
W 10.80473970085585 7.588445373828059 7.977169893799183
W 9.044316735836954 11.121158800369638 9.192490467273037
W 6.758986922489417 9.683782863680248 9.361712711192977
W 11.460629216194096 10.034701062316145 8.795628510942525
W 11.402211362341573 7.803849292427404 10.356413967398531
W 12.816690965927084 10.32719988663606 11.148364949375454
W 13.445629744956657 8.704793329209812 9.58208371712795
W 8.783793828974439 8.421757264004622 9.664428460643965
W 11.284391643330663 12.06438147891119 10.133852916091843
W 9.065931902284493 12.036294985415594 11.701478831396416
W 10.18579907992799 9.878897352195985 11.314807399072118
