14
Energy = -140.79039929 eV
W 9.487208232460699 12.271103644355914 8.362424443225857
W 7.743149765129365 10.481828936642737 7.293302983044393
W 9.914166139745303 9.86264709145013 7.08171348950987
W 10.549292306313966 10.103803666418768 9.747039477055747
W 7.922315366087864 11.501546244935733 9.781802921275473
W 10.34298132805867 12.465460050389078 10.820621550264839
W 10.792678820756706 7.6161398594980545 8.500769684056417
W 11.408454552046422 10.393338939713871 12.264379348243217
W 8.560668966939465 7.881210116786302 7.225180363510129
W 11.860881386170577 8.152370663645792 10.774410298731148
W 9.113729024261996 10.954297101683242 12.093586803879743
W 8.44252373159398 8.840247895879001 9.472300126522484
W 9.8333407107739 8.290733022820975 11.893611173775097
W 9.465259848690144 6.611965449034146 10.148895563652845
