14
Energy = -638.0
W 10.941119913787897 7.140158232145811 7.659992995057273
W 9.814475473424215 7.554809473489768 10.103942354607334
W 10.127117938471677 9.69288270705647 7.368046055804026
W 8.892455481180368 7.893623858852204 6.563914870457703
W 11.776888819269073 8.759364966672313 8.961542466794633
W 8.110623201802515 8.841792384812402 8.803902624550489
W 9.870803002740569 10.059747409537842 9.729031644779287
W 7.700727750299769 11.099610671160278 9.586754759405263
W 9.545952814005059 12.055307813601836 8.389010964310101
W 8.892455481180368 6.3464624452934215 8.548795994284122
W 8.046499451122891 10.871912061902584 7.296722892578976
W 8.199200984920557 8.86092922705015 11.571694658175131
W 7.38038500033484 7.136382534484645 10.68210211357712
W 6.203237687460187 9.188960213940488 10.236489605618502
