14
Energy = -141.49832397 eV
W 7.770408441579361 8.17833479167015 6.2573269113437595
W 6.9967764028660095 10.34443294641346 6.7588112510112675
W 7.842592926790109 8.474584719512592 8.699289982606807
W 7.467781403461101 10.776089333398373 9.176461008503974
W 8.383234533319422 8.85714502054155 11.466588715436464
W 8.56269653406832 11.23163721075793 11.757275899215088
W 10.143285634499069 7.833899682493212 7.102529412481824
W 9.382168438359603 10.255371610411476 7.189578072722669
W 10.198799082517473 7.992501287014346 9.682114509957769
W 9.953943039815007 10.534299920818974 9.842467584263728
W 10.503528345494459 7.859297390413887 12.297109482768379
W 10.581155394926505 10.185055700062314 12.60537398008313
W 12.014729917593668 9.30355719236847 10.679017620435758
W 11.670582904709487 9.645476115720067 7.957738569169647
