15
Energy = -152.74308974 eV
W 12.285568411932667 10.326894192310029 10.347693292013478
W 11.578976255826358 9.363376831059796 12.695168281075247
W 11.607168307409388 7.809889478654387 11.011877539584676
W 11.42744309474161 12.796332665233248 10.021325202444249
W 10.794388285368882 8.954400846582493 8.669839829809426
W 9.342214698351578 8.795538180277308 12.45493886908849
W 11.42952689984602 11.54298535015452 8.102182495198225
W 9.856965439748713 10.424825841237427 10.612807485640605
W 9.175017287404438 12.580259608775512 9.515787385002543
W 9.167027672658705 7.675998411123751 10.206759062583654
W 9.021095160768093 10.659481412155257 7.891949023031249
W 8.677311783404821 7.914779162274426 7.457339848002311
W 7.326538279866204 9.727338618665183 9.890988445053983
W 6.946269098447129 7.4512791942098335 9.101591383521418
W 6.846369834641569 9.513062830451744 7.506334909188807
