15
Energy = -151.74732477 eV
W 7.541157084282817 8.735935601260973 11.431750756832187
W 9.847106358010222 10.819673745556704 8.291152836536988
W 9.986042052540963 9.119389190214653 12.483332360255899
W 12.142817207868116 11.661272324639361 8.396384642042996
W 12.170611502042597 9.014380858180253 8.838846635093304
W 10.054587897988668 8.621612440271258 7.23330096171277
W 11.947858890317358 8.265223634087981 11.195390593176613
W 9.632253523026828 11.781605503674326 12.597234447641977
W 11.275255540887047 10.713341376674613 10.741026769134693
W 9.737384574651875 8.47209717758332 9.8835496150139
W 10.150365818630233 12.754574111774076 10.06341635443117
W 7.754942698620034 9.266559313304038 8.727780955653651
W 8.42841609299408 10.882687781084254 10.670239260305305
W 11.882720492174784 10.078751962918671 6.5715906029639966
W 7.882557861991508 10.246972430762034 13.309080661191059
