15
Energy = -152.24324803 eV
W 9.729575177435327 9.193920822751927 11.607978318583317
W 9.939464864753164 11.504365365386409 10.79574580912626
W 7.629262586831386 10.58135916325605 10.055781831876986
W 7.671637853532281 8.095958703552997 10.744601481222901
W 10.418288797517226 6.838262916340646 10.355292194271035
W 9.721456136929017 9.251652213233205 9.160289500510169
W 9.838099278267832 11.555132262794157 8.353940092781121
W 8.39274697380608 6.194857051992927 6.926765675504797
W 8.699140939490487 8.53227025023938 5.778214827799951
W 7.776245196297616 10.447328366368925 7.477761864275219
W 7.510507206820755 8.097086353624952 8.260400436597473
W 8.576044148997392 5.850454272067737 9.516520316462582
W 10.380014183282618 7.247598442449789 7.745083894881313
W 10.543908424402114 9.579423700723686 6.5246974914534945
W 5.688041517970426 9.544763401550497 9.21135955098669
