15
Energy = -149.86007608 eV
W 13.345119271664384 11.574841653382808 8.059134532391495
W 12.524884747096516 11.162899197769217 10.361134390277734
W 10.92127665472538 11.733961054681433 7.977943760494563
W 11.891435198912793 9.506323933953928 8.609420744183106
W 8.394691851737536 11.606827047414484 7.9743244585500035
W 11.540483490772449 10.416007645600294 12.52860557046914
W 9.958953412102217 11.077951088694313 10.270486835594275
W 10.763772833079353 7.226328871805856 8.356101486582512
W 10.899152319498992 8.701466881665064 10.950749612443355
W 9.013325518920604 10.41232928977278 12.563989687730661
W 9.12826010233053 9.34927399756094 8.470811080125612
W 7.384821862629611 11.113917202845895 10.214994999677202
W 9.351408605051343 6.761400175642472 9.932619032223085
W 6.573787391449259 10.244183205040748 12.345106762998805
W 8.131511840197675 8.798011828481837 10.872999667575659
