15
Energy = -153.19103643 eV
W 12.737760390260398 13.866685832366583 11.64768659359541
W 11.182487370767177 12.989688663162088 13.361863549464742
W 10.563555876531307 12.102196737721401 8.676565231566824
W 12.132981915440281 10.599506978038198 14.02357293282368
W 9.967116185202162 8.830055561712324 11.051408788845931
W 12.302565834103984 9.006661523568583 12.050788207264247
W 11.52153206475402 9.707294777131825 9.336503692627192
W 8.963382057008427 11.183327554013127 10.33050451250711
W 10.398136848769436 13.692601324410184 10.649181972535056
W 12.835673908146697 12.526971796155982 9.56835665340244
W 13.734028923270909 11.52122594626758 12.37302182114394
W 9.861648974861012 10.168894080523819 13.129582863114848
W 13.757552768125572 10.14968750336317 10.309725986875433
W 8.94305187566388 12.555664693089392 12.392934792983104
W 11.3506911405947 11.351703161975848 11.350468534750432
