15
Energy = -152.04388145 eV
W 7.246971432328537 8.225034831570044 5.81781743742124
W 8.132681381011658 10.449888117726024 6.493131919457622
W 11.930681649020304 8.639017334622565 8.400648844649876
W 5.933187935218432 9.502881467337302 7.186326979204038
W 9.570963376406842 8.635881700267694 7.366467589095397
W 10.728124498220668 10.718499008797364 8.626568996530457
W 6.022244267569734 6.99149260955274 7.867152463890333
W 8.2602228041322 6.212267236356128 7.476892701442872
W 8.136886795736086 10.145267921069165 8.956547555887557
W 7.580382257394231 6.3248282521084915 9.923822865353793
W 9.982578546490183 7.054436958871037 9.313090432270686
W 11.36221595013584 8.969943883989286 10.679456590300347
W 6.178456904184066 8.436966304645498 9.773864359774235
W 9.821480421262926 10.782410601316471 10.8429371968528
W 8.64444578510363 8.442707775985342 10.806798072083623
