15
Energy = -153.14495868 eV
W 9.215747865975082 9.215757552618031 9.215728221017574
W 11.819745671661636 8.946690979860193 9.226590071324777
W 6.611815123819729 9.484871974052872 9.204945066489003
W 10.416981005507697 11.51478133968935 9.207174908668462
W 7.7953050910329384 11.751088316814476 9.196548335034517
W 10.63626785374053 6.68045560123002 9.234998809999729
W 8.014624023354461 6.916767002654282 9.224336497244222
W 8.379280914283 10.524882309375814 11.292988409383627
W 10.995660337326438 10.236858599860678 11.274150190889134
W 10.037315552798587 7.930096856600868 11.313429257165195
W 7.421220223572954 8.21778840494608 11.272666364417939
W 8.394223638762117 10.501408962410867 7.118136389347267
W 11.010300584019115 10.213742510084158 7.158873758570894
W 10.052176912594978 7.906666444056778 7.13855286727132
W 7.435907659875517 8.194715604071106 7.157453394851325
