15
Energy = -637.0
W 5.0634365 0.5474604999999996 3.5509024999999994
W 3.7310064999999994 2.7716754999999997 2.9946015
W 3.1461605 0.004387499999999502 2.3466465
W 1.2997224999999997 5.405134499999999 4.2519775
W 1.5945194999999996 3.9451414999999996 1.7999574999999997
W 3.7646934999999995 4.0339425 0.15418649999999984
W 2.8556584999999997 1.7577094999999998 0.47168449999999973
W 1.2838294999999995 1.6151094999999995 3.1852335
W -0.24698549999999997 3.6045144999999996 3.4977394999999993
W 5.1907685 1.7857514999999997 1.2598434999999994
W 1.0450174999999997 3.0932735 5.6038844999999995
W 5.5966015 4.2759525 1.5721394999999998
W 2.9408814999999997 1.4989105 4.9990524999999995
W 3.1485844999999997 4.2342255 5.3561115
W 3.4130075 5.2537135 2.7829414999999997
