15
Energy = -152.99169971 eV
W 10.39229174747059 11.630742460629298 12.267935356984145
W 10.92154131201448 12.656443573925014 8.771405960592178
W 10.23458221369003 8.157427559570337 10.02710919780763
W 9.774296581551866 10.679423951939638 9.956952775516763
W 12.446372981514758 10.21022194849231 12.918893323037194
W 12.877850828801714 14.349189979362539 13.216237917827145
W 13.881735596860636 12.398554375435637 12.404272734040818
W 12.06420100067849 12.280505656230071 14.374550204655138
W 12.517976930239518 8.498186144174506 11.014165844931961
W 10.172960242934016 9.001648346450665 12.208096027560222
W 9.341455259630353 13.214370999958614 10.300539078306157
W 11.957731657701066 9.466547093982506 8.866939771808312
W 11.774815786376505 13.671675211981022 11.001035772729075
W 10.483639135792897 13.830598634988455 13.394988861031889
W 12.426731804969924 11.222647143106498 10.545060253398466
