15
Energy = -153.24268983 eV
W 12.535907398201307 8.683293419951232 8.045780306379001
W 13.634764646006976 11.928055546960204 11.913415738689645
W 13.149604117663271 10.309736175634676 9.717287646034745
W 12.966443600212864 13.08689553410674 10.024160615978378
W 12.280510818757156 9.585629964239141 11.97290883020481
W 12.006173968688236 7.734584827443441 10.092085909361547
W 12.253150073330325 14.323788112822232 12.167985692017162
W 11.789880659321845 12.268950946351524 13.599665855398058
W 10.513776487303405 9.706952660068978 8.801794103018683
W 10.08053751383992 10.261241039029251 13.310577987424898
W 10.662700866542872 14.110684476356779 10.47741198058055
W 9.831843057736426 13.050795399462835 12.517796581016826
W 9.980774630413888 8.850335238428649 10.990484688312895
W 11.001154242827443 11.383079195423607 10.749830143017133
W 8.57694244726814 10.99073441009249 11.727636497832274
