15
Energy = -152.2884696 eV
W 7.065387352707011 8.836852108040157 7.063055188259703
W 5.9058826115906315 10.513546136149747 8.355424187375151
W 11.556754710883839 8.419477504896973 9.777241555943847
W 7.916251489973414 6.878054195535043 8.856407669507977
W 9.229461985203981 7.7725895935653355 10.96145616489828
W 7.36433775454856 9.214461133864592 9.838188975467288
W 9.643101506115121 10.280710892751543 10.030299386893788
W 9.04193238561014 9.849119414860885 6.046788335055978
W 11.343122996431045 6.444572468117604 11.084914803580437
W 9.629538037569818 8.584660004017433 8.143798222460788
W 9.71187412783837 11.561775108342704 7.844150389734705
W 10.526744911181348 6.006670613026239 8.818878457713794
W 7.787940800996141 11.984098954763153 9.203837289666488
W 7.429048541049832 11.585367574547167 6.72980950567379
W 9.065938843864943 5.285362353085323 10.463067923331591
