15
Energy = -152.7430216 eV
W 11.922884533714358 9.065731659059022 11.513027968327698
W 13.623803202781914 10.22423563116536 9.851131393072432
W 10.268957573304018 7.166019862788732 11.316755464596268
W 10.168705118276744 10.533776519637705 12.827184584490384
W 11.55835691303568 11.398356792841252 10.556571102999763
W 12.517107026113793 10.57555238602742 7.935574639464286
W 10.418032211952317 12.738902260168564 12.376576766055866
W 8.727066441196309 11.947354912847148 10.700251301837243
W 10.008683099134565 11.068761682992053 8.534218259465568
W 9.139784745001268 9.390997844343898 10.701157619495708
W 8.23538117186771 9.223770787946814 8.402227687276078
W 11.220080767416126 8.741980569317487 9.117259168824091
W 7.590467947236977 11.853471904346268 8.265842412565224
W 9.331552486158959 7.016988796375789 9.260100919964483
W 6.735564589583509 10.511946353289696 9.901308969235105
