15
Energy = -153.7817849 eV
W 11.536046801908201 7.023658340610816 10.030614487439992
W 10.231181926907132 9.275621829300931 9.503726305061452
W 9.667003218329127 6.508803784951863 8.866248853345686
W 7.802742795284258 11.890682151412125 10.746977894636682
W 8.10789403707283 10.441082694970927 8.312464189467812
W 10.28125399003993 10.531237943172298 6.665373998132456
W 9.375216394302889 8.271698648114171 6.98740865315987
W 7.794778398504538 8.129069681687604 9.687472459119174
W 6.281274624217861 10.104386652731256 9.999816720520213
W 11.667513205883528 8.295883062041572 7.765135191630633
W 7.560490157747648 9.60497490510159 12.094819941223774
W 12.072507778586427 10.773921034837333 8.044426110641247
W 9.434047068150006 8.009569395885439 11.476928550325288
W 9.620376875874115 10.73234109128651 11.861822422342374
W 9.89457522719164 11.73397128389557 9.283666722953212
