15
Energy = -149.90448265 eV
W 13.217066687028538 11.531669311803677 11.712905772705923
W 11.71966257113625 9.526154386829665 11.304334962368484
W 12.025460098459257 11.274606427780755 9.555481258305438
W 12.647436020844198 7.3407445884129086 10.38402493018623
W 10.58839939241616 10.911268883554643 7.3202684566193925
W 10.874010994754679 12.043322920328066 12.020270315561717
W 11.83460580513308 8.678711377148801 8.661681147336175
W 10.215482870793952 7.405351874645802 10.757477844130571
W 9.128663371931522 9.943904757416384 11.753032697541617
W 9.372128070795615 9.261256728193159 9.150057024853973
W 8.135655650054849 12.252572028958271 12.427484619099424
W 9.48483678342567 11.842782507383536 9.874507724529257
W 8.435360795769151 11.092322953767981 7.657169671343168
W 7.931440363817115 8.000510228021225 10.850763242149606
W 9.161929908144309 13.876303734581214 11.443113019339082
