15
Energy = -150.02608048 eV
W 13.301725220055927 8.434383435440179 11.134600295164548
W 12.338225548416906 10.254444251883895 12.35279042125195
W 10.76090811892798 11.628655153632769 10.884033257357702
W 9.01661162798483 10.635057072035496 12.407269961308787
W 12.276349343909873 10.104911853032482 9.560138939719648
W 12.041929220525782 12.516340294001255 8.893305441323605
W 10.530121088894276 8.795202677654917 11.697186206319783
W 11.65783908511385 7.3057727450173156 9.926327386239073
W 8.015819296047253 11.562750033973668 10.196297153291615
W 9.983641896518538 11.474001946262913 8.270800636775226
W 7.77392798444345 9.028260591294636 10.976127855809644
W 9.952217725868787 8.956916638726746 9.163628958355376
W 7.708752930502798 12.465439038322137 7.974908977508002
W 7.613270541010504 9.936878471676511 8.286404485118988
W 7.750636363818095 7.686238672024949 9.00902917632862
