20
Energy = -209.01356514 Dir = /p/work1/plile1/GA_structures/W/20/all_candidates/3013/
W 5.593949930894268 3.9818354412797254 2.493171532958317
W 4.608151976469697 6.2621832371154165 2.6198555347252337
W 1.9651661245043992 6.766503884219178 2.760596376791754
W 7.17451296345364 6.410145570514701 2.727361525056431
W 8.017064368829528 4.3061274222110955 3.0986842266981527
W 2.822741736311826 4.371685068280822 3.098326451860556
W 4.095050655668437 2.491409011627436 4.034103373653316
W 3.312941908041307 8.212281038565658 4.039842977797833
W 6.646805265941817 3.067406327833308 4.89026050501458
W 5.747670103113706 7.336110688300187 4.684968060119929
W 3.722253385101109 7.213404553929457 6.259146471108356
W 4.676999510392975 4.910870976230593 5.051584991703245
W 2.0592666934636945 5.8492695357857185 5.087744004506198
W 7.365214680691372 5.430272299728981 5.390975372625308
W 6.941362493423461 1.6246391489056986 6.921389148740232
W 2.4975218295361215 3.3553924920762843 5.939138094450903
W 4.939152621461523 3.018852790605558 7.0345821497034455
W 3.096624271628027 4.943322211227744 7.535549602406005
W 7.65696620823287 3.7685693629652772 7.472253754276428
W 5.695696190329396 5.314831856086452 7.495578763293435
