20
Energy = -207.87828855 Dir = /p/work1/plile1/GA_structures/W/20/all_candidates/3139/
W 5.300061609595532 5.0916027283981915 1.9570067951066852
W 3.2720069224438166 3.7720954099700457 1.3648261870951737
W 4.880568656301907 7.229342375997501 2.989452939481706
W 2.7321784918268794 5.559875510919037 2.713364863373678
W 6.899566087818898 5.170496982444999 4.075213414146276
W 4.791160777757093 2.9612523052693644 3.462689176589948
W 2.3993202622535086 3.382423491486837 3.9396576286712417
W 7.325744342692587 7.393209130353842 3.2067561347161
W 4.349374278430589 5.148667351282094 4.8804447007622604
W 5.643550088083317 1.167730532754224 4.977908942043896
W 5.515576468493992 7.478507853104652 5.397097830640501
W 7.996357838630173 7.195141352114935 5.617761748058139
W 2.1546737369900115 4.875414393664945 6.0235483873365885
W 3.6416613757526832 1.9675016649986452 5.792522126755534
W 6.005979534978585 3.3773242536399732 6.00283872192648
W 8.30536303932255 4.843565154660684 6.108549719401053
W 3.492922196065611 6.827512446627095 7.077420400645807
W 6.149405292604608 5.79488828157682 7.179604656456819
W 3.9610329447034913 4.063158413967923 7.4970690025690505
W 4.452215089971228 5.9690094014851685 9.004985658939649
