20
Energy = -209.02806981 Dir = /p/work1/plile1/GA_structures/W/20/all_candidates/3401/
W 5.075145504702558 5.5219815662192815 2.498376457245753
W 3.9054082627474926 7.48008235511918 3.641976751143347
W 3.328577447885931 3.832096609320149 2.952755375422626
W 5.058161532063119 2.478601183979596 4.739763493001331
W 6.99862591243447 4.429747346202005 4.073982916892336
W 6.568565717543225 7.162979532302297 4.138466297760727
W 5.694721572318027 2.9787659836503573 2.4600960963668053
W 2.1077667562902027 5.906010530828532 4.119120306436497
W 4.590212914891944 5.19438332020563 5.100568044915226
W 8.79662621019986 6.188567812545434 4.409341508702557
W 2.570812532044267 3.2544007189613997 5.194149053402258
W 7.639864815994001 2.343261302904248 5.400256701375259
W 8.792141659005924 4.541553421988661 6.162172585161716
W 2.2669566261396574 8.01778496517337 5.528022660631933
W 6.903413994587539 6.184543258600363 6.440319704548912
W 4.615535147389111 7.521023667368218 6.258862282505988
W 2.430200605800537 5.86091893187673 6.676062883447164
W 6.282876485582113 3.711942794445866 6.840686010370745
W 3.758172748745676 3.5947728922340083 7.282991651714557
W 4.598272070632415 5.77864032307297 8.064087735952713
