20
Energy = -208.50675542 Dir = /p/work1/plile1/GA_structures/W/20/all_candidates/3142/
W 4.626441717192389 5.24314707258114 2.429261457114021
W 7.0784858216095135 6.541055986122765 2.4498474441899574
W 6.484407154986578 3.804677736063055 3.2448900360800357
W 2.5229882395884577 4.259651814483443 3.3540539024776903
W 4.717886569458309 7.594982613843425 3.310461604542313
W 4.825865210589578 5.362106449901248 4.9732290327085735
W 7.120737276153624 7.914485694509681 4.290463691419375
W 2.489927465407239 6.567334169664173 4.267633773785423
W 4.344303309869467 2.6004223841049 4.12263233359045
W 7.972603236286454 5.304970297464016 4.414235851732009
W 2.7319173528989324 4.112969523866773 5.857253820343973
W 4.284926817583196 2.017064043085519 6.390958490903822
W 2.8358062321824478 6.568268118434075 6.694673930520108
W 4.749719826700857 7.789318242732871 5.859095979476095
W 6.425712913695974 3.4570684261076305 5.959308076802986
W 6.973728449036096 6.4063487651315 6.488482703468957
W 8.533146968549188 4.472399927395832 6.954249498718725
W 4.591538700724982 4.2596740085087115 7.575557539518644
W 5.324743797252224 6.617867773516067 8.240842262637075
W 6.857556872492329 4.598630884741502 8.615312502227686
