20
Energy = -208.23662585 Dir = /p/work1/plile1/GA_structures/W/20/all_candidates/3242/
W 2.54541883565683 5.229786529795029 1.9169362312749711
W 4.680720383832615 6.129241625139013 2.7175248992503356
W 4.0938311628976045 3.3283948089261144 1.931106999595487
W 5.521340150210844 1.2825035198172996 2.824203903107138
W 5.881554497395198 3.9848956612621462 3.5151558482219762
W 5.331519382189724 8.405966120023502 3.983294197784943
W 3.0122907992844206 7.7513867570709065 3.848038349010063
W 1.7975298574562164 3.608935460482581 3.4753035398945107
W 3.8181533345801473 2.2554766229142285 4.280817439474146
W 3.3279541252897977 5.149375417597895 4.653229769854652
W 6.699812904461222 1.9417019885174875 4.746727721906166
W 6.0562013071509355 6.26231543625506 5.221399434038333
W 7.8930095407528995 4.411710999363967 5.271183369489099
W 5.245017913475432 3.623734512873874 6.072816635442048
W 2.3628479155641418 7.030055825230536 6.094406565829402
W 4.369864016387448 8.339058552846625 6.191166607330397
W 7.646833299367575 3.1929449827419347 7.20821474751829
W 4.542803517866113 5.981114391803952 7.18687654013352
W 7.083545485239814 5.557437031977374 7.769032783947783
W 5.589537471251437 4.033749655671117 8.592350317207625
