20
Energy = -209.06317805 Dir = /p/work1/plile1/GA_structures/W/20/all_candidates/3279/
W 4.757674616885107 4.662648717667958 1.597239410819925
W 6.442175787356046 5.973854366437062 2.9155460157100945
W 5.979314701102591 3.3236392545587643 3.382397079227331
W 3.7844779884499253 6.45250757123809 3.1174382599190644
W 3.3483388428869554 3.7893480930234262 3.5641214097479463
W 5.563833652463077 8.249156584615537 3.5198153580514897
W 1.3885212969576919 5.491305394734221 3.2597049676025107
W 4.448861891795827 1.6512070637603178 4.52032352186032
W 5.087321559463009 5.151575705310201 5.089503364126149
W 6.84114821907865 7.1198994959495225 5.361179088900226
W 6.156758696845039 2.86835256671934 6.028392100635602
W 8.087694915483725 4.616836658987805 4.823493285846611
W 8.580159348015874 3.606080233956739 6.698375315017656
W 4.153674807928512 7.588039862405696 5.536294025935694
W 3.5250358740991263 3.318818692654787 6.196995051431575
W 2.073641279539819 5.654012778338997 5.331761988147713
W 6.646443572873861 5.230203624567454 7.289147316815918
W 3.984987108581544 5.675784501256723 7.477158221048442
W 5.637880891995142 7.564573779110014 7.560255798439203
W 5.024440847222123 3.524540953731084 8.243244319740008
