25
Energy = -264.99056497 Dir = /p/work1/plile1/GA_structures/W/25/all_candidates/1591/
W 5.224703677431502 4.4075276231019975 1.3607537279759063
W 3.1509858587399964 5.076776087647464 2.534267914769177
W 4.3225706443673655 2.7305852532243486 3.117736356313795
W 1.804768527501796 3.0372944037623792 2.774681956884324
W 5.428640868370656 6.499662926626117 2.8771385447367916
W 7.754324888850238 7.152119040957232 3.879455672949049
W 6.73987361138026 4.40224318904299 3.3277245692388435
W 6.040861915241422 8.78103147897498 4.494643187201195
W 4.389181159552777 4.415747135646093 4.997559113636184
W 1.5988979105906476 4.840716187688099 4.641683248789131
W 2.3526437117282084 2.63276852232164 5.175558226548819
W 3.6389440410296685 6.895032320107025 4.7221209926613055
W 9.15678265197483 6.574894416859102 5.992375210864331
W 6.311045770218129 6.178054547588117 5.665074936951791
W 6.521584635447111 2.3106347239601557 4.898030554248482
W 4.585706123539991 1.5412235595926034 5.796673429404526
W 8.235129500909412 4.361216169142883 5.452165842398183
W 2.666284473806631 5.9181753969695166 6.817589524177478
W 7.482386345848227 8.38027376235362 6.521242033609304
W 4.756689799763807 7.9737490961973165 6.702939749399612
W 3.5041507993713417 3.626061451442192 7.300433504873016
W 6.139539506226063 3.761728054688201 6.986707275588279
W 4.920617339051037 5.791709061078282 8.178257453738048
W 7.766090273728025 5.873653516793375 7.919073924317536
W 6.371551858453855 7.7010779673571506 8.730068941847609
