25
Energy = -264.72746169 Dir = /p/work1/plile1/GA_structures/W/25/all_candidates/1194/
W 5.872974875985495 7.280761562576229 1.5561667886172983
W 7.511016822411921 2.882721414597989 2.815241911301879
W 5.7214387552995225 4.890723792762635 1.3410727772928699
W 3.2769320819589973 5.111012997089425 2.156391280199166
W 7.513179548284723 5.4110138460454875 2.926650045083
W 4.695219478948844 6.5774030038163 3.6170156008790557
W 1.1532611972645077 4.605062589789292 3.4040817936250938
W 7.18467751368092 7.789835321392687 3.6607113619498635
W 2.968460596846843 2.9075038163810794 3.199189118186198
W 5.363162163111877 3.934621490210059 3.825722535955512
W 8.211005032845364 3.5405976852835472 4.9316620366566895
W 2.3012212403678736 6.399399879696706 4.5441011371812206
W 6.483364026178124 1.8244405558483356 5.062047875319443
W 1.9992991221927237 4.085853859126493 5.721594012972078
W 3.9480651331858128 2.5408167197914464 5.535887378702101
W 5.480737712944142 7.956199188659391 5.687076552018077
W 6.970362336667126 5.943786983185655 5.537116958879536
W 4.263724902015963 5.41840427043113 6.083366623791181
W 6.138129659585505 3.653185256026014 6.797075720714267
W 2.423050706277791 5.304516289792779 7.9136382430627075
W 3.801541390238415 3.390347709654015 8.100516080178476
W 4.201058024086289 7.289184884438024 7.93083739838116
W 6.661307768661985 7.560794193746778 7.869932977986142
W 7.630573132903951 5.3601017771296755 7.9488912921602735
W 5.227692285739578 5.343166420213223 8.835468006590336
