25
Energy = -264.073775 Dir = /p/work1/plile1/GA_structures/W/25/all_candidates/2059/
W 5.073247969817454 3.116815299919669 2.19174323708152
W 5.178095273919789 5.928417314688374 1.853242627377866
W 7.310637682019082 4.209422413035114 2.488490094053814
W 3.3227570692578037 5.108040908029907 3.4551063180648396
W 3.6550713946928717 2.6264644630083684 4.14218804861777
W 4.334024028794165 7.495462551524258 3.8240007165521113
W 6.973171244426455 6.83731158846734 2.9099569077510155
W 8.797581113113086 2.873933694837866 3.9848903159841957
W 8.445482737246216 5.385255221216211 4.753519730713911
W 1.501932256791275 7.107424055418252 4.0470994978594295
W 6.528857847344028 2.0438669801267606 4.04479529405931
W 5.712297290504555 4.650548627810421 4.49992681447569
W 2.741717200103774 8.557679575948786 5.531837939134398
W 9.752622491537926 6.058776008264146 5.393371691368979
W 5.021201206190357 2.5700172085457162 6.273859998997536
W 6.508276271775562 6.916752122484761 5.486824542236907
W 1.812830939325148 4.534599291812237 5.4417084793623065
W 7.703111271652584 3.4260441285764744 6.254709043486039
W 2.5797404112635802 2.3315680405016463 6.489417142707119
W 1.3588377048852507 7.008700146247622 6.79635653194665
W 9.752622491537924 4.772134126025781 6.733991773064743
W 5.755487704803218 4.80891347939207 7.212867010216612
W 3.8046380190034292 6.204266146682621 5.9529012373590104
W 8.04607347359338 6.061571169245136 7.4965217824019055
W 3.228936408444277 4.316574032615955 7.691231819551938
