25
Energy = -264.05354318 Dir = /p/work1/plile1/GA_structures/W/25/all_candidates/1308/
W 2.755635555544696 3.4883954633640037 2.116578685032661
W 4.321594873750579 7.071160067543886 1.7697813272894583
W 4.9647732891194885 4.617005661173463 2.3940243178157967
W 6.740599213401532 2.886197753176212 2.430137999013774
W 6.376956566075665 6.673852347944705 3.2576062467048374
W 4.632404643016097 1.8646619053975326 2.50603868287484
W 4.233927748501934 7.891006546701743 4.12650699051301
W 2.7862404068898807 5.844891367643405 3.3016820170333476
W 3.1183310993937075 3.3044539991407924 4.539766059828632
W 6.647371138253107 8.735248160141142 4.717498496135536
W 5.509805304987369 2.5363641565785096 4.879902010471277
W 7.242645217873183 4.473414823558325 4.455843015458651
W 8.319681588786427 7.079134475096849 5.17756396390238
W 4.732437843846639 5.275317897916109 5.071908557666643
W 1.8448405674164834 5.029744376568785 5.874825560072657
W 7.818986501555071 2.854423244341682 6.397125753618168
W 3.1118030886546943 7.111336249531756 6.309460603760444
W 7.5985440178975985 5.249205493210035 6.945742633460136
W 5.881578101075418 1.7738776847993662 7.279959256035189
W 5.07292983421473 8.680169732211084 6.721166629439531
W 3.9843817681433666 3.5417983737960768 7.121071422763841
W 7.192941995362286 7.791751822439267 7.243578372093609
W 5.0897010175555675 5.96814911782539 7.637832098656901
W 2.634409019961485 5.361855555527326 8.140241382729785
W 6.315887847733527 3.824991973383096 8.512566166639038
