25
Energy = -265.55561128 Dir = /p/work1/plile1/GA_structures/W/25/all_candidates/1823/
W 3.409054957509434 4.4727959462140605 2.2595847645839546
W 7.2349466030662155 3.8808442880927956 2.1088663648537436
W 5.668979603708751 5.658107128892333 2.920666035405065
W 2.915091564325478 6.92069289835502 2.65345785246014
W 7.046258680591664 7.906157491480411 3.402504158355102
W 5.383922582038594 3.052109775567592 3.595552617073163
W 8.126397199369787 5.6330078210227645 3.8370707867307963
W 1.3396784031703208 5.577950598989008 3.880574746168053
W 2.556183534696363 3.1096749768299103 3.986222150215137
W 4.744750302686111 7.9116631044136 4.229799996154228
W 8.110190539010356 3.155135928022991 4.326112938576443
W 3.7952143082989425 5.342539038306045 4.847028738374201
W 6.469105022025781 1.6827869557352242 5.480843164903271
W 2.282932322213 7.478148659746041 5.365726093073683
W 4.119170829615323 2.860578150018339 6.016068022941591
W 6.265765493394142 4.728262683198738 5.634295722834657
W 1.7263596930179497 4.915198290727169 6.4319762567928755
W 8.041077606000735 2.9455595217075623 6.912728573585481
W 7.20922455291176 7.543998173650777 5.768479695513667
W 4.732236055600387 7.083842034615706 6.690026561345876
W 8.550544832380272 5.527872520329672 6.467243238464079
W 2.2932406238656577 6.982778081886186 7.74102065386214
W 5.80777173223986 3.1970251446435025 7.833186430152367
W 3.7681932251169177 4.920927545203217 7.731254167529929
W 6.519431873134239 5.62806538233951 7.995432410038284
