25
Energy = -264.37096914 Dir = /p/work1/plile1/GA_structures/W/25/all_candidates/1335/
W 7.939739541758919 5.222965736488665 1.6189716316017222
W 3.5872525902681494 6.49423899381644 1.841074119687748
W 5.478612761736656 4.6237256475834325 1.8294202944451141
W 6.155032127294678 7.015688615244661 2.8115292083484924
W 7.319298703533751 2.986865144815984 2.481907705075047
W 1.950689680384031 5.907319043001767 4.091910985063719
W 3.002439685657499 4.218682403579326 2.641599322477613
W 3.564827074482296 7.800701040052315 3.9127563921435287
W 7.499660813593519 4.689577224404804 4.304495868580793
W 8.549533480850853 6.799916362767482 3.314200034626211
W 5.386023310483243 2.992330758764491 4.1370621833617784
W 4.745501830992924 5.575761763034941 4.388427336822699
W 3.061525343167667 3.5100650458403524 5.229699687274005
W 7.068406814087204 6.992172723231741 5.49528811757796
W 6.897614752669795 2.374173619011084 6.039944367427957
W 1.0378731013643787 4.248213577442465 6.4613120669943225
W 4.817204507685254 7.576072293098225 6.36790130014214
W 2.7774661152246143 6.008708243357957 6.473199332538596
W 4.553847210663869 2.141929879543714 6.759548559231131
W 7.995089726442975 4.656936513025371 6.80622240083938
W 5.501908045836465 4.626705077484667 6.7688871999082165
W 2.064183711168854 2.273619057745496 7.473712658931885
W 3.222224867420361 4.153930259597275 8.217229646729733
W 7.060679692474435 6.660310806186657 7.962285063762703
W 4.711132522754809 6.397158182877893 8.519182528404716
