25
Energy = -264.22728885 Dir = /p/work1/plile1/GA_structures/W/25/all_candidates/1013/
W 4.046833592822737 2.807814977040988 1.6455915325202564
W 6.306389851951056 3.444821213474241 2.3076012657648057
W 4.394190162066917 5.174780137835475 2.566080001564631
W 6.662140748583051 6.247681315612859 4.10566989942974
W 5.39751110231976 1.4886990563669837 3.593529179154061
W 8.442718637360338 4.374387408172423 3.847054544704701
W 4.153869603742852 7.684584722801684 3.6310664712316667
W 2.040628869046193 6.3671941675128325 3.170301568505989
W 2.4334052919942817 3.8631823008922654 3.614097632136701
W 6.050119032807439 3.6497469191903864 4.865660077430343
W 7.860225408128087 8.401567189244126 4.918177193038245
W 3.060969863882699 1.4113630402311719 3.4314429454624493
W 2.6907952516731157 7.733134366174048 5.517738195572608
W 5.596793933681791 7.982718036063218 5.869716598330953
W 3.7405091253965006 2.6694996350952636 5.627800823142807
W 4.006498956328491 5.451253925601773 5.204411631568134
W 1.3743000519909936 5.5761500106780515 5.3751936007152095
W 8.781711898674954 6.120060942612371 5.63636660700738
W 8.157324758224705 3.7358513040117995 6.207400324898635
W 7.772656220766321 7.833936862681705 7.179111228097272
W 2.853188209696476 4.334918643426368 7.382568334336226
W 3.8657697585419823 6.675879005207747 7.525881628822967
W 6.406219337673378 5.611943147910028 6.882614627767954
W 5.462981511972446 3.002883852722352 7.461682832282809
W 4.844873397638258 4.758572396404304 8.835865833477587
