25
Energy = -265.59321374 Dir = /p/work1/plile1/GA_structures/W/25/all_candidates/1324/
W 3.425489243222849 2.4309956391853254 1.4381535711258047
W 4.4779042600954595 6.505002289236463 1.8326036307623972
W 6.616595896009802 5.8158751753758775 3.0405269741267786
W 1.6963095920689877 4.062816253659797 2.7070959428102546
W 5.076633854669565 1.6394618301829331 3.199592781899508
W 4.333483358711896 4.2393433497800705 2.958814425557257
W 2.940887843824054 6.580574480560336 3.789580063846506
W 5.243902254794439 7.9189945412285665 3.832179080290419
W 8.992622686563706 5.182179633822633 4.089725130670094
W 2.37862430935095 1.8237017322427924 3.4074917445444233
W 6.84914830089936 3.5137932555430216 4.264944517420155
W 6.424285020734822 1.4380921492642453 5.450649230057396
W 3.259250499456493 8.75168125280967 5.103293152284446
W 4.2268916808622015 2.6005142887980623 5.318282880695937
W 2.291902787236215 4.231839228251274 4.974491382624557
W 7.661809534475406 6.974905183326185 5.118816368863172
W 6.25231665576546 3.6364693089952027 6.863315349358835
W 2.94698789701159 6.627038634557711 6.478852103518227
W 5.21458975803055 7.973668555349362 6.459362304480318
W 5.0968362057411944 5.553805741172994 5.278999216237852
W 8.594498175568072 4.578778476976427 6.257394306959511
W 4.352927180884418 6.818993222468597 8.627100959234781
W 6.845926934978977 6.157847201815808 7.357362955544334
W 3.6253140240324644 4.343964079160642 7.320558408838829
W 5.384856913067675 4.809659364292603 9.040808386304219
