25
Energy = -264.85595352 Dir = /p/work1/plile1/GA_structures/W/25/all_candidates/813/
W 5.078344247991384 6.058190500930349 1.1454991666012095
W 6.598602771206506 4.433263411579756 1.9778053388220502
W 4.259850981586463 4.295366984145653 2.8747365637293907
W 4.743059497449116 1.9772594167091253 2.2255734149019823
W 2.4239642548022453 2.1512424458319894 2.7341711951301164
W 2.106291556687701 4.324254497717244 4.293866848079737
W 6.880742296901141 7.0778140069560145 2.5403329358980136
W 4.4363940005437374 6.872970960212101 3.5588886421892187
W 7.785555732279754 7.686987246990675 4.9244918286894785
W 6.608817025845264 5.30884617897132 4.49672186593319
W 5.886532032594513 8.897155745372988 3.8926233790495126
W 6.082345043648586 2.619272080260226 4.284502251923345
W 2.7378240549865964 7.0884816134781214 5.649099486149249
W 3.6208859295250924 2.1438760058426976 4.801759257057425
W 4.146251877713961 4.743039706512018 5.711104492989214
W 5.382811414753489 7.435989580007484 5.939429858603435
W 1.2418579694263705 5.301314083559678 6.508294975641
W 8.687956448608213 5.672172005710489 6.2699435978718885
W 5.317083935407257 2.4792530162807265 6.941334878964752
W 2.516435329823878 3.302391421549857 7.071830758203282
W 7.508650618547365 7.317097387818574 7.475572371783124
W 7.549587045875816 3.4064369745539205 6.304705886037266
W 6.172695537607499 5.1796413026532715 7.431893694092856
W 3.4188063664839103 5.965658095126153 7.755423642596223
W 4.3485499649827215 3.80192126650763 8.730289604341714
