25
Energy = -264.67328419 Dir = /p/work1/plile1/GA_structures/W/25/all_candidates/1565/
W 4.960716321803397 4.389191740219922 1.6424656560852136
W 4.111327952989625 2.4932695191959553 2.570576145483183
W 7.0629471413705405 2.7257470925286404 2.5409261640404535
W 4.193158572458981 6.566190013059176 2.901517731276575
W 8.964805842973401 4.1324550534683615 3.216908732270435
W 6.75289272455163 5.464617367656264 3.365096280729809
W 2.9535254500455927 4.461272783676382 3.7434167125392275
W 6.205487989824347 7.952324941178873 3.688695422459924
W 6.685336393300899 1.2508752705208814 4.489512654179111
W 5.434883216751185 3.460340203053334 4.46149924707092
W 8.838798507335879 2.2005372408012955 4.598177022477406
W 2.327167505144283 7.214870179608821 4.6753874837472695
W 4.2392945456757465 8.669390423372754 5.257118679837027
W 0.8035812321922292 5.130574641185105 5.0007072699681325
W 4.757817512062175 6.0096258709295585 5.365056307692276
W 7.956118563241251 4.71532868346055 5.523927307783456
W 6.905136142409632 7.179751099148181 5.879351040868151
W 1.8116594526717227 3.41101846866468 5.951321031459549
W 2.468911682950954 8.447274282060421 6.896384945240979
W 6.914600116691119 2.7897204046675315 6.526295391443783
W 4.2670835250650025 3.814620066863303 6.799798368619863
W 2.5876497622212695 5.858492668265973 6.972586437880044
W 4.631631408407529 7.410617898449365 7.666141074881439
W 6.274060290631423 5.271118940332404 7.650117781171343
W 4.191368550311689 5.280735550713746 8.916975513876173
