30
Energy = -320.90887981 Dir = /p/work1/plile1/GA_structures/W/30/all_candidates/327/
W 6.804421468363339 7.5887490000138 2.043099343299783
W 5.208501965878101 5.760825747189141 2.530270365958306
W 5.965749805506169 3.442894562330732 1.8639771678491412
W 7.83737790535686 5.083898114324442 2.6314019688142682
W 2.8851355483047265 4.728637905877271 2.8225530923307622
W 2.5962143964296605 7.465386888974331 3.3395179610669024
W 7.538151413932294 7.154999946259902 4.278267699937596
W 4.591384267240055 3.216303422193587 4.019830646241418
W 3.8899766605677404 5.890180958892394 4.892308963046084
W 6.437955102998129 4.892900706348191 5.071059077948912
W 5.549675788337717 1.036735256007289 4.9209402507659314
W 4.934903778412803 8.211592129450029 3.967085587887681
W 7.288943390795086 2.708347496195026 3.872750368113412
W 9.717524081973364 3.594383185100142 3.6360013120236703
W 9.847618412494496 5.774276160450982 4.414104284328063
W 5.758373887711255 7.109058363012302 6.462389034679625
W 2.0753540253159724 4.020350447209003 5.304427082660629
W 8.561052597567175 5.995803301294913 6.568744075823049
W 1.4765926168741228 6.610574175372237 5.518889184058654
W 4.220471964295563 4.578441905410382 7.133307382322655
W 3.5863566162574334 2.051527927572987 6.467059825577059
W 8.72786129063496 3.6893034541171414 5.977920378175051
W 6.187953507815963 2.6352432365895986 6.572201580706296
W 1.7018700653736605 5.0254498581124345 7.6839902907731545
W 4.534800150173009 9.30282184416338 6.253901868897799
W 1.1071276571870667 2.6337671784444323 7.278683622202776
W 6.705024517159659 4.974976898405549 7.781331127421829
W 3.2218747440324145 7.195447787925589 7.207087095010078
W 2.4989163265929846 9.087650477259047 5.18569264908226
W 2.924999976888573 2.9216355959733153 8.68337064346699
