30
Energy = -319.80974371 Dir = /p/work1/plile1/GA_structures/W/30/all_candidates/442/
W 8.85735740465456 5.786150441552249 1.41330861208376
W 6.573973480142639 5.23885308390454 1.1747521909521814
W 2.3491459317798253 6.543902774626361 1.8970400676485308
W 3.983869582825327 4.734696547018275 1.845834835794687
W 5.074319600414973 7.131805207184899 2.154703930547494
W 7.6422375953837385 7.203288703105303 2.9075654889229074
W 8.211644238829729 4.329179907315467 3.3371863699116373
W 6.109077780017397 3.0495192328713014 2.6834661074906703
W 1.815297258781658 5.036930740820985 3.70596813394619
W 3.4877235553720984 6.990543152256106 4.14976765861082
W 8.16577629197345 1.985467721999105 4.387014159537762
W 5.582897974328256 5.33998565910207 4.003866160232371
W 5.771948194919254 1.1835420212671055 4.3159036155203445
W 3.6713566930624992 3.2240317379445105 3.9081299719052973
W 5.86003244198048 8.143583315976151 4.6454964845682785
W 1.8433642731527864 6.558194877138016 5.997731122049222
W 6.070938177566348 3.249756499702522 5.633762923864689
W 3.7792952653537903 1.8160362632926113 6.002793562224918
W 7.683407981840827 6.058542711063818 5.260095361399956
W 8.459311883386203 3.676142374298569 6.0798514328303295
W 3.5806146915611397 4.662616330056718 6.137258257585123
W 4.22125789771276 7.389452457816632 6.831998278626712
W 6.693038207905754 7.855987842200115 6.937570598059783
W 2.717001716010323 3.0879281254746984 7.973036015040886
W 6.074103803395414 5.417596328563139 7.26444708858472
W 2.060371505803444 5.768624731054466 8.344073293022648
W 4.988530502206731 2.8346030650208967 8.105166252711172
W 3.281973223324948 7.828794408834766 9.025332670966115
W 4.323039903245711 5.192934494537414 9.078135557183886
W 5.610859876502536 7.225076177436013 9.342510731610965
