30
Energy = -319.41825822 Dir = /p/work1/plile1/GA_structures/W/30/all_candidates/542/
W 6.920486245845876 5.2951015673233695 0.3680234442101942
W 5.7026754854956065 3.361425320046852 1.7635302531164885
W 8.275566570434398 3.956858796780346 2.032915945791077
W 7.682880169857393 1.63033880788849 2.046542280934535
W 5.08134515166346 5.975352488573586 1.8424522647623365
W 2.955650324366971 4.444353150750925 1.9764205819342022
W 7.728423646633172 6.510858229707174 2.2440693425376423
W 1.1174856654801384 5.752292591010346 3.207388933863807
W 2.898748187774142 7.361383385391196 3.0728065167007723
W 6.620478738914131 4.608192469263078 3.9846086190109284
W 3.2586222397238913 2.4293209027909866 3.57932948526258
W 5.914547298825786 1.7280915410720556 3.8411771504286802
W 5.914722155897849 7.227248872810953 3.878907390879184
W 8.276319093055324 2.6260357712189712 4.370725543470444
W 3.790667801847836 5.24958481776478 4.177187120862837
W 3.9180224436068007 0.5852701693823856 5.065683234204735
W 1.8340009242213422 3.932692952082733 5.046421806699558
W 4.8079329630265955 3.2346490271764194 5.658719431048645
W 3.842821579011234 7.81738561972646 5.417699089266234
W 1.5648873611342518 6.6575866967155735 5.583207543261542
W 5.696998044215417 6.065563293893915 6.245617673089038
W 6.886914249317487 1.6434695635756482 6.2291349466750106
W 2.792349110187166 2.0871621909850115 6.507460427754793
W 7.260921115165176 3.8971083790668497 6.742373036744275
W 3.267319863726393 5.252442197613031 7.111713017405331
W 3.8715507613048845 7.582695430797906 8.063759667718404
W 2.03667979097067 8.878139722207774 7.001475875727913
W 5.102733853902936 3.5861703120410042 8.140227357823584
W 5.5642890571037755 5.786059494372029 8.727792159116172
W 1.4669076252962048 6.890113755975804 8.125577377705596
