30
Energy = -320.95809287 Dir = /p/work1/plile1/GA_structures/W/30/all_candidates/715/
W 5.6021962720935745 5.702421504880168 1.978791907127104
W 3.0338920979695736 6.538401284630086 2.709314357630358
W 8.43496717155733 5.535329878270515 2.561394297598007
W 6.9250197839611545 3.5566776032731284 2.6967667616384348
W 4.465682789497677 4.550823264984 3.9156597027764044
W 3.9040516002857863 2.131947335548127 3.705802170787939
W 0.8427412665334072 6.404631494067829 3.678769830831611
W 6.814477596016146 7.654150050467638 2.8380397700262345
W 2.6404473674061864 8.236905957835932 4.538685965817659
W 4.963385445430925 7.248298177719429 4.63326246015467
W 1.8129764125523957 4.1639336066016135 3.488826993807164
W 7.085494590041887 5.481657904249666 4.7742930093546425
W 6.570562771492344 9.181446279303746 5.040890948988872
W 8.598673815405597 3.422483853995211 4.529037606911815
W 9.933191356263713 5.514196520197008 4.510935862720585
W 5.932087556152514 2.6126909105977316 5.171679285150802
W 8.531850702780623 7.690590815332528 4.709051138020079
W 0.7335570215372256 4.404476390810251 5.630580917870176
W 4.323941839305605 1.0309400251662815 6.130401386023767
W 2.9939426117804717 3.153482500953753 5.8626148937606715
W 2.634006050770388 6.0548396196212275 5.691932035800919
W 8.746219344112243 5.602735371883428 6.747284956424097
W 5.070256675908821 5.028778787892896 6.574671346864598
W 6.710368069889915 7.433793439042915 6.788384377577762
W 7.250434379880982 3.5680827201254344 7.160547885352414
W 2.5371031485539146 4.694139563389434 7.948253240648912
W 4.8400439081539215 2.825736645744121 7.851195070184657
W 4.191225519913688 7.1017657326067845 7.669241062947263
W 6.856860660168057 5.598619581825812 8.550083740874518
W 4.383153105074598 5.238834109474271 9.276417946818988
