30
Energy = -318.99100002 Dir = /p/work1/plile1/GA_structures/W/30/all_candidates/950/
W 5.502603277221023 6.637943903970783 0.7900946527355293
W 5.078083889672025 8.534062269119815 2.1874307739293086
W 4.016461509280652 4.604068065063377 1.1953669417098218
W 5.107016395538301 2.8188084010361925 2.5436238017109125
W 1.3775068115268174 4.7949954801047365 1.7780565053135726
W 3.2039631256389716 6.638206619303209 2.3688538746977663
W 6.733360821991664 4.823008196587794 1.9726795172140377
W 6.603209253295594 6.836367996596833 3.384097620314118
W 2.563403823186279 3.1030800099952542 3.264923439910831
W 4.716965014554601 4.9399106084915 4.100149444039038
W 6.301401602382942 1.0618706887162856 3.746949204029959
W 3.836616946029049 1.0339459758581286 4.3022656210165335
W 8.698379215528742 4.313034796353096 3.652702067351588
W 7.066747312234101 3.4831558995030507 4.4558696317653945
W 2.0174719566489503 5.607939592425744 4.4960926442969775
W 8.679652870992452 5.572329384763274 3.932871920179239
W 1.0713768189114539 2.976439004602771 5.295689039188919
W 4.141413390014955 7.6486739352931545 4.4031970913509255
W 5.637880808969676 1.3586251625046533 6.043123374687239
W 8.698379215528742 4.774198597499635 6.2166822363682135
W 3.987822938194325 6.00002050176233 6.5604982895443
W 2.1034029393901204 7.5043922653490505 6.045627604216314
W 7.830223999379036 2.4121067435402868 6.71071013634829
W 6.694659127411141 6.23287379700996 5.9571883484284465
W 3.508243485239619 3.130516946515072 5.926246410110595
W 5.85322410741289 3.9307137468135296 6.800844193072581
W 1.7304139726350027 4.907592077801672 7.0923666400322505
W 7.472574647527083 4.912472531635437 8.439173731908234
W 5.429484513940156 6.044350804904776 8.601107145274568
W 3.662718979804178 3.9904826127564137 8.361704715132445
