30
Energy = -320.38198083 Dir = /p/work1/plile1/GA_structures/W/30/all_candidates/84/
W 4.152091554716168 2.760780646096824 5.7262114196689025
W 6.270617100118144 7.130967137981794 0.4366522673809809
W 2.3601178731063945 1.4116521521743817 6.791855954428887
W 6.369227987738842 3.5942671212774315 0.9593557928568557
W 7.164508348588259 6.049146242097668 5.637813608751402
W 8.017867213452408 5.279019425843492 1.281468355676685
W 6.183568539885056 8.993280449797464 1.9055318096175469
W 4.913340071587707 5.241701363265403 7.367926694407588
W 4.658497754715434 0.4752975470164354 7.32481988846273
W 3.6131951513497125 1.1906352722765299 9.211291741927747
W 3.252570730732297 1.2447474974082615 3.9660278217502243
W 5.459536682159253 2.8200981983607565 3.2089587761248453
W 3.9873362290116554 7.766347628756369 1.4479763459295014
W 7.1803524549846935 6.9895230391979535 3.004543356053913
W 1.417747839627275 2.563701981612446 4.557795897989434
W 4.926424150975465 5.277507963997036 4.7436479706654096
W 2.571904326340884 6.50152923324117 3.5103260115798745
W 2.8684006124080015 3.4170110510044744 8.208164813503796
W 4.929834465813793 7.757122837682505 3.948672473818901
W 2.5916411973889684 5.653834007677478 1.33357744660514
W 2.3573077686560686 4.643422313081645 5.899619379404959
W 2.623683906424273 5.968849229381219 8.161683682509937
W 7.370291654526339 4.344993608979078 3.5009782419779283
W 5.535992298857575 2.6465679149184114 8.079095984653062
W 5.11032782234088 5.479172605811647 2.0233513856782634
W 7.3837982943289315 4.68038048931563 7.77114319417031
W 5.501184226978328 7.652704526668675 6.579360643778958
W 6.8092707705742965 3.2570496794727677 5.928276678852058
W 3.207212593571995 7.180791129363233 6.103394721978909
W 3.0536877320113804 3.8694350592122126 3.2220149927657373
