30
Energy = -320.41380454 Dir = /p/work1/plile1/GA_structures/W/30/all_candidates/795/
W 4.705131323145002 3.517553964263371 4.252400710482277
W 5.8321951994514984 3.15328016997911 6.465662614237609
W 2.3654243714071224 2.485167226399597 3.7547690787499466
W 5.45335438137374 5.558639856464863 2.2212459038261545
W 6.944160144445053 5.259747995683265 4.384781328291636
W 8.052922765055081 4.9723757145615215 6.491506149542082
W 3.9129584375128346 3.3467280628571143 1.3062469460350628
W 2.1281028612129176 4.708485798347505 5.191046741335343
W 7.904214138641904 7.340691562952316 6.041529739614902
W 3.776943832324619 7.691049609305737 2.5087550624977273
W 2.7105046566635678 0.1443836929532949 4.721505962577849
W 3.6373256199274038 5.768001758216938 0.5824016362992375
W 4.419623158361663 1.2055092966880654 2.8927134620592376
W 2.660873056627176 5.121477416415948 2.6930505313079527
W 6.324004208458269 3.079282947457667 2.2960933094458813
W 5.39961520753134 0.8808740456605266 5.1954575219603365
W 4.9351415468989375 9.768681742269223 3.0282549875313216
W 6.94596760879263 0.7533855694833099 3.1777719983172346
W 6.259772367775094 7.860464665993638 4.032394439305651
W 4.434026213244408 6.185104517063456 4.701001573899543
W 7.5430469176194475 2.621594206271801 4.5822299610716115
W 3.711077078457423 9.098818427914999 4.933042399089841
W 3.1541243786052995 2.440432055581198 6.3172477594094065
W 2.0441213343288083 7.243490544080642 4.382268357771755
W 5.540669026871857 8.137085701457751 6.499589641887189
W 1.9358766566196275 4.468003035865724 7.6507457139053665
W 5.747490927286156 5.775677543112538 7.094299778581043
W 3.6166154215139645 0.0802637111206027 6.815656591657126
W 3.1958112659327065 6.5571627253392135 6.873262704797352
W 4.118667149120624 4.186347691444702 8.322828649717666
