30
Energy = -322.17345811 Dir = /p/work1/plile1/GA_structures/W/30/all_candidates/434/
W 5.353927707481306 5.324286137400227 1.8973072608549073
W 7.717843580163969 5.94431034788843 1.1985201103207002
W 3.1770572655753826 3.7972387152706832 1.65279595386977
W 4.446416240106035 7.063441618462714 3.7852793974082486
W 7.109086897689487 7.18378895004134 3.173548053588254
W 2.22026552463624 5.912032809023635 2.581928352752281
W 7.728566505392569 3.7422832959534666 2.3615274065328378
W 5.145562915981858 2.789778020924761 2.6130182107992734
W 8.957791846313974 5.634212511168056 3.610888536150705
W 6.4757634309411065 4.766679099392077 4.355681365596218
W 2.9443261255249737 2.002468208856543 3.902960615474462
W 1.2512691577170663 4.092323462486387 4.111515061161961
W 3.729488462706587 4.576364012447506 4.236834748761952
W 2.0335897084290684 8.023057530006596 3.935232835538535
W 8.963919859175853 3.487315713821152 5.228745309014302
W 7.244253433198629 2.1451785098522174 4.24485679418633
W 0.6838284950714927 6.349606770669009 4.95540903533216
W 4.9299093195381065 2.448343589630904 5.449739401330563
W 2.0610823967675875 2.3003191959853946 6.097476615406221
W 6.2151463570285 7.494712120761608 5.731059125727612
W 3.226408467048282 7.193359674079179 6.047877907528506
W 8.149531714889756 5.802500258915601 6.059541178038971
W 5.071452389796907 5.311497456908061 6.549352307039272
W 2.1605812869551837 4.9305214079883 6.539473028665824
W 6.889173612305988 3.51764458247649 6.879893483564252
W 4.944221496078559 7.894866758740296 7.908769924278275
W 3.877107355990933 3.109538795022517 7.627109724278977
W 6.709423012005003 6.15575685314096 8.323079960710128
W 3.8302920563682576 5.794769792981499 8.67753629950027
W 5.634976876430829 4.094067297013781 9.145305493897826
