30
Energy = -319.00141688 Dir = /p/work1/plile1/GA_structures/W/30/all_candidates/802/
W 7.743610383043843 4.394744723300251 1.0216990448855447
W 6.549730229032602 6.958487027136354 1.505455948320136
W 2.8416269485530408 7.958281405372092 2.3839874244487818
W 5.280114033281062 4.923181616767048 1.8437793378740215
W 9.521150306274441 5.089766734916231 2.2654603247685055
W 7.558394102355902 3.2963280666822845 3.2500312590205196
W 3.7640195250026567 9.403922830135192 4.159137028943218
W 2.8508713895094164 5.687370672455779 3.0599120536891404
W 7.492031414687436 5.917281241426439 3.538222701512849
W 5.04357641498738 7.138705493365878 3.4842684201188883
W 6.119401436629469 1.9454591488820951 5.068517891758785
W 9.451934588320643 4.309809106980108 4.646690659047935
W 2.0725990020787406 7.787091974072276 4.933341493810672
W 5.230519135288796 4.227011736477825 4.272694715869887
W 8.537309245203685 6.384034252476078 5.861692315140078
W 3.3499078479282125 5.659121319094212 5.5531057829782515
W 4.519331202222305 8.17570797323286 6.158083745192104
W 6.837411698071657 8.24200152329879 4.917453917602564
W 1.2101508764861741 6.212104557049736 7.0629732629109245
W 4.833209475365172 3.692117768708934 6.934035790098129
W 2.3907161077911145 8.103661829624773 7.540854025758841
W 7.50344134921037 3.6214053722742614 6.2142384739240555
W 6.1216185223811586 6.036809249782614 6.041637967354826
W 3.4197402434234303 1.7766987244224322 8.470373738654327
W 5.818038851156614 1.5158038480994518 7.648058642439847
W 3.809845304047477 5.997570834010685 8.245012386797175
W 2.4649824731983876 4.031576651678237 7.624679242022423
W 6.3952817016359305 5.448316473212688 8.433189663444972
W 4.630362352568623 3.3790001593401473 9.53772450711102
W 7.128389912995329 3.1759437584547165 8.81300430723195
