30
Energy = -321.63485816 Dir = /p/work1/plile1/GA_structures/W/30/all_candidates/830/
W 4.277242085822241 4.411612712720981 1.2544367125341642
W 8.129377216901789 3.3125359498058877 2.5124588968159243
W 3.157663921164105 3.1041338339127207 2.8703158469682295
W 6.691544177790198 5.3464831003757105 2.0192197672501093
W 5.579253957086049 7.546941096886463 1.830490427598423
W 1.7458567383331494 4.965954187088148 3.811754387483104
W 5.640293459971821 2.862071015761415 3.0068721921476813
W 8.877285894288008 5.230824963624395 4.053441322157118
W 6.874836234473105 7.253612302652742 3.9800600462935973
W 4.257858831799594 5.820177376113816 3.29854584409484
W 7.980120531430372 2.536043803962164 4.853070647801537
W 2.4821911599841457 6.929131169154386 5.090639183600619
W 3.9170694058362527 3.945274040878224 5.331531339499969
W 4.5107471775504475 8.457574278849966 3.9576114656845336
W 6.576099742069056 4.628114550062317 4.615768357835732
W 6.208683078980875 8.832177445542 6.091693894535831
W 4.975708810047941 6.480305921113275 6.093312379394887
W 8.92606072613684 4.2999955809757155 6.399310644477187
W 5.491667745477371 1.8355933004063376 5.501837900434468
W 7.657371584948874 6.433928989572224 6.539140579010123
W 3.659073352609728 8.9795775254692 6.173536174427532
W 6.412516849983157 3.8218552794896654 7.039211785810691
W 3.111117629200424 2.0004148626852984 6.718233918747579
W 2.7240723992343883 6.281950776482273 7.4791558969651115
W 1.5708946262348802 4.4464186262590255 6.259901114663308
W 7.117180879676485 8.277620938234515 8.294901860008732
W 4.0089601371406935 4.183495498452915 8.028275411436972
W 4.7115614423731325 8.094185742020873 8.392792553984503
W 5.006299234498653 1.850185807062372 8.02845958934895
W 5.855026247350377 5.965444602778822 8.607655137382405
