30
Energy = -320.23299151 Dir = /p/work1/plile1/GA_structures/W/30/all_candidates/952/
W 7.130785882093831 6.123919786838794 0.8753564502302975
W 4.78562458323232 5.172993329339876 0.9314896839043897
W 6.205347871898229 4.090813312611585 2.5957645589252794
W 7.076568851224661 8.23057159442402 2.2566169876872264
W 5.1226847646074205 6.795453163750532 2.7786863849101273
W 8.588216164688896 4.491487478623948 2.057988524097281
W 3.570118218516297 4.65868735304801 3.298213121480211
W 7.858782376167521 6.3155657467145465 3.5596489747048907
W 4.5993581191516615 2.552452053377083 4.300323260311447
W 8.084242558578751 3.981385041868931 4.817143488732194
W 6.214767770630926 7.96084595955362 4.892933254059745
W 3.33480351625882 6.894218132244408 5.065772164302039
W 5.705921463444466 5.169462364865186 5.005365383619904
W 1.4839165470281008 5.16542220233792 4.490166862010148
W 2.2419180380911135 2.751947501359115 4.954070971993189
W 2.564799349710679 7.988504538887482 7.14814198071982
W 7.776355259511637 6.082632289173563 6.418676612185365
W 3.706436977558046 1.6768546677752056 6.81947643619047
W 4.8801012694428705 9.374869446366302 6.424838800216049
W 8.356979837244223 2.044195988382078 6.215373191026101
W 1.3311953218528432 5.944716750211841 6.883973343617589
W 3.4728982944604505 4.405078880152751 6.390154111594002
W 7.057425680384659 8.80315117582433 7.259125788427728
W 8.413506620404213 3.8799635116007694 7.616824071751614
W 5.962693274680519 2.750581144152853 6.530692539560089
W 5.017021637145502 6.977692130140414 7.234152475815493
W 5.986581633008627 4.71067657127058 8.155324209310592
W 4.001912626039651 3.2075553961799153 8.629742403403428
W 3.1750882387433594 5.773050872225664 8.562083745590336
W 7.190732042618163 6.922036405117267 8.72866500804073
