5
Energy = -41.86953111 eV
W 7.344733230778355 5.040207531184992 5.075292101511367
W 6.840988817729107 6.769585930827756 6.878904066859316
W 8.969363991619366 6.294694856665681 5.632937146220737
W 5.019757592084458 7.175041349046351 8.690366463014998
W 5.992185337433806 8.882209224539574 7.875285034471297
