5
Energy = -41.46859133 eV
W 9.310638958264606 6.986953469092485 4.431171018444408
W 8.092280929977264 6.805470224307712 5.858627383688498
W 5.608495674593634 6.1910314708826855 7.146409864494844
W 6.942594550758554 7.501585215086452 8.39254432565195
W 4.777181308697355 7.25671033788539 8.94376048443103
