5
Energy = -40.91770465 eV
W 7.869045532486382 8.249405440612056 8.528398454701485
W 6.948055168719511 8.26872229367764 6.4168632859175485
W 9.072220278087594 7.452223301241899 6.3103598015034486
W 10.019336772787987 7.412931512130241 8.382265140117882
W 6.561286550719848 9.001435018734119 10.710897880954725
