5
Energy = -42.89410776 eV
W 5.430713124979732 6.4066321293743504 8.122676159308037
W 8.0191789192695 6.173058793713921 4.27685717119569
W 6.66324459050676 5.137180145108869 5.423536609835567
W 6.995021658095966 7.2508167825845495 6.522921967821627
W 6.059624519226469 8.22874465229504 8.854823657549538
