6
Energy = -52.39081466 eV
W 9.604888888117516 11.206013832292498 11.793993366010442
W 11.68125281030711 9.639739409002562 11.808430330778558
W 11.766300879843666 9.456756202436091 9.320994561356187
W 10.38859277372209 13.625019827471178 11.454267291567218
W 9.638357341491178 8.88714063242634 10.497251600801166
W 11.505290371220784 11.920796987530817 10.264223493581943
