6
Energy = -55.08860449 eV
W 10.599764071754059 8.204857500746547 9.761956587600482
W 8.039902347888201 9.267380037938228 9.953852727613304
W 8.868328513338119 10.775186285514673 7.506661273774266
W 10.120408936650657 10.585775351181187 9.374937543378667
W 9.076995809105314 8.49986203180422 7.863009431795896
W 9.434020306735727 8.792891107067463 11.666417316806742
