6
Energy = -56.04285142 eV
W 7.034975570539451 8.253559781276664 7.627790410957146
W 8.318140705615717 6.457278059126821 6.767816047447506
W 4.6668499417854585 5.58037790109519 6.150522282009334
W 6.000275254672289 7.553464780216703 5.564849859660703
W 6.798972930298845 5.376792412126264 5.150237463048085
W 6.317226780973504 5.924026385826681 7.884348617673688
