6
Energy = -55.03493575 eV
W 7.057785106994814 7.83213924620718 9.703952171630469
W 8.624079518392541 6.604745166946372 8.673450940491426
W 7.592539452855355 8.90791715763812 7.677974034319499
W 9.73423695830917 7.92760314980761 7.107199838164154
W 10.012524120603251 9.881494868227046 8.424705745158878
W 8.242090140469285 10.110537461316936 9.729757264430626
