6
Energy = -56.52253767 eV
W 6.507451709545113 8.312441217104363 7.784073646168709
W 8.449116266440477 6.542440514429617 8.326765474883956
W 8.498863142083062 8.211194235300013 6.549985589967613
W 7.545147925599126 8.344700244622695 9.835651031087547
W 8.591627133052517 9.962698602060275 8.23721851318826
W 9.984158823279706 8.20289018648316 8.842670744703794
