6
Energy = -54.01787743 eV
W 7.312040840126784 8.646092631110397 7.596394189038437
W 9.3867882765002 9.972585754190346 7.941886794361896
W 11.36953212430473 8.87403761812393 9.417863719960566
W 10.617425569248642 7.634249149562699 10.86665272598579
W 7.047987500509267 10.517975148885972 8.735231470919874
W 8.647569998788095 8.781855128715838 9.784294588747983
