7
Energy = -64.46075441 eV
W 8.6602735058162 10.645775315563673 13.027725591003843
W 12.77613561983425 10.176375943701352 10.53235127677359
W 10.585108241884251 11.14204234305966 11.645970709990108
W 8.473255584794934 9.463917653282465 11.311430678919653
W 13.468509686212588 12.244474093495668 10.051945140122825
W 10.445004414142504 9.876222612290482 9.690715445314225
W 11.350576215400551 12.176104797696476 9.342795253099471
