7
Energy = -65.45182821 eV
W 10.127766279705952 9.15593962767495 11.01696348145131
W 8.41421185353976 9.077362543022762 12.14664387062375
W 9.388668647591315 7.409348133573248 8.07631962456103
W 10.649923682307612 9.333931594838992 8.10660153691699
W 8.158472887074591 8.988249916517729 9.54026362761893
W 8.945743188550322 10.887888032621795 8.174278165893341
W 8.235563236873539 9.065171113367315 6.870256808500639
