7
Energy = -66.00952468 eV
W 10.747008003749093 9.593880595938908 8.399466301340063
W 11.04457533288453 11.074208797326394 10.419775217862313
W 10.099738274397312 7.7577192225461085 9.926467811563453
W 8.96618933257405 9.834092585947399 10.658193779500655
W 9.336527374474494 11.6777157067117 9.08927728158477
W 8.394559367061381 9.105083124975922 8.239356742107592
W 7.853390053955577 7.3906867515243535 9.700946643151864
