7
Energy = -67.25001069 eV
W 8.253329731373876 10.695958164595682 8.44024280115838
W 6.993528696750948 8.907748970810223 7.528104501269971
W 9.799531500394107 9.077304432728171 7.6615551213114905
W 8.54338497425113 7.080452297572534 6.937450355833865
W 8.284136965734287 8.937119021492993 10.028768021202056
W 7.207253798490446 6.957014284219614 9.024020306529126
W 9.68077883300497 7.10634732858067 9.141803392695353
