7
Energy = -66.51918472 eV
W 9.886269518706303 7.81502987600896 10.27753911813538
W 8.742917544078562 9.878647371181893 10.692312695315733
W 10.242534518269206 9.313257065881773 8.355459918553416
W 11.56627090018419 9.284417075716197 10.902926866296326
W 10.681369302576911 11.151656827609823 9.842867581819155
W 7.616466671692856 8.844730692980812 8.773068912936987
W 8.33636932927906 10.847604017948072 8.188981269781996
