7
Energy = -66.11931622 eV
W 10.717449392204037 13.923075789888966 12.046815774442475
W 10.88652920215164 11.698211622436295 10.928165517526725
W 10.495362676309773 10.101396533673043 12.802590413632956
W 12.030010122381965 12.056481673788522 13.063593277771776
W 13.392525303227309 11.57017086204651 11.011328755311041
W 12.416412881391217 9.492952013264203 11.868999125380451
W 12.677859905205425 13.912791583592986 11.009366104716444
