7
Energy = -64.80406968 eV
W 12.327450029073317 11.781045778033016 9.794207370187204
W 13.127904978317755 11.107710714632196 12.00399758858224
W 12.224215886293578 9.480840833629939 10.645019767858503
W 10.515329374102373 12.154836908912689 11.37317814041
W 10.966768647137258 10.177177452448392 12.682189377276957
W 9.682336250425948 10.377525149653888 10.064760307873255
W 8.129071808097164 11.933764753713996 10.221217431781685
