7
Energy = -66.20480995 eV
W 7.377132405548063 9.164452282974587 10.543783428173377
W 9.540114174051384 10.27784156157061 10.184580731917347
W 10.567455388349801 9.411183474404462 8.048619279126655
W 10.950610467955492 8.296472709301401 10.09223472105474
W 7.61886440568053 10.069467658926557 8.410659439410102
W 8.727763898745158 7.676594092070632 9.21793260582923
W 8.626551838775761 8.522634167280115 6.929558300453752
