7
Energy = -66.31562591 eV
W 7.718331560776704 6.615552781505914 8.10444230547864
W 8.026857537922746 7.818576696549517 6.227709239723584
W 7.858977518486913 5.360906735487689 5.95688784088098
W 5.6283229791250085 5.1247789686024285 7.105261926889983
W 5.6912946875853425 7.635436818497109 7.088442815209984
W 4.013501104688999 5.713394383076527 5.598321248098461
W 5.962668711127797 6.60707341172159 4.831995294688729
