7
Energy = -67.25818001
W 7.882935458715214 10.066405326066452 7.810637906697636
W 6.623233007928476 8.27801743509007 7.157755550868068
W 9.169834795398575 8.447527143237833 7.291193961068508
W 7.913753748379772 6.710115097717113 6.5669966385610525
W 7.91375374837977 8.307475342913332 9.399089892735915
W 6.836795894073584 6.586747166451802 8.394414545059036
W 9.051234735257705 6.736059100389964 8.512257116876459
