8
Energy = -76.91880909 eV
W 10.203101065160807 10.093969333704884 13.102636166808155
W 13.63346664922619 12.913052611449386 12.588105717977815
W 14.515984675815432 11.753348297006363 10.702492508871376
W 11.3382249335052 12.041110636868055 13.85508325731594
W 12.642270112525026 12.761430123338345 10.010777962765063
W 11.383622830875877 13.639359655448628 12.026785757944081
W 12.244899639463389 10.88982094459092 11.679797997522932
W 9.847816117912268 11.687360106606354 11.556398953178348
