8
Energy = -78.03826865 eV
W 10.540424137839363 8.088675686298304 8.494247570067188
W 11.245493203542653 10.264691561243529 7.875733502007062
W 7.096737564813894 8.098392573983288 10.473824654810976
W 10.233209440934544 10.397501825728252 10.076728452682154
W 8.107042723453256 7.964039292953503 8.278452474402457
W 9.445842726606964 8.176173591332393 10.735182449068423
W 7.805088067712854 10.275011641042362 9.856539530202607
W 8.892074463734984 10.185881836840526 7.614251233979863
