8
Energy = -76.23571537 eV
W 10.69978312320405 10.436189668534762 10.033190590050559
W 10.737770444809145 8.09917913678802 8.77221346954648
W 8.694624515319806 8.368262104910741 10.036020390027351
W 8.415512217821384 10.77285976855684 10.532376106354333
W 9.2496412132487 6.201088193328304 8.809543639649048
W 9.469484814980174 10.271581744016164 7.992054706448741
W 8.148363455760073 8.003531678154946 7.693792748032567
W 7.150708110831897 10.298387194854467 8.583520759296626
