8
Energy = -77.30096163 eV
W 7.619794512932996 9.218166155091854 9.34355029638869
W 6.019936490196329 10.122610463918065 7.998499990869808
W 9.793034229121822 7.310158146246339 8.250198808042862
W 9.890177810381598 6.722999017149136 6.048433491114675
W 7.550192346305978 6.74011572079844 9.15978560456759
W 7.877366635158719 5.978290653931218 6.818242205382333
W 5.729984415313444 7.867204741954465 7.900638576749288
W 7.982989119720851 8.50393066004248 6.944126586016231
