8
Energy = -77.5189362 eV
W 8.608058585569799 7.5710662674496465 9.615262177995325
W 10.39719974882751 8.352773839989863 7.534622336969029
W 9.944609690733843 9.946768673831157 9.856777978816373
W 7.942628145724628 9.361653629744232 11.194626123934619
W 11.078900594748886 7.7544427471790405 9.655130147178937
W 9.15357688167895 10.520969521809695 7.6408993910391105
W 7.193368045065604 9.994423425460917 9.106237458077443
W 7.897900792867167 8.289577173239312 7.413610844541634
