8
Energy = -77.05315263 eV
W 11.205440406634468 9.225904129735783 8.482646282676383
W 10.131315916329042 10.025727674141256 10.756797533975885
W 7.865783822223959 7.8867755335105745 8.555792608504651
W 7.724379532259295 10.285425576747775 9.647889734328992
W 8.409572637075934 8.313172421886568 10.897454220003842
W 9.755243222433997 11.191371640570628 8.66066138436903
W 10.451393149546567 7.587498350939135 9.782096581967373
W 8.610467853688352 9.54746150838893 7.276187932856725
