8
Energy = -76.44945926 eV
W 9.94638716436637 8.318223049237986 7.962175095271062
W 9.183342702178738 8.35056158343062 10.30536381927167
W 10.1678011406905 10.72952902376411 8.81223319437869
W 9.19164415703775 10.88539220932818 11.03891804763336
W 7.74431964577933 9.688792293808142 8.864717372195658
W 10.356520851708924 9.478702747550326 12.45259243285008
W 11.482403230433128 9.4778978869538 10.47751416925396
W 8.689819763105366 9.781403558678239 6.759320471363419
