8
Energy = -76.70933222 eV
W 8.494602270249189 5.540781228960755 5.791105296086342
W 6.757497702444379 7.365579718276893 5.331383369408071
W 4.072024923302002 7.797049728148215 6.151339757849532
W 8.304478151441945 6.73138183671267 7.778590726975517
W 5.962018469694802 8.017508867972252 7.596838254555503
W 5.8529118398510604 5.695845927586099 6.8390756128434225
W 7.797627383209814 4.4536149930997535 7.825651654724602
W 4.670700079617291 6.310098519053711 4.597876147367476
