8
Energy = -76.36910376 eV
W 11.758385385638007 8.945997634477008 10.217860796699712
W 10.524787142696802 9.173468288764719 12.166642190117665
W 9.908511874950847 11.19193814564032 10.612930945640716
W 10.53091071254923 10.484910132118694 8.35975508871575
W 10.203257414041381 7.25738311824462 10.848193574468722
W 9.03504274732107 9.132133744746499 9.615896954593033
W 8.138529489916387 11.812594764920014 9.052807402378775
W 8.208733346148778 10.296575329903312 7.443061038235315
