8
Energy = -76.8108733 eV
W 10.596979928804288 6.981601403107935 9.21437538724941
W 9.523646950540064 7.699688215279071 10.993234802435252
W 10.064074583514188 9.445738383807424 9.268485680654674
W 8.125866508913143 7.357689680232596 8.891960341666229
W 9.140884341669747 8.691134953783031 7.053739412537414
W 7.582835772559506 9.669563582604576 9.693505968932586
W 8.374689486109986 11.017639886620552 7.787260503320511
W 6.836034428975127 9.377702210569755 7.3377877804908485
