9
Energy = -87.39214057 eV
W 11.625825029723496 9.696976728036049 11.146982959348334
W 11.24449308618196 7.5161636578400355 10.911642444905702
W 10.177822946551007 10.889047083518607 9.085281801605237
W 10.798073871966643 8.443071625187061 8.682806914695332
W 8.925250637193697 7.368609132604408 9.645597269536925
W 9.20322822593393 9.506584476967358 10.814006268804594
W 8.306588314359923 9.422227733272567 8.112923631122676
W 8.199180485282099 11.889133100808875 7.808287292111362
W 7.3238350904039535 11.036240067710104 9.661821466522914
