9
Energy = -87.7998011 eV
W 7.030768671678386 7.934068035391508 7.739844340444958
W 7.854049282280854 7.646771018944721 10.020678526301358
W 9.389829482255871 7.288694804646251 7.697841447932128
W 10.301774951257443 7.190367580244734 9.968162032800958
W 6.8555873074239235 10.277563877288094 7.2925462624543185
W 7.230061071443111 10.052210110190535 9.561980854964856
W 9.211512923256794 9.74413676819379 7.56778944452537
W 9.643059522064915 9.749048437725463 10.191228099216517
W 11.34377786674193 8.977560445778126 8.820349991359404
