9
Energy = -87.18210548 eV
W 10.045599856978088 6.982216569317837 10.230950427186528
W 11.99564055678677 7.958058758634074 10.601033437396737
W 9.765725944040366 9.308494747093919 11.023507144542293
W 10.538683919723207 8.694024980868328 8.518916688171078
W 8.77303377437853 9.870304297036169 7.085187908859036
W 10.18494944406959 11.028718923000866 9.300574560222843
W 7.79449560769482 8.817976292804289 8.923514187537558
W 7.6470645336999254 10.563249139626263 10.561801845668084
W 7.991576533264106 11.594904964224064 8.485314231778192
