9
Energy = -88.03041298 eV
W 9.852147928779015 7.375987864619845 8.196092267728995
W 11.926669465573871 8.507039857659683 8.298364082174853
W 11.24323521729991 10.452894707799794 9.42677339879423
W 9.462577050462638 9.764073081551379 7.8951213128742905
W 10.010121811458397 8.543472287961102 10.3320798123473
W 8.775307505272815 11.180800156229646 10.343525383425654
W 7.391012286570591 8.07915242259664 9.104503147082658
W 7.213289438665207 10.416814456775459 8.732460380011581
W 7.760023408699226 9.201241552621031 11.162894810439791
