9
Energy = -88.561158 eV
W 6.8822910389565894 7.801918270183897 8.552238403861299
W 10.783562880202576 7.660120249564211 9.212525047038614
W 7.357507194134874 9.578682079541805 10.081805239345229
W 8.598008057638369 7.222609498327544 10.098260313226445
W 10.000355973430628 9.53511279298387 10.49307064060939
W 8.90328906622307 11.139821552279443 9.12651099869148
W 7.931031404829588 9.72051464691937 7.265828461192515
W 9.085844582900853 7.557523834826047 7.329758237401369
W 10.348122827980909 9.634170788695965 7.687088334891465
