9
Energy = -81.4780791 eV
W 10.597839409010676 9.596884392948724 8.241875845415725
W 11.331307287298241 11.254290680144058 9.852297152102334
W 9.50714178916121 7.800696147171951 6.682372352070559
W 9.776954243682244 9.573432238969044 10.818783460733092
W 9.457720289754736 7.071216501207545 9.263234876821217
W 8.77635622845721 11.132784679278663 8.803886246504785
W 8.050515188396929 7.364467283055794 11.520926034831517
W 7.548899601844615 8.553507665820883 9.602347247908293
W 7.409888987093633 9.859038455555012 7.403053929920199
