9
Energy = -86.80582088 eV
W 10.43086879133971 7.089183934038272 7.568113159056178
W 9.367716632366816 8.752849330313476 6.284813923727098
W 8.094718610497997 6.859733988516064 7.830704255513276
W 7.123259553513858 8.209913108240793 6.071533454689996
W 9.117128750127533 8.795213500427336 11.455539351318402
W 8.45462824995569 10.693656389321916 10.406592826043378
W 7.3365448938774085 7.969383949283359 10.085500895748172
W 7.358203298228506 9.503567582057604 8.258183371619968
W 9.675027537148374 9.084594534856937 8.997115079339002
