9
Energy = -87.24873881 eV
W 9.237962221490736 8.26453869360349 8.555683987808818
W 8.170771537335819 10.399890966632668 8.224352691838554
W 10.491845902870418 8.475284533159549 10.631817304007999
W 12.465240647139183 9.936738791637394 10.473841116319418
W 8.052556640071993 7.504037698926579 10.530024515010503
W 11.072445385148463 10.361768361476255 8.601479099771417
W 8.41451725881536 9.895597559319157 10.635693535011029
W 10.636776986055862 11.223023423833938 11.195666564748127
W 9.487499711952562 12.08312474338215 9.26496634276029
