9
Energy = -88.91582094 eV
W 7.479092304295021 7.98332754805726 6.506050392126929
W 9.86732729273485 7.98372108645774 6.505980079901031
W 8.67290374160061 10.051925872480915 6.50611542590033
W 7.378769138193569 9.419924200535537 8.673056095846343
W 9.967301972068686 9.420291835164663 8.673036463320157
W 8.673382772440458 7.1784935704304695 8.673305494935192
W 7.479118400462137 7.983836137970015 10.840386090838722
W 9.867356850089397 7.984229167152986 10.840426554594645
W 8.672931028115276 10.052434081750542 10.839826902536778
