9
Energy = -84.59713371 eV
W 8.204796096843566 8.120823066330935 9.432661565945931
W 9.26926607219566 6.390676982945268 7.959701458160942
W 8.524414166730809 11.182373666060416 12.082805533649966
W 8.132807720027886 8.131995424683085 7.021099515147543
W 7.400566736298281 9.518322184165955 11.694483223264125
W 9.383705297171668 10.373213830360415 7.823748212638865
W 10.685070785851922 8.477459163568849 8.282040341078487
W 9.722246696856283 9.978894931156692 10.241002099139662
W 11.672913689124323 10.680671936432208 8.513066727491855
