9
Energy = -87.23878211 eV
W 8.397511373607772 10.15106367522151 7.723393509238594
W 10.63126830209485 9.17885496193475 8.19048832253514
W 8.341470687323753 7.64406787871287 8.744506843202561
W 10.553971476124161 7.042302701211738 9.382694128369286
W 8.90686103961273 12.359124886178149 8.192026751188155
W 8.406216544546753 7.7299937814182815 11.098521572271059
W 8.12678927795184 10.04584667063663 10.157301830732619
W 10.250085990322857 11.15445680710403 9.64079015450725
W 10.4964991113303 8.811467327656237 10.97463014098373
