10
Energy = -45.84257647 eV
Y 7.968972669969678 12.248822112857521 8.766219020274361
Y 7.210909158333902 9.392908349277054 10.241208475943571
Y 7.230239462217789 9.552572539794006 6.956853164026589
Y 6.590019709699317 6.565052759178833 11.82388049860094
Y 6.651316174798317 6.640314407463924 8.475105738619208
Y 6.78602200365466 6.773702585784479 5.129077361765388
Y 10.23768557169735 9.81344592068836 8.674804314164842
Y 9.521132185148206 6.78553628254348 10.19005506312466
Y 9.54264348645642 6.945731776332035 6.903293520587391
Y 12.382869641191638 7.257063239014369 8.524791729249019
