10
Energy = -47.22767291 eV
Y 7.81342062494699 6.227435975207026 11.050305687163878
Y 9.312475898410367 8.60164635704116 9.420464905609482
Y 6.054299056475739 7.782060965813371 8.654339368783342
Y 8.622288556700859 10.309138894730689 3.994951174693905
Y 7.760155920187357 10.427538686503542 7.128939065143111
Y 10.029687806469491 8.360509478401681 6.190298182920566
Y 6.885077763476354 7.7993088346998185 5.30266179962478
Y 8.253288056514565 5.780226161282019 7.7503530197615165
Y 5.6436843104012775 4.52857419744037 9.516999359905881
Y 5.064571519650904 5.276109108569806 6.522520468505932
