10
Energy = -47.97255186 eV
Y 8.838354613242215 5.8736067789164945 6.019472916606015
Y 6.429869307401506 6.938787102794007 3.235331752226302
Y 10.306021994537822 5.654998424142401 9.557716668958351
Y 8.139497480884268 7.6131898998797665 11.293952214065351
Y 7.183706875564273 5.689875418220245 8.943680780161793
Y 9.058255578514743 8.313214366830437 8.328819558467877
Y 4.253977314824177 8.899846929220837 4.95716909669249
Y 5.499402843037466 6.248983455180072 6.19945624886542
Y 7.37579095373303 8.87122646505178 5.5816444265201035
Y 5.720229794972044 8.68847696968962 8.506163628392345
