10
Energy = -48.04636502 eV
Y 7.968127597782641 6.481294932798786 7.305151687168465
Y 7.068998640941169 8.485165236183125 4.922034751265752
Y 6.587547408969303 5.332999543476571 4.299689315332485
Y 4.9951162822340125 8.104346648005842 7.741003979468249
Y 5.224124372206552 4.895070685399644 7.294233935880909
Y 2.1969568603547143 5.914970191102837 7.213953042156127
Y 3.974017833081355 7.052536648090174 4.85202684749203
Y 3.4739053456640008 3.7401133694652944 4.901327372112195
Y 9.680431454484292 6.034212986558874 4.675858542155194
Y 8.206141233634069 3.3346567882710962 6.170087556320289
