10
Energy = -47.82263814 eV
Y 10.29661357632174 5.560369898777287 7.877447468303411
Y 7.555189795073645 5.613141372960567 9.67102418090809
Y 7.4580269190483195 5.42217158818794 6.101242017717113
Y 10.09581219697241 7.232880483691139 5.065268786189385
Y 5.7338182731739735 8.38442771106202 10.164372048396148
Y 4.808947597207733 6.157333596313592 7.928233627633945
Y 8.199436804749944 8.21694933018334 7.729793421432545
Y 7.14464919054509 8.371656526014934 4.493028538348622
Y 4.422660735876026 6.640772449468328 4.736194232582775
Y 5.0197573908217645 9.139637123180064 6.9712192973324125
