10
Energy = -48.0150586 eV
Y 10.21083284645439 6.975864809151021 7.721930531651965
Y 7.726779658320512 6.118396004328176 5.503972572827473
Y 7.77154235253667 4.854658462108674 8.57343798167324
Y 7.862990877992275 9.164227956830173 6.794256507876007
Y 7.966404053597418 7.919999472689999 9.899619577202932
Y 5.300717871328238 4.010619398086531 6.357423969843159
Y 5.454044838176146 7.066043916597032 7.71012881441674
Y 5.377462565578368 8.303107556340358 4.621345636362478
Y 5.179688693940523 5.258244496159364 3.2552321954086114
Y 3.025140443578135 6.187672459650322 5.433192478620305
