10
Energy = -48.16769077 eV
Y 8.520047693589815 4.511403444971672 5.903662637357545
Y 5.718648000693018 2.456876245648497 5.30274079915112
Y 5.917292195481999 5.481520236363997 4.257769942847945
Y 6.072029446438816 4.164190906044223 8.033775804779392
Y 8.119755703688195 6.975544522920395 8.258450434612023
Y 3.2809967520413976 4.798393091236979 5.827837010862843
Y 7.920498874657128 7.809444070913279 5.07485287707722
Y 4.4075006356429185 8.349903858032592 4.5895163372203385
Y 6.421407285998114 9.884793418100777 7.0117923900185675
Y 5.138319515096517 7.011586861055872 7.23923451797778
