10
Energy = -47.53634839 eV
Y 4.157591103610768 5.3584271052802945 7.033365955004649
Y 4.103458122455677 5.3679506299223245 3.7139282479172793
Y 3.19531898591276 8.040139231238244 5.392719855814904
Y 6.604769152361566 3.711905903587649 5.3413980802247645
Y 6.594553240515326 7.025479200074722 5.330075414872396
Y 1.2390632517069151 5.365026354866206 5.418184890681265
Y 3.188099309431872 2.692430859234321 5.378206312892046
Y 7.447105290946603 5.380989791579708 8.0278391229482
Y 7.649979110559903 5.364996539083277 2.6729507323448622
Y 9.505142218333987 5.377734933027409 5.376410411075425
