11
Energy = -52.91332448 eV
Y 4.6631871419516875 10.916905219890104 7.022437198413147
Y 7.099259183484634 8.797659725678324 6.06799197872127
Y 7.805003701974121 11.72415514691548 7.594661578924047
Y 9.862374845797474 9.2357330497422 8.208696459881743
Y 4.096121571771648 7.679475127642082 7.13425031387781
Y 9.616414429737063 6.428667207023745 6.570718533105189
Y 6.482555173521452 9.011367290079855 9.122749848492163
Y 6.665932964245498 5.759496089706732 7.779192452279802
Y 8.927315039581558 6.645685411762066 9.950279119533398
Y 9.605636050067103 3.859732522921499 8.49836546432449
Y 11.910648959257836 6.345289496937043 8.808991493229563
