11
Energy = -52.93799446 eV
Y 3.545688920972173 4.990803360114203 6.887888133052027
Y 3.5482102447557606 4.982915217271462 3.481986629160019
Y 2.1979046194315544 7.542932751994876 5.178105169960142
Y 5.954820888759404 3.5429875895859038 5.190059646899773
Y 5.626362717299629 6.963755564305452 5.181960461903212
Y 0.6617840650869761 4.630199190933458 5.183724408325091
Y 2.8378630775119156 2.1758975182231866 5.190750065089646
Y 7.25824701756441 5.4507297074771115 7.540477213696965
Y 7.26195522381813 5.439914231106404 2.8329433276698204
Y 9.2562036679366 4.038357065388183 5.1915226527020355
Y 8.894157160999836 7.284704987926562 5.183779895677655
