11
Energy = -53.05080019 eV
Y 5.832235067194851 9.40692893976329 5.693645710219161
Y 8.220276605619588 9.597047918758067 3.4797835105217962
Y 4.805871304860096 6.105185926405913 6.515678556650669
Y 6.774904576340899 7.85131964549315 8.50905165829186
Y 5.110551903276278 5.312650837988331 9.824663371963533
Y 7.866183627922378 6.932877402191322 5.259084327059406
Y 9.006488197947114 9.909546335197776 6.644514090422942
Y 8.332640438768236 6.192401575459809 10.824207837563211
Y 9.242915897928144 9.436530509776594 9.990240678980351
Y 7.587027274666671 4.6790076642349705 7.84083099766655
Y 9.982658972903872 6.985675684879432 7.978367047714858
