11
Energy = -53.48594042 eV
Y 9.482907472696555 5.127158569099564 6.43013070127132
Y 8.183020171981818 5.016176134714751 9.691239756092802
Y 8.046274783231262 7.754150559857621 7.835409425113822
Y 10.719638771982309 8.355167998708142 6.210022913791436
Y 6.1414795381720735 5.391927879495461 7.0013532751077605
Y 7.825108245223358 7.465180521922172 4.679924051985939
Y 8.86660971120746 8.196884768060059 10.880071491287234
Y 5.72963171764829 7.294373966406016 9.958634635250945
Y 8.043149543526418 10.535298722510417 6.027135280516918
Y 6.745931046969661 10.428787730179666 9.300284098081546
Y 5.254607533778136 8.732521481578935 6.758558561758928
