11
Energy = -52.76795469 eV
Y 10.22673564693634 4.901562085748007 7.716939756074467
Y 5.5821381505660135 9.87043627926171 8.227873670697898
Y 8.68600436617171 10.487119996514885 8.926361794402014
Y 4.999825587361362 7.317727794909132 6.327344792395863
Y 7.646625770992873 7.139364152860912 8.658029203248296
Y 10.78464452589129 8.146844707870377 7.938148628137199
Y 7.651879677087901 5.446906656668205 5.72706043434495
Y 8.100540468063135 8.802143123358912 5.967564244872306
Y 6.664048514379067 9.147456894697434 11.195488417898883
Y 10.622252086452315 6.717542511319657 4.941683260809881
Y 4.3905515945809315 7.184747525752972 9.59422459543551
