11
Energy = -52.82029468 eV
Y 9.515995464066469 8.129162188084015 7.029353863773681
Y 6.076158603435947 8.721669852212004 6.963973270295322
Y 5.508040062351323 5.510652601085807 7.309563893806317
Y 7.328566657214005 6.5879049736003195 4.7866774737251765
Y 9.701756209707696 9.56898594059646 10.034089401413434
Y 6.3560438562925805 10.025904519155597 10.025322725727733
Y 8.866357495791332 4.886526858977478 7.2982709973430095
Y 7.684754338283427 6.977642052625059 9.565011991786447
Y 4.119843067564883 7.132625463173001 4.833065412108227
Y 8.214357073496188 11.222854450520193 7.524696826063429
Y 10.909806921863707 6.439091511162727 9.456400927370524
