11
Energy = -53.0338841 eV
Y 8.603274289198868 9.051482552577879 10.021845279287371
Y 6.44631165435868 6.58834739321837 10.396965246165541
Y 5.153698180318196 9.26585023383741 9.003238691475074
Y 9.625754864377333 5.997215075775328 9.32269785831013
Y 10.632202475935546 8.244302731172185 7.152751991693146
Y 7.42970782570183 7.546980372893592 7.375867759970817
Y 5.13346735693514 8.878350198560854 5.512910930724341
Y 4.3467248514229615 6.417191089278116 7.604683819995291
Y 8.467045797231146 8.256125636708056 4.384746276408411
Y 9.480655917025475 5.458821563548453 5.872883031340758
Y 6.22356466601916 5.9003113498213855 4.71678022526602
