11
Energy = -53.03492897 eV
Y 9.585222708119655 7.518646269943729 7.94219341440069
Y 8.219159654405116 8.543037100458248 5.10347199164352
Y 10.020568030131683 10.61241909287096 7.9094969450137596
Y 7.987404512514537 5.4662761181969515 6.301926717764857
Y 8.472413269455997 4.777899496119383 9.572128134524572
Y 8.655447642419782 8.755546815288637 10.624034066979572
Y 6.3738741742661675 6.9220758760647385 8.938519717506876
Y 6.053646306198554 5.530584475407875 3.84868291348082
Y 5.213926931729713 4.340547231963311 7.096260707129219
Y 5.148355101420351 7.637693121240178 6.065715037357056
Y 6.913886453686571 9.89410048865743 7.8691903251806785
