12
Energy = -58.54561256 eV
Y 9.42838688139023 9.178253917958695 9.269195388640593
Y 7.246704310485543 11.377266368549472 7.839375080837649
Y 11.182990786564908 7.269540561995803 7.2223817588484955
Y 8.09790393783597 6.288756759428085 8.010465116920436
Y 8.437875870318878 8.770013131226108 6.011133196625415
Y 6.0826822060374575 8.607157359684003 9.173776823135041
Y 5.170227091029593 9.367128345734576 6.125119655603723
Y 9.309274005919617 5.304081243696716 5.238168220476827
Y 6.069545301769746 5.151744045604733 10.183258693267236
Y 6.3077039534958175 6.455691782220941 4.820771452354102
Y 4.604460173190535 6.279138216188164 7.530529524735898
Y 6.572732826342132 3.6983127000007516 6.861563820591645
