12
Energy = -58.5364937 eV
Y 7.323191760285622 8.884686466120048 9.852356111498683
Y 10.032277734292046 7.7012185772996755 8.42523730319322
Y 8.61506108474892 5.942828367609256 10.97037784173739
Y 7.672431468205515 9.301077118350946 6.388541764000091
Y 5.2028507249261775 6.606401735931628 10.71924446045395
Y 4.671421527678911 8.449233412443395 7.820829429140681
Y 7.14557649843793 6.042785455990596 8.096952443107531
Y 4.930359720382818 9.7372516219347 4.519668219915017
Y 10.068725432772274 4.481038421116602 8.16158606593504
Y 9.272983253353216 6.432502796450556 5.395361910505235
Y 5.873239386220677 6.750448014091128 5.099347208391198
Y 7.577854770455847 8.572078640751256 3.1210479040360464
