12
Energy = -57.78940685 eV
Y 10.442629189121751 9.634723461398469 9.703827083877052
Y 8.976997173434746 8.204599458687598 12.186099330935907
Y 9.274543614624639 6.491070481499279 9.329311823791867
Y 7.159672504903245 8.894993243143034 9.48034067105612
Y 6.620819881394397 6.1662268989741165 11.386260777765157
Y 6.022974953869446 5.7993176212433974 8.169148025196879
Y 8.457789863831035 5.80590753174403 6.062095942091819
Y 9.357921493889213 8.834787130940205 6.697650770162356
Y 6.111201263941332 8.46575508091585 6.224234017047952
Y 7.842263567579373 7.899500444951193 3.590504231084896
Y 5.4895139353755456 5.76330762366077 4.625776224397182
Y 4.695181754905183 8.571900345513951 3.2189228876099225
