12
Energy = -58.84701728 eV
Y 5.733848646849579 4.878085450829099 3.085939588238453
Y 2.7304569100805747 4.318916113324532 4.416243904528242
Y 7.157996731259368 7.190350779678633 5.554845821849888
Y 8.765551316016753 4.483672218094328 4.6965318717690145
Y 3.949562547375162 7.271257993303358 4.575671216493586
Y 10.452429245023572 6.961526286995834 6.050332347479829
Y 5.49732296444305 4.441445330788079 6.263543847949082
Y 2.765602065001257 6.222885746006252 7.309591963264141
Y 8.607376609902953 5.094142335641502 7.943420142603901
Y 4.896970888502791 8.957185722796176 7.288115645507192
Y 8.257150447298727 8.345725329498867 8.399553258018974
Y 5.6823103484046085 6.331385413202 8.912789112456831
