12
Energy = -58.61847598 eV
Y 8.972675048246977 6.095869790475868 4.359522069321844
Y 5.7840226426327 5.187523866142583 3.7424173661998283
Y 6.1846568752149444 8.683251446751878 4.268143524455494
Y 3.185960668198332 7.229679429854332 4.527200708645519
Y 7.403883088441193 3.7170235470016233 6.507148532276255
Y 6.695670531457903 6.61103601576104 6.344947821164255
Y 4.1021917727337 4.928905345019055 6.789458572015082
Y 4.4190869619245765 8.37264004628061 7.430373243533986
Y 9.557025414759313 6.107866723722116 7.827738372978386
Y 6.515947628611399 6.121860404118512 9.338181530113244
Y 7.799159471793991 9.042508162287918 7.94805029709586
Y 9.131661140446996 7.6537764670470825 10.668759206662857
