12
Energy = -58.15931944 eV
Y 8.620805277860455 8.957502416387017 6.671645410180098
Y 9.002247050635932 3.8527408817272177 9.554034988270796
Y 7.091541522395251 9.231927602000132 9.751713797420376
Y 8.575304398699526 5.445895956915353 6.643177922475634
Y 6.71438592140059 11.560949683450502 7.494177726654049
Y 6.423969961042708 5.895506033511833 9.016777747816082
Y 5.1907619558384175 5.280973989905068 5.923492589355343
Y 7.0973067122176134 7.2560001685285656 4.16994036590962
Y 6.657337944760661 2.868281140905011 7.525053539089406
Y 6.568552042916767 10.454401209586761 4.436910968072999
Y 9.650751025765631 7.05795342814008 9.39634834091717
Y 5.426490192770232 8.538617331355162 6.915989513312634
