12
Energy = -58.56017429 eV
Y 9.547237499175488 6.6553747880154 4.874514736514481
Y 9.784880926085705 5.261831988156807 7.922913953414803
Y 5.065472280673398 9.584890604133031 6.885408116620742
Y 8.757164489616228 8.521509992788813 7.662713964106112
Y 7.578013967348434 9.444028465071154 4.691707412961882
Y 7.612023747500261 11.672856900387158 7.08495661031885
Y 6.725370514377012 4.202090971466426 8.550528542246157
Y 4.902515639377955 7.001080217678755 9.138020685858711
Y 8.202308005652132 3.726082253914232 5.491105680675768
Y 7.910962367648021 6.75852736465283 10.360680328165367
Y 6.49338236315584 6.54605783786246 6.245234021958066
Y 6.595356780031576 9.823044826337552 9.766745766428675
