12
Energy = -59.30658408 eV
Y 8.038354059575754 5.882793957465738 8.307332666982742
Y 5.8014623915211505 5.83476858797252 6.11376822111443
Y 5.8245026035397585 8.306983538824996 8.036616973505724
Y 6.823181015252143 2.967952384588866 6.799628593607754
Y 7.942844452661788 7.666325547972849 5.041039881669885
Y 6.967816165842952 4.375508258803097 3.5984007440818613
Y 4.7532087262087375 6.798288849692743 3.3238774366754944
Y 3.8005731326686734 3.8962601309139897 5.188614725604068
Y 4.5870659234409334 5.007685120879097 8.655364657595241
Y 2.9879509396976336 7.160095775418702 6.32828955361543
Y 5.0345902745046285 9.588305046643333 5.0868861081383505
Y 9.560618342759046 4.6372008284972654 5.642348465082088
