12
Energy = -59.38933884 eV
Y 9.09622741143405 6.7728618170147445 7.387753568798887
Y 9.40200697100776 8.720087407500325 4.997135863745735
Y 10.070937851102784 9.509988259735724 8.46184106902467
Y 7.877473710587884 5.439102938508051 4.872876973327712
Y 8.961580102254562 6.720533945972993 10.479733495731686
Y 7.604521664046452 4.205817064773479 8.263600961624045
Y 7.241986116367558 9.527739722576278 10.173864866548547
Y 7.51294417626171 10.763732808596183 6.784200016794885
Y 6.158972898595241 8.246869413042237 4.565608055618161
Y 5.717697586765975 6.250340938256304 10.05051814574673
Y 5.048070517379286 5.458273603483503 6.583259762694648
Y 6.024519570255603 8.194715514739553 7.65767972532739
