12
Energy = -58.53007444 eV
Y 7.630025904479279 7.079993676871036 3.004738416782197
Y 10.583000759260093 6.300330150264304 4.2927451631724
Y 7.997963434510179 4.586351399678926 5.1980434633967585
Y 5.686735006953426 9.784022676054985 6.868341634967541
Y 8.284028829233694 7.728030803480149 6.1013797380870445
Y 5.276127334432193 6.652966965116228 5.486521030556499
Y 6.754520522112776 5.274104179906622 8.319446759191623
Y 4.3391051881622635 7.44395113094859 8.627728850136526
Y 10.03356033272771 5.5675307982656115 7.712904102056469
Y 5.113796935398926 10.010634122219363 10.390867172774216
Y 7.646163356635602 8.316866209278405 9.211970011369866
Y 5.855598542585258 6.887127015508475 11.447789434584502
