12
Energy = -58.98280302 eV
Y 8.833851911755733 4.283534659867982 7.149044634358522
Y 6.928193246090722 4.457667347997024 9.871217554103186
Y 11.038239174345664 7.3084567773834355 6.627260334486234
Y 9.538530004102775 6.481752885331869 9.502563813385063
Y 7.9234287767740375 7.332228872390101 6.702244894447934
Y 5.426446713561387 5.330583958241954 7.083396963264317
Y 8.817092705190152 9.80518792274318 5.027123201237272
Y 3.6928889687529236 8.081565378231204 7.511518084655787
Y 6.361554458755468 7.746462134767402 9.521699345005539
Y 9.326588520326084 9.68623551132882 8.412047801523794
Y 5.502158915988162 8.02437075587681 4.718370069251853
Y 6.2377828228223775 10.184026811949925 7.1053812581147415
