12
Energy = -57.76410215 eV
Y 4.19458119275894 6.057265762673295 4.300742682492934
Y 2.084267638713101 7.191653450484214 6.511152849821997
Y 5.121368768724417 8.585891910176796 6.2357037211349775
Y 7.360999856718312 6.148920833509998 5.287699753548456
Y 3.5747985469569366 8.28936208509567 9.191814947539719
Y 4.920761103772154 5.738689498019858 7.550750673461879
Y 9.354117400149637 8.457330467774232 6.665076478829365
Y 9.105603188468063 5.7407639998402775 8.219674863305183
Y 10.648313296246858 5.697074164388792 5.292241996902358
Y 6.890692574157802 8.125021598059561 9.05185710479382
Y 10.078724354473362 8.467033793621741 9.906264764502849
Y 12.165384307024269 7.053581037004329 7.836175338846859
