13
Energy = -64.29001302 eV
Y 5.736694732784737 7.523280637118806 3.5821848526366487
Y 3.5485377521901698 6.289776387190473 8.460626109954411
Y 8.635929608690594 6.307180475173454 4.375026857117685
Y 5.281397575286208 3.2997328551220266 7.666277741924567
Y 4.055572519584571 2.787976441215942 3.532048295825797
Y 4.196691578738463 5.310631880902625 5.504418420127335
Y 6.319868143956982 4.889865626386265 1.8973648235100569
Y 8.25227442208017 4.751300278730294 7.408736542702473
Y 6.971171303829462 3.6313046311656243 4.709411533038508
Y 3.109925081772843 5.987469095971444 2.5996140406893136
Y 6.422302413036928 5.688740861869991 9.927698002503977
Y 3.2314660171654297 8.275389097580472 5.556444411090492
Y 6.3664706874229875 7.385653860904011 6.908449619834606
