13
Energy = -64.60747146 eV
Y 5.624431578568168 9.141392020340005 7.2338476402206755
Y 7.778815090772332 10.03399436539928 9.527793822951148
Y 6.63282125008293 8.548674747937998 3.8748727169824324
Y 3.53918234911888 6.279233261213068 7.661560698692181
Y 5.587473043103054 7.554914307649672 10.062002336904015
Y 8.660720414332715 9.758302709168388 6.29591586517472
Y 6.219040605960057 6.223265675338736 5.983236827469427
Y 8.401720786438954 7.013145385899244 8.264561892558138
Y 9.313794635540027 6.844480362775965 4.831005164814537
Y 6.036374501542211 4.473989745709459 8.848838074716971
Y 4.987501573861349 3.3837964951514388 5.869321913740327
Y 7.055592215959092 4.880098102341415 3.3356897807280697
Y 8.262005552915793 3.894373388263579 6.276497784057284
