13
Energy = -64.02821798 eV
Y 7.80088740847824 3.475426882455233 5.38500520755816
Y 4.387948415459236 3.782072214397909 4.648972159721532
Y 6.70459927604918 5.768052116655283 3.0065546989891736
Y 5.395780234344853 6.480481876607407 9.454416201222994
Y 8.451300718315276 5.042575883447221 8.287232660500433
Y 4.270784357929147 8.776116900605365 7.0771390909286715
Y 6.090221152132585 6.144591867980572 6.239327798264624
Y 3.740400729587255 7.120058206752179 4.11762895574752
Y 2.992058807465018 5.708852073698105 7.226330126743805
Y 6.613305214532187 8.831570785702832 4.355407593652131
Y 5.492606999039049 3.4325233346715964 7.979040587660898
Y 9.213896611687145 6.489172956116629 5.214366132804554
Y 3.817821901653098 4.89905552158216 1.594311057527187
