13
Energy = -65.27673264 eV
Y 8.883493976430588 6.7499077870966255 5.238257689462237
Y 6.183818869761036 6.847065173891635 6.814363318409575
Y 8.993281084524495 6.235632089397386 8.473337363332302
Y 7.862852644259064 9.337711435932283 7.335346216106329
Y 6.962498066617788 5.574134840300228 2.926832617588267
Y 8.874153385359481 3.6262736709443217 6.078744518699824
Y 5.725206615727446 4.058823409670375 5.4886478460426815
Y 4.277400262981884 9.104484430864437 6.929423604447693
Y 6.4908669858635974 8.830255581846629 4.1643348010255075
Y 3.9510469233973824 6.665146933965945 4.367493321833256
Y 5.969456233412437 7.375536110563056 9.797628528978931
Y 6.5077547656929875 4.113507820068678 8.671840948767963
Y 3.527705248984851 5.637916075672117 7.678381261322047
