13
Energy = -64.16788818 eV
Y 5.792440490931439 3.8232154884801317 9.491725229588626
Y 4.347469697569028 3.11726296429736 6.642835869882694
Y 7.141467481307254 6.706722016286033 9.889601224899517
Y 7.052997044751351 5.343369943670195 6.749589523863711
Y 6.5093911449416035 3.6389697601928415 3.853648690361179
Y 9.32072103829623 7.7180359102272185 7.308429705946118
Y 9.074189113793132 5.971571501742119 4.10177019127621
Y 4.166200083045072 6.367873354649648 8.019120989704275
Y 6.169756403407578 9.018748994634239 7.807442309911863
Y 7.228165980848008 8.300575459244136 4.995218763719653
Y 6.131370229898132 6.780966279742302 2.4851029955723565
Y 4.278518361959415 5.702507030432331 4.797857351341545
Y 4.080374300118007 8.81200675802991 5.1784573558210205
