13
Energy = -63.53886809 eV
Y 11.09375012602341 9.098248918905709 7.754861866036393
Y 8.984616163246441 9.707779451428141 5.144907399368654
Y 11.039576872968368 6.05951490486179 9.103341484557747
Y 9.179694265982027 6.703522529354127 6.4103491306189815
Y 8.326951027451681 11.049587370624746 8.145425386619388
Y 8.479574176005851 8.140465989431299 9.621964113836945
Y 6.760658229954409 4.3897660371294345 5.789570249305569
Y 5.492396498046557 9.706352455346224 9.534203872847586
Y 5.796879314769579 10.096265560076285 6.145713299111297
Y 7.85972579479148 4.924365224845558 8.923431455611235
Y 5.664528928437501 6.642519395197032 10.803912966382008
Y 6.641701531884313 7.347762284033345 4.288232479168763
Y 5.717650895751755 7.109662257132894 7.474482687454606
