13
Energy = -63.40639316 eV
Y 6.466797598871995 10.1737605018147 5.828670967032441
Y 9.877117074530734 9.644815491790892 6.570314627055002
Y 4.666112608706988 7.6116109653262685 4.712420173951199
Y 12.647927591179382 8.640131648724935 7.949141449877368
Y 7.861089606667448 7.223083687191163 5.805390884648272
Y 3.823234648360952 8.982346701158312 7.628687512916982
Y 9.7743258560338 7.106435347835068 8.784533312881523
Y 6.880426773043511 8.714659071979174 8.853509827728846
Y 5.2424885021319385 5.9683766572044465 7.626015829952736
Y 4.3332887151268284 7.337148588289074 10.487341131347964
Y 11.140830709242405 6.458863315842559 5.969679754863875
Y 8.437189462695745 4.443661410235015 7.332846672950967
Y 7.1437377960478905 5.5865785646796455 10.272796008052222
