13
Energy = -63.59176641 eV
Y 11.908788159350586 8.642017274353657 7.850753744008791
Y 10.03345445238726 5.945780382209947 7.510122847129399
Y 10.245460171438987 11.486498927025979 7.982788547511099
Y 8.931142820056042 8.993964802145191 6.227162219158204
Y 8.960686477805513 8.803175639468815 9.420215926215356
Y 7.896110721623618 3.2512540550348388 7.567026962491977
Y 7.676698123587965 5.661973490066538 9.654901311230159
Y 6.857678622757071 6.226203190911839 6.261496893668258
Y 7.024693668301244 11.179869243846097 8.05674711674413
Y 5.4897591877764285 9.347308742980786 5.5852921490949266
Y 5.609956281435603 8.079542923744974 8.670788630934155
Y 4.868699959701222 4.62681257457349 8.408139328158232
Y 3.569635166632854 6.906254318074073 6.31931798747991
