13
Energy = -64.12965168 eV
Y 10.665686576746653 7.972909967512265 7.524984729839537
Y 8.99920090921602 9.352764246025576 4.873150153257514
Y 9.65602263287852 6.002930486621402 5.016842921205869
Y 8.20746412026354 10.314859014559396 8.14387631414625
Y 9.371933760942442 5.003823809126059 8.526334721078308
Y 6.4836388511980925 7.404339313585575 3.822905009884629
Y 7.54112067478339 4.875070066946985 11.470034486749812
Y 7.503020136655299 7.4372374259042475 6.9626769281287295
Y 4.190453758693831 6.9907398075423695 6.418716313599834
Y 5.651960316605205 9.924004723540413 5.9082956004866665
Y 8.49262960944836 7.633542431608888 10.226899376327399
Y 5.889434553910164 5.2098576294430465 8.787018689965672
Y 5.335030442238706 8.536780692348126 9.19683538240576
