13
Energy = -64.20883271 eV
Y 7.7902789932473056 5.0794026884712435 3.3953569843265763
Y 4.912244575495818 3.061601608869818 3.095439715230326
Y 5.076354185840141 6.114313779015223 1.57445940721863
Y 5.720789572150183 8.430234002181969 4.022490256516212
Y 6.5644721134666995 3.183995176306042 6.203753357042432
Y 2.5882317595775004 6.834156266381774 3.7976100588143678
Y 5.162496887191454 5.582943789492017 4.7091893411132375
Y 7.336396365489274 6.543267590271134 6.68398748196296
Y 2.968108993265274 3.9924122442972867 6.056539851564163
Y 3.9769119668193484 7.391624544773064 6.999624206669537
Y 5.047129362183544 4.770908496899618 8.61672680125497
Y 8.195303518127844 4.5566866248097115 9.136398002410745
Y 6.42730157827755 7.444580922362528 9.687771744029247
