13
Energy = -64.16071117 eV
Y 8.776081062364824 7.262311590242135 4.447063747887399
Y 9.202409454131402 4.684183511433315 6.729594798864034
Y 6.5022268661612665 6.651007940061987 6.861382912629636
Y 6.168381125953738 9.461254457683486 5.0817975755146225
Y 11.158088165021207 7.353203021485515 6.709102098339058
Y 9.320595329548937 10.24584881849739 5.7120558898138745
Y 3.9259083058435387 5.744751108046688 8.97717207098276
Y 4.110929036576317 8.757761888135773 7.766762374856502
Y 6.875679545786482 4.405182451522211 9.268176036872438
Y 8.870387442052554 8.660630330319842 8.329640493709995
Y 6.64320659199182 10.811398354227965 8.008725333482586
Y 9.710672363266003 5.981888019808168 9.673865161874932
Y 6.382366210400247 7.693170958659227 10.104111066328565
