13
Energy = -63.78632416 eV
Y 9.044539634353578 10.695477013083512 8.654290981816409
Y 6.378757081835382 8.661036366854495 9.31984571373826
Y 6.489224282852925 10.419539806156154 6.45531453952346
Y 9.808221508288602 7.770611717140775 10.07125693901794
Y 3.646334297225841 8.589448489972177 6.8520019177763025
Y 11.66792667167961 8.836931857433026 7.637278634556384
Y 10.913877303698765 5.577850084074552 7.673969870913007
Y 8.529218488634195 7.683616195767075 6.98384042833314
Y 8.015002933789349 5.193239697746792 9.229734648769258
Y 6.014539942394213 7.509848329757815 4.8719668902523745
Y 5.276693129589207 6.027734398514618 7.767666653758522
Y 3.737867052485512 5.3636747558749205 5.112211476932946
Y 7.391204179771443 4.530510363010452 5.89684205232688
