14
Energy = -69.30170496 eV
Y 11.338739237087296 5.79664706373861 8.197443911052789
Y 11.142005670339483 8.149634875008367 5.673127918188444
Y 8.300423828036456 6.030463561196933 6.210231006683465
Y 8.36804325205853 5.422513960914684 9.472913886315597
Y 9.785439559902382 8.466630898937007 8.443447054436774
Y 8.070540744892872 9.243396134712649 5.407459016691479
Y 5.352468609617046 5.409873919681835 8.169825948884727
Y 5.154755970299319 7.784427980892119 5.660288879311262
Y 6.5362712617191265 7.261887766937999 11.411621686106544
Y 9.874312784690106 7.480499009614754 11.441197983063292
Y 8.019449244840258 10.410138748503227 10.349236352943016
Y 6.545177048169484 8.269498456473478 8.400531185038044
Y 9.631109802014338 11.39669435939271 7.238813004337681
Y 6.293339706105537 11.211676663282846 7.251426337034607
