14
Energy = -69.1461681 eV
Y 3.4002634809521566 3.1823272885887355 9.208745486714303
Y 5.114383690817176 6.032309553545094 8.950264204327413
Y 8.93062297750168 8.535758491472285 5.1926899747933
Y 6.400614669184722 6.407731803476701 4.290432966750007
Y 6.5878198095234515 3.056718494400225 8.482409784682503
Y 7.413853102270023 3.2686517517148204 5.236184563886364
Y 6.043114264819215 9.618421433065256 4.077375332873859
Y 1.9531971559222352 5.880081432160357 8.09530204012905
Y 3.656636471086307 7.687110408688391 5.89788772460015
Y 6.356165915221818 8.736684104592316 7.288275031495566
Y 8.024902897772142 5.838435550857827 7.119134902599808
Y 4.342577916646661 4.405143029286518 6.2784685253747705
Y 9.578535313711223 5.530301125959701 3.9984007946846694
Y 8.379180368012252 8.002193565632982 2.066296700529441
