14
Energy = -70.59955667
Y 3.7323937206601054 4.379793728725564 3.6359614910514955
Y 2.949310447493088 5.134827998121588 6.84216962025944
Y 5.320514114051957 4.449175955826411 9.311857345328068
Y 7.006229393275607 4.87269435238989 3.918711310708109
Y 6.15146257990301 5.942912375767443 6.788401271207377
Y 8.303051050809303 3.855586381819818 7.588047441519551
Y 5.256899145300692 6.459170549695185 1.5092548650669482
Y 4.4160625179809605 7.481727865279865 4.612258813139595
Y 4.4280172365630595 7.758541408876565 8.623209983281068
Y 7.442936774958917 8.126211261808358 3.400362748190387
Y 6.905824487319181 9.137251216709114 6.584796573783932
Y 7.7763008515070515 6.93066265084733 9.14753894392346
Y 9.213890168651037 6.8111509244606285 5.967099335479747
Y 5.252798149698335 2.8159839678441263 6.226020895232984
