14
Energy = -68.48196585 eV
Y 8.720516353700274 11.483232840249295 8.109265881679462
Y 10.475777585485975 9.024966955072879 6.423243147170524
Y 8.871403805336676 8.426782427456086 9.337036444144045
Y 7.113380686900349 9.258219813041435 6.264471173370971
Y 5.857442689687196 9.943909996988634 9.312631927954431
Y 11.434925694675185 6.487844444144759 8.574013190646212
Y 6.633781238111656 7.433755249429445 11.56047494507373
Y 8.652534956451827 7.7959709855157255 3.7411868802753654
Y 8.850985994670042 6.0776915592254666 6.558380088681877
Y 8.493507659578299 5.110744304124814 9.778575992295444
Y 5.811387648935687 6.673608094126998 8.45917498365791
Y 3.8885724048804104 8.730878931973987 6.735327098740757
Y 5.818827542443086 6.359222250343737 5.107411242505405
Y 6.633875692919806 3.7251021495438117 7.213431402129474
