14
Energy = -67.69316577 eV
Y 8.879640493727731 9.304656252685925 3.1929830316415515
Y 8.626509865296333 9.46574068177847 6.614149294431818
Y 6.209728828866425 8.059242166695174 4.627492713460948
Y 5.512708634647037 8.97753657032314 7.894271536781784
Y 9.256112148315458 6.547042278849796 4.943889073224962
Y 7.499030827162321 11.402408689858463 9.243148862420169
Y 3.6465237144996383 6.6848843686814785 6.559991684540489
Y 10.354894961700213 9.992322159310781 9.560444085462397
Y 4.779547406304381 6.309240032143634 9.782789518415868
Y 7.585783896410199 8.212984595536245 10.39937326322813
Y 6.8076463821025355 5.945927427783459 7.2457950418760255
Y 9.386270044059943 3.8510735026518925 7.170795887929875
Y 9.865678212088458 6.834181635528801 8.359741565125342
Y 7.866557073154094 4.785503862544211 10.116270919949022
