14
Energy = -69.44975783 eV
Y 3.499499385740575 10.1643853342203 7.787117740080174
Y 6.508316776570393 6.703818176633413 4.4158169773985
Y 4.513428115265875 7.567403547129545 9.448465595908047
Y 8.870581631428363 4.422714664502912 5.155077396205269
Y 6.417797839544328 8.803593908748562 7.020234006658798
Y 3.615555374930801 7.155362737446545 6.2517033116258
Y 9.503340515578179 7.696687117497489 5.913199173635067
Y 9.340199666674769 5.309620344633611 8.189444506371622
Y 11.357669905774976 7.718418415910406 8.786516492951554
Y 11.875871435267529 5.5136738125137255 6.270174885281348
Y 6.198145559722944 5.348117844138152 7.360327042231106
Y 9.167520662336418 10.227461927515169 8.299638630999583
Y 6.116090537913823 10.467991659845042 9.905231669270828
Y 7.9595056151126755 7.679734082766272 9.932491270930344
