14
Energy = -69.58037367 eV
Y 5.369133934001584 5.855953196501342 5.020239207911181
Y 9.072634910649098 5.5945975123130856 4.731950321831834
Y 2.170226726705846 5.762580756554555 4.682327536300305
Y 7.248036248040285 8.260357144397943 4.4315593095120205
Y 3.8708377746181677 8.683159937696544 4.6685376514311
Y 7.425030758312671 2.764130706532482 4.746181960164472
Y 4.205073248287765 3.0325746431132026 4.457067228414424
Y 5.6156848755069975 7.8023984493151435 7.516325302792936
Y 9.051841419580585 7.697558082575745 7.231928174127139
Y 2.1801136548788067 7.72475154135682 7.353870750833283
Y 7.2611135411128895 4.767889401504786 7.477766457982175
Y 3.808328732995373 4.7002114940266155 7.531104714047235
Y 6.6372027912356115 5.104207246015888 2.401717419089136
Y 5.598047445576985 1.7629356607683189 7.262730315896006
