14
Energy = -68.98795736 eV
Y 8.669984674013248 7.879954461683722 11.394348207815307
Y 10.646261446446951 8.670086986993239 8.291568191543005
Y 7.463121626031084 9.311646187367819 8.875677822011523
Y 9.271717496272275 5.8431833163836995 8.787160058747544
Y 5.125882244266667 8.4541549977702 10.767888742483771
Y 10.494641715867845 5.932693163080795 5.844031951812222
Y 7.888444640989311 7.808467570608126 6.237419404232773
Y 6.564810855427847 5.52790372248789 10.417315212763144
Y 5.025737576545053 6.670661367103908 7.900916265966915
Y 4.9267445121258335 9.657450350431267 6.704691391044331
Y 6.804681096039262 9.54126055031215 3.668934018823675
Y 8.021093287550888 6.3125799800928375 3.3288713645393178
Y 7.303854979273624 4.648031332899616 6.36571107258716
Y 5.084812911494206 6.976486780889469 4.65359347157689
