14
Energy = -69.20709245 eV
Y 11.498815664059897 5.169987865097189 7.096624305161211
Y 11.044267713832925 7.149774781307051 9.704728912880062
Y 8.95128246023679 5.269193732901595 4.908936119823067
Y 9.789847390540814 7.923951384376345 6.601964802443067
Y 8.137916715290512 7.05185184020737 11.588018266185346
Y 8.48283181617651 5.478872265961121 8.47027764357112
Y 7.232742488843026 8.099984851821318 3.796566635051744
Y 6.259127379407897 6.467821510949604 6.232416376303819
Y 6.103575131495131 9.64999563684683 11.785203810431671
Y 8.517420722359875 9.575784371632464 9.495793043469497
Y 5.7750931916605 7.691573448854475 9.178269709857197
Y 7.280653885871592 9.939136272794867 6.4536692207848185
Y 4.360036292581096 9.0658338575778 5.927489956970652
Y 5.243156722381493 10.880914951966314 8.779685334520018
