14
Energy = -69.31907213 eV
Y 7.208705740694205 6.726154082097679 2.651285015510266
Y 5.485034475349761 3.786892821424918 3.611993767565688
Y 5.791887898337004 9.546995091661493 4.421800360881717
Y 4.31751011751492 6.683703489592804 3.855518651442207
Y 8.622727150408874 8.32059840746856 5.172973667287562
Y 7.62995896605586 5.357299881881101 5.755085760512183
Y 5.625315398396886 3.1453350916523446 6.854697152460181
Y 2.951062145780928 4.659299814592983 6.024902750091186
Y 9.625305451846753 7.063968724347365 8.020172868022676
Y 7.237784579298147 9.764722458016692 7.606024644163192
Y 7.91500106859557 4.144938083820005 8.983188801079299
Y 4.892279783161662 7.355819585906454 6.895933126753649
Y 4.387408725344463 4.853671249460814 9.207810465033205
Y 6.792353123930067 7.072935842791735 9.420947593911661
