14
Energy = -69.62305341 eV
Y 5.2452284227832395 4.174917865479959 7.055992684373662
Y 8.305153513977686 3.337154832498636 6.903878435070323
Y 2.1519030864956163 3.563386669173831 6.715325774621134
Y 7.121162454853211 6.782130782730089 6.710866823714328
Y 3.643039441014088 6.939754603012973 6.626600497364637
Y 5.510626946580296 9.766745557120245 6.298825458403481
Y 5.125646592175271 1.1817716833786127 6.452018550964014
Y 5.401546920788228 5.619865044083473 4.011294250799235
Y 8.86030834974719 5.433438795261883 4.279920558053308
Y 1.9169765810853028 5.715007959911291 4.108581483542691
Y 7.279843687772915 8.416613172986963 3.8461677257438893
Y 3.800107149290564 8.558444452259048 3.7422698008440545
Y 6.925153961547248 2.6428748875768946 4.1408642588458555
Y 3.6257724549340296 2.780362417952894 4.019861161658191
