14
Energy = -70.35322847 eV
Y 7.185760813620827 7.780033236177266 11.070333856900854
Y 5.351112722862252 9.883553148853915 9.086039799220908
Y 12.080049476754763 8.62407887165064 8.35599933281906
Y 9.699068485754108 6.4388618805190285 9.419168283867371
Y 7.149413809161384 4.448530945442536 10.477313949226838
Y 9.122989587168517 10.093719099044998 9.332589899779098
Y 6.880672704593499 10.836352819854508 6.196298646420436
Y 7.361235722232153 5.0490728167967 7.1029689449908435
Y 4.957098514289861 6.484740922126591 9.1037784145742
Y 4.836457471257334 8.150300590712888 6.144437557027378
Y 7.644927042479175 8.063493283160826 7.593420143175921
Y 10.382225260867436 6.648419720297194 6.183225015165338
Y 10.085624241865604 9.897790372879054 6.07691792618888
Y 7.7721275747484455 8.064521424935027 4.358518543035973
