14
Energy = -68.99113903 eV
Y 10.692927072076367 9.47952454370594 8.603147685795532
Y 7.72182994521227 10.974953715803522 8.212701113262844
Y 8.245961461119316 8.742396059460576 10.737151599708403
Y 11.850809126869851 7.181802340531839 6.469415910451322
Y 6.224553034928782 7.94080970706695 8.131791786547971
Y 8.836230745044247 8.782827345074654 5.921252720574792
Y 9.366012475642188 6.412415170551969 8.592452413204166
Y 5.706813661031381 10.122364768950584 5.529398421639423
Y 6.729045961961175 5.582708632502943 10.60335561066802
Y 6.131361757124985 6.87855598178263 4.896789172319868
Y 6.731077566461903 4.584887001305169 7.376948820157908
Y 9.166975737021586 5.5565511194012105 5.42262582905081
Y 3.949862981027028 5.556297477521286 8.706963959451873
Y 3.369237712385687 7.759552427500839 6.394829543965816
