14
Energy = -69.70640098 eV
Y 5.649689094536686 5.662888493310895 4.378456446570106
Y 9.058384672459592 5.703970347865459 4.0503446770623315
Y 2.1903219508205702 5.678505420144836 4.16615229266672
Y 7.409573724329791 8.744970233369097 4.16231303328506
Y 3.9078418422107495 8.66730072091502 4.165266116059492
Y 7.339376979143158 2.6932412919595174 4.06068787930866
Y 3.8594494163939657 2.617999125787816 4.167988259635982
Y 5.68448343096167 8.042080817887905 6.691917406718124
Y 8.71166320024496 7.38712556365744 7.058828975924114
Y 2.6621153085718046 7.394508351372513 7.135357133127243
Y 7.800268384602893 4.435262018654478 6.644042545304079
Y 3.5856518240900646 4.44749143004717 6.711950521995794
Y 5.6895838860926755 2.1718901810463183 7.063716668354395
Y 5.716972930028318 5.618142952508388 8.808354688475191
