15
Energy = -74.64435618 eV
Y 7.31802348002467 7.171994062675102 10.424394397307132
Y 8.526831432266945 9.817177707267206 8.94760584792813
Y 5.320840535726038 9.091989556354513 8.31447335935197
Y 5.094479592522678 5.474438029333737 8.674613742153939
Y 8.27863932688883 4.371142675321997 8.61780260715304
Y 7.59695107100914 7.152966951416362 6.99761407091661
Y 7.466556495521551 10.411495073037727 5.91646717651003
Y 5.88723186647607 2.5267885271636574 3.6115691816089357
Y 6.200023034865434 5.713890960040534 2.551323816565873
Y 5.217382664308101 8.275979045171672 4.7633082185268725
Y 4.704853157215384 5.000001852468187 5.346192262213558
Y 6.0488635280919025 2.527226405061593 6.99008096559722
Y 8.048712860100235 4.420482980993524 5.047291790261207
Y 8.435916270606947 7.777963693500278 3.8797529593545104
Y 2.9012555739742116 7.313023369791886 6.964070494149379
