15
Energy = -74.95619459 eV
Y 11.790000612020172 7.167375143176613 6.169518507476524
Y 10.67216565174246 5.736322283631559 9.284205890930721
Y 9.674530476266069 9.671631425510526 5.5173359147628505
Y 8.811170347609165 7.446139735267873 11.495456593179252
Y 10.527893618231564 9.05963651826002 8.70222234652054
Y 7.963652876029981 11.502223080812756 7.735566223741855
Y 8.762640259768778 6.765235690222647 6.966660254401968
Y 7.220555759380309 8.775222345579603 9.130620183937728
Y 8.67772161580126 7.000017534946444 3.8422831568506983
Y 6.420438360513886 9.001530057187656 5.805757429686684
Y 4.7221760895122875 10.560109216371535 8.584640650949265
Y 6.074956667718152 5.580252010872731 5.711915041379422
Y 7.002241265405264 5.42111347692935 9.475148398980037
Y 5.28065584117579 7.695897322818442 11.322393286127987
Y 4.495235578035255 7.28459658381842 8.067539254195177
