15
Energy = -75.15962905 eV
Y 11.203712857520838 8.063828331469386 8.008461370735716
Y 9.562408412813944 8.05671488758054 10.970060728198005
Y 9.589920032878863 5.313029317188496 9.1868062101312
Y 9.441875701566797 10.846593095486673 8.791071611344954
Y 8.963959599967268 6.203821974589149 5.752205146030431
Y 6.611463131027281 6.068039124178116 10.480923418809075
Y 9.39404827960979 9.7799693574033 5.697248891654388
Y 7.95514484240407 8.056301966835292 8.180542666939996
Y 6.4096895492696175 10.693413148185012 6.870695212199754
Y 6.740497601996179 4.427993781183263 7.626402771071548
Y 6.568740916451129 8.327020897411167 4.581352476845555
Y 5.709235364029708 5.202498020644986 4.653973465472293
Y 4.99635420872067 7.292528849526492 7.367732665992287
Y 3.3014892092531074 4.617401176349585 6.806027168969958
Y 3.1830957007670113 7.294524942159615 4.710881748984603
