15
Energy = -76.10924315
Y 6.7940565568908315 8.034703287990066 3.9811347152979724
Y 5.564243549951989 6.154796267585441 6.113253989767744
Y 6.71471288732243 2.8296854945266303 5.120197683871525
Y 9.991151279985548 7.528377208555866 5.7483081219555645
Y 8.538345251417716 4.8777524761635505 6.7029879352842325
Y 4.220656375156744 9.069338258831118 6.502790591184113
Y 3.497324053809983 3.715592250150144 5.5337122950982
Y 7.456224382494683 8.790550397915585 7.1466243141616115
Y 5.451913544192156 7.4731820375833635 9.320941047820595
Y 2.7979205902265267 6.211112899400003 7.72578565067722
Y 8.69285734586614 6.643044179551146 9.255880493036742
Y 5.839964510827904 4.13549335829615 8.48768853674687
Y 8.64786469697518 5.258668595579142 3.5658393813434954
Y 5.358098817175373 4.943505961105284 2.9464247621343973
Y 2.9134034845143066 6.8129346535735875 4.327167808426949
