15
Energy = -74.82414585 eV
Y 3.451124563643244 8.205999997384543 9.447938341623662
Y 4.729270243367643 10.417641846976801 7.273653393832701
Y 6.716128633778371 9.390772692181566 4.679234231858629
Y 5.879643091557999 10.251898469099444 10.46840717664372
Y 5.314473550213222 7.2857976673170315 6.831462180999771
Y 7.908125362122252 9.299378300833865 7.853691162660973
Y 10.129547304988465 9.30135260282575 5.270517147510408
Y 11.266709417781477 9.145529089915074 8.424510915242923
Y 8.400992485397726 6.479969820069542 5.6394829137288465
Y 9.068269029304748 9.019664321625852 11.067230026967536
Y 6.5012731486486866 7.0699388552941524 10.153084688298181
Y 11.66801729047858 6.508965820242447 6.348415426983561
Y 9.579040364369583 6.317464412198429 8.964567647641115
Y 6.941753345754582 4.59048208069857 7.947865655152688
Y 9.960177539799389 3.7171281126790543 6.828833444367881
