15
Energy = -75.04668558 eV
Y 8.762750777578844 9.936761467075446 9.875539987775198
Y 9.461372526678565 7.022924652517782 9.067012316627986
Y 7.641607101104446 6.846552601878572 11.535074228961287
Y 7.402272368080386 10.806034374351047 7.006925241223421
Y 5.838341245733118 8.53381097816526 9.022338509128286
Y 10.116171435617057 9.00873233427677 6.619214696922931
Y 9.33206145088167 4.0747673959902535 10.161230062409958
Y 9.538448926099997 4.951406451764322 6.69802121384631
Y 6.583448247522655 5.0950246973074265 8.791265745690309
Y 7.72597921166845 9.587285000720387 3.961066724676778
Y 4.761666393379529 9.419270546462396 5.540281591375024
Y 7.262477358865973 7.354548573920028 6.263211579224914
Y 4.144088423138546 6.343325542480095 6.64104794705709
Y 6.358413119998671 4.1640618978935136 5.562552631947924
Y 5.449890316044386 6.8471940550462 3.572178852945907
