15
Energy = -74.26008774 eV
Y 5.684006347215521 5.684006347215521 5.684006347215521
Y 3.8307853444505806 3.8307853444505806 7.537227349980463
Y 3.8307853444505806 3.8307853444505806 3.8307853444505806
Y 7.537227349980463 3.8307853444505806 3.8307853444505806
Y 7.537227349980463 3.8307853444505806 7.537227349980463
Y 7.537227349980463 7.537227349980463 7.537227349980463
Y 3.8307853444505806 7.537227349980463 7.537227349980463
Y 3.8307853444505806 7.537227349980463 3.8307853444505806
Y 7.537227349980463 7.537227349980463 3.8307853444505806
Y 5.684006347215521 5.684006347215521 9.66740676
Y 1.7006059344310416 5.684006347215521 5.684006347215521
Y 5.684006347215521 5.684006347215521 1.7006059344310416
Y 9.66740676 5.684006347215521 5.684006347215521
Y 5.684006347215521 1.7006059344310416 5.684006347215521
Y 5.684006347215521 9.66740676 5.684006347215521
