15
Energy = -75.37713308 eV
Y 6.370862420775493 4.396088968736965 6.476327843851439
Y 8.427528985970499 8.333020336625735 3.355511571696416
Y 4.564674704604125 7.332719974943742 5.906298109329445
Y 7.2937343086449085 5.454399063143851 9.461582057336082
Y 10.296553909523213 9.12154397763535 5.825094312583555
Y 6.838481923551448 10.270291613099348 5.715408311793983
Y 8.235292080139574 7.976465773448742 11.221147585313185
Y 5.248972694925516 6.575150337062277 11.742609398623197
Y 4.058316158424015 5.577643336207427 8.76216649888757
Y 6.484879619563304 5.817203283015676 3.6318747561195996
Y 10.219299791007243 7.021707373680299 8.521314448224462
Y 5.6300328559472925 8.479891869961234 9.030242627161584
Y 9.66835487622272 5.610141520990474 5.144972648936821
Y 7.677793452578906 7.424078793041211 6.537551181458179
Y 8.623246415539704 9.95590299204337 8.567972223000883
