15
Energy = -73.34383971 eV
Y 9.211221495574648 9.297946718285326 6.371107118027225
Y 5.650454564625179 8.757928334406849 6.07177347729261
Y 8.480624745418035 7.854767104814833 12.11859085536244
Y 2.692269240296785 7.0726123269213 5.923730784267996
Y 4.2738943636943265 7.081710321423828 8.750356489523686
Y 6.99409785532238 9.098399798060049 9.363681228062058
Y 5.709048783687692 5.5757935381615455 6.040612479644472
Y 12.173829787429927 7.7246814527415095 6.861765022779147
Y 7.371448806048904 5.863754643449883 9.55635880080427
Y 10.130892790498288 7.8950312277838774 9.333031853059085
Y 9.161901060206585 6.176304252263917 6.540632787133744
Y 4.487517955397134 7.18347339648796 3.300803817065401
Y 5.338830608170283 7.353969881269326 11.807432021958899
Y 10.894537463997594 7.608868530242998 3.9453269681954133
Y 7.688966800178872 7.377889578489648 3.77174248188493
