15
Energy = -74.45891315 eV
Y 5.09445465001466 3.776402179300412 6.5016663919340125
Y 8.53294751869651 3.6769216724067597 6.352741073956782
Y 1.6559570517683533 3.6770352663422154 6.352657300525604
Y 6.792806796461399 6.850555623765634 6.260233743120622
Y 3.3961557308413406 6.850592913407058 6.260196668785971
Y 5.094512289891493 9.829960815392651 6.169993942313733
Y 6.765417122604176 0.8756384171151035 6.474429369314853
Y 3.423349080228096 0.8757182447616996 6.474584451571353
Y 5.094508895113896 5.737698793459572 3.4902036848881215
Y 8.488218842998743 5.722386025430965 3.6796558998260007
Y 1.7008165976989962 5.722427217051941 3.6795532453297115
Y 6.7823603091483005 8.689315681509298 3.5500126530290324
Y 3.406704621686777 8.689347268477041 3.5499689014172513
Y 6.8068961137486275 2.7216230603757334 3.8106411545461714
Y 3.382098472207691 2.7215817539312215 3.8106664521684883
