15
Energy = -75.6273931 eV
Y 7.222218054103189 10.635056816041427 6.040334976348072
Y 10.19436975962413 11.171312523982124 8.157842969524575
Y 6.926354902874774 11.811873155538425 9.069367562760318
Y 5.04512853800806 9.144559288108312 8.226237420166354
Y 9.902572548590049 8.91560556079076 5.407216632919843
Y 8.267918559230159 8.639331074638418 8.454193917208027
Y 9.141068938471062 12.167326995041602 11.360544943771671
Y 10.373097549982683 5.741115373046238 5.398654402029549
Y 7.002172724272888 9.297887978194334 11.40132807722285
Y 10.335747315091956 9.183029581847727 10.901727526127049
Y 11.466914806836362 7.657284034079155 8.087855622214166
Y 7.08624498014429 6.981150831292888 6.036549697131647
Y 6.21581378677708 6.343595545486257 9.554690939440347
Y 9.056083298209458 5.245835133815822 8.2750479249101
Y 8.988304031691946 6.306524992449649 11.360752870750384
