5
Energy = -18.34194411 eV
Y 8.904635958717565 11.544081500916398 12.416687119778572
Y 12.72787911486428 11.237804814772286 9.483281216134202
Y 10.904704528811978 9.705204313477887 11.916260688901346
Y 9.115142068486415 10.531870396679336 9.350602907923626
Y 8.759558750009882 7.893796784740509 7.768213112600314
