5
Energy = -20.88441948 eV
Y 7.420745953140602 7.659870537605664 10.050872488246599
Y 9.314380646330532 9.057587029399864 7.976721667853591
Y 6.637887822194273 5.643524118403841 7.883817951966584
Y 6.157455922516594 8.740966032456605 7.127622957716646
Y 8.589990999123328 7.023905052334917 5.750265401622842
