5
Energy = -16.55516229 eV
Y 11.628413494141862 7.774262202398622 10.037087765216302
Y 14.05321668491076 6.321400422641925 10.702402107889796
Y 4.498973089395177 12.905945835775483 6.917809074590335
Y 6.518184749233716 11.20280327075388 8.132702305709756
Y 9.13642958880287 9.348462274026371 9.236571552016516
