5
Energy = -21.55612906 eV
Y 4.88942666002143 5.479481897206677 4.657567766775164
Y 5.401598028513275 7.12018495000119 7.297227988324606
Y 7.7210020132485155 5.391705273648239 6.0421048955960455
Y 6.776946981171263 8.115220356984592 4.43986147882564
Y 5.206336041754185 3.888717246867966 7.55854759518698
