5
Energy = -18.72199278 eV
Y 7.51833180286102 6.135040923732527 3.629499112571683
Y 9.33630223482973 9.189286021889773 8.580418525714782
Y 7.867307754489142 7.1382348977481 6.474853584632918
Y 6.841333739173355 7.605837451325688 9.58133773386868
Y 8.22927607732343 9.724152313980298 11.526442651888757
