5
Energy = -21.435655 eV
Y 6.6265734159938905 10.43592187311794 8.170092322110122
Y 10.497696045444972 6.642774654459957 8.925586413766137
Y 8.353384503083964 7.9851690243832865 6.827020061989461
Y 7.543335420470181 7.750968321145683 9.868571364756034
Y 9.742131327329771 9.845175923611013 9.019874647552678
