55
Energy = -304.2381619 eV
Y 2.288749653610294 1.9790947657880342 12.566519243504708
Y 7.686052133251149 13.01778650843487 3.4874228176331017
Y 4.235331743388342 12.988125037699827 4.542364673497344
Y 3.6987941288773993 3.912454867507689 2.0326181811330506
Y 1.600773544459273 7.632030955768035 0.9531809920380999
Y 4.8843503982674275 7.256889850836198 12.248825333574391
Y 2.5111965665368516 5.12031864818841 12.225370761403582
Y 12.180445631693336 5.694478837816105 7.187743254852692
Y 5.37449833588203 3.5368906394861406 7.813345019091334
Y 4.395940773771079 7.215294618722716 2.689137902783169
Y 8.339051273089947 4.69344365534218 6.868583768772656
Y 6.607670032487011 0.39668743128476996 6.964848237409461
Y 0.4146232604399563 4.442159791827631 1.626862414799043
Y 1.942317626701397 1.8518080817351306 10.297649101990212
Y 0.042118574398490344 2.57862084100348 7.78423925184767
Y 12.054396948125444 5.8650763124550505 3.6170672587676918
Y 8.111653895578167 9.280225481970461 5.553516614385256
Y 10.010066566037482 5.406555903546963 0.8678353593410887
Y 1.8117391964156477 6.058036207058075 4.69966452390594
Y 12.641830001328954 8.775872790195058 6.41039219497457
Y 1.6191553213540133 1.291974522249932 2.688321543986924
Y 5.624795430544751 10.001919971795747 7.935057396057023
Y 5.32842003126669 3.429400303768943 11.963031693618712
Y 11.518892448919043 3.9142139947995744 6.459500534975951
Y 8.272560445800124 6.240429482665661 3.934764743459806
Y 10.252046119638953 8.387160248273464 2.5774565014325206
Y 4.174538652128053 10.03052055277769 1.070190429078538
Y 5.527973016252465 6.778961119847249 6.02100105919075
Y 2.351943409355869 5.000904464974007 8.054256355758927
Y 10.45096947115723 5.2223908468500415 9.35318861989611
Y 9.437074538898518 1.3546316168762516 5.954610884771665
Y 12.532616621873359 3.3496915386506814 4.611747871941005
Y 3.595429087950306 4.490762697249578 11.086084711329326
Y 1.062361217256448 7.668123058459282 9.434482038115254
Y 2.8220713212174764 2.8543904531596063 5.412172693435911
Y 7.9505297598705615 2.3432739830604437 1.0407707490214697
Y 12.054396948125444 7.01169793123143 3.582335114472317
Y 6.780055254192988 5.388581936841511 1.1425126640089072
Y 10.677238975025585 7.172549404815919 6.351891774568675
Y 0.9208540236377902 0.09580443381320015 5.782297875791182
Y 8.608855370707351 2.276479561283793 9.008757663465008
Y 3.483146313567177 0.5617260747394338 7.807574314779429
Y 5.462490844642321 1.594172896792957 10.442178008291227
Y 7.1230269145000795 9.304857223305794 2.4574964769948786
Y 4.827011530086266 10.019145438484472 4.575642023006758
Y 1.6247916826080415 9.432325822480458 3.676493309921346
Y 7.066390320316955 4.895890821818214 10.333561311794192
Y 2.755691337904057 8.588000660971206 6.778079377740302
Y 8.12003317262661 8.111623372482896 12.730013603338154
Y 4.732521029597839 7.136977735728233 9.34719255495708
Y 4.975337411155681 0.9224979917622607 1.41263817957146
Y 10.025964598957401 3.2836820229758605 3.4583083688015575
Y 6.437910216404846 2.9276241918177326 4.270891122185578
Y 8.014318917134023 7.663252879388178 8.5012514972007
Y 0.124484458759716 4.657024146759214 10.506047459186474
