55
Energy = -299.85837851 eV
Y 6.113255222344067 4.729263737567119 8.371469302133871
Y 10.720006751438513 2.2014431142434496 11.21149862684917
Y 12.168153123449853 5.693358708357566 5.167336805452681
Y 9.127424762232895 16.007184990678446 13.47743087461906
Y 8.85254866984328 10.612821222771867 10.726772270688143
Y 7.255594639093029 12.153334063966652 13.69558349713467
Y 12.072320068085439 11.621121220969174 12.275573495964625
Y 10.266929368115761 12.923902085504103 15.022662142180025
Y 11.224910127391995 3.312888770397008 7.743548056271912
Y 6.228739730088471 13.095705273786042 10.39820262258793
Y 14.792353671663426 7.797065421816883 9.119208636983501
Y 8.38084622063392 11.068319912336706 4.699053590367446
Y 8.675211441683917 6.732357599576658 15.100771178994389
Y 14.12395927823153 13.79938788772746 10.192259604541698
Y 4.123857051243149 7.866750696817848 8.503576678565588
Y 11.150918607285089 12.916928908467266 9.13470636358659
Y 11.442849723595469 12.059143685175513 5.998915717417805
Y 7.336724007301742 7.641402554756498 8.974668800246315
Y 15.070966004793426 10.679570666036245 11.193589309071575
Y 11.615297969651097 6.744062681894893 8.645206865896288
Y 10.902556935148327 5.0361485867078075 13.075955507499481
Y 5.574581309377612 14.692919528460836 7.455818876471306
Y 15.338827971089158 7.39305247683628 5.760975589388365
Y 8.977096813667234 7.387244973350278 11.796990164595464
Y 3.6016026497605664 11.924530693804979 8.54938734533153
Y 9.587249164297504 13.58686844076194 11.797549804346522
Y 7.7159977102883435 3.9466367032334553 12.567921508848958
Y 9.274245639985445 4.761826967850364 9.87677394565178
Y 9.874054961317155 9.67962944267947 13.941985574075439
Y 7.698919099140433 1.9152211476699768 9.722334229819769
Y 8.061630829681508 10.212056173134561 16.47392854685453
Y 12.535116180335997 14.755784829205837 13.155167232528749
Y 10.175010623648221 8.199784477805949 4.215018291495847
Y 14.78471087834058 11.072904493188805 7.79596352558688
Y 13.05022420397582 4.688329654967447 10.624303151494937
Y 14.307213020198747 4.740030498553814 7.546311586347518
Y 6.217172777442338 10.338683625245668 7.9109548776331655
Y 9.559445769022808 9.43827177017192 7.349503064467948
Y 7.695591616628397 14.499897327314455 4.74326327764249
Y 5.276516102031763 12.059113906155165 5.433785834037197
Y 6.6305113352560205 8.841760808469743 13.831393630118859
Y 9.174347467834899 6.016154876243402 6.68838470978086
Y 8.737036212339508 5.252081867430153 3.701331543030453
Y 8.276929785702949 12.847603800866107 7.553235437944431
Y 11.351554255228567 16.121928040464933 10.357663234080302
Y 12.548500408250035 7.947145635304294 12.113512334362303
Y 12.21307659542264 9.93845236700157 9.507550552169425
Y 8.146304404382379 15.647130252709713 9.542559476554674
Y 6.82889454170242 8.031977838769714 5.43875594963879
Y 7.7106502834095485 17.250349276158392 6.638083557565411
Y 10.464346082862205 15.409949848849822 6.94820464272612
Y 12.695329019364948 8.912580983118751 6.331471321058873
Y 5.585587044680116 6.364432060083295 11.4236360851318
Y 5.444284235368687 9.95687786730537 11.038986126199278
Y 4.793951409606075 3.0285593322329833 10.99123880092257
