55
Energy = -304.26311131 eV
Y 8.134741424315271 8.697151697545182 10.325259859352759
Y 7.977783761664914 11.437122851754651 7.848785480682059
Y 5.40900612308638 7.349224484561664 12.566229669110932
Y 4.868184862708325 4.2199321859786005 11.35239194295684
Y 7.952424969369965 5.615780910114095 12.611592544870534
Y 3.1195754068402266 11.420019790457085 6.639235532653863
Y 10.945342677675816 10.214668567270586 11.686877249974147
Y 7.699645303824011 14.754808598010296 8.982637717256711
Y 10.635353537289358 3.328055358760207 12.039452163275675
Y 13.601706996128518 5.8783374607851995 7.6062296037384165
Y 4.871484546668828 7.124650662680467 6.22368005442564
Y 5.019532573422363 12.757762065741039 9.374843039158671
Y 1.9971332939857893 5.44502987909844 5.009298160170646
Y 8.026308415714574 12.019614529456357 11.292489001926171
Y 6.119054872883687 6.2945740161910795 9.272443661285356
Y 6.088205467078538 7.280908587068457 3.182117078379662
Y 11.027150718372887 4.199361781246046 5.756265201673715
Y 10.886621616694233 6.724235010809226 11.951994584791217
Y 5.025236224824576 9.526339704046356 8.537317436956434
Y 5.983691963597414 13.55104305522016 6.288211621018018
Y 12.825899929945665 12.607416924227406 6.903125406483385
Y 11.10229448898516 9.874966294059286 8.353220906600338
Y 13.72220215710267 11.383041239377022 9.815990341718832
Y 13.289937697406215 8.115184228134543 10.11658300890304
Y 2.9244550152442845 8.671057214481724 4.092686182537711
Y 1.9113617358116204 8.260342761579874 7.411803532773373
Y 3.467052447254753 2.4568137999790864 2.7926570561009645
Y 2.8178279470512506 2.2170140147250117 6.14464025218059
Y 8.291842446438046 3.937588855156086 9.836879736371163
Y 6.38928091024258 4.114850828500553 1.7450074070515722
Y 3.4518319471065144 5.7276786208917505 2.0567179363323658
Y 8.813590800014387 1.8079843433739633 7.241043820381286
Y 14.079706146042275 9.404474032822026 7.083110033765472
Y 5.5718292077472045 2.8177372992817755 8.029251180645707
Y 10.492518728466534 10.885594237599273 5.272244192609114
Y 7.8716845843472605 4.870000476617168 6.525345284025419
Y 10.379457804622257 6.428465951053535 8.576813616197983
Y 11.664537776105846 3.2876993184526757 8.879756018654417
Y 8.264957731241825 8.198230249208116 6.161460778281282
Y 5.784052129941162 1.0325045569903246 5.106458928004753
Y 9.668355231181305 13.987964682493818 6.389868896316765
Y 8.872320249432281 9.218992763104637 2.9399190683367706
Y 5.882965109727601 10.274008228286716 5.0212445287242256
Y 2.2240415901140156 10.820843171121778 9.839533172767942
Y 9.11089375524861 5.859666274863159 3.498323298071013
Y 8.434612109978602 2.6482546991830853 4.029734601477138
Y 8.13317286459525 9.04586883004687 13.495241503306056
Y 11.51252891482303 7.606613319230844 5.411129469823501
Y 13.497187475455327 4.911810281877282 10.987354641543737
Y 3.040154918221586 7.565794031167328 10.517056747765116
Y 5.1643290341347 4.234655316109246 4.778377388080535
Y 5.158850919446694 10.384383882608585 11.749618242067465
Y 3.029801555099193 5.0431517947772635 8.258025337739527
Y 8.054532219631424 12.399083684908357 3.9138760076317634
Y 10.725348123141872 13.075243054408839 9.492150330565913
