55
Energy = -305.73211003 eV
Y 13.55732549702722 5.500921491503971 9.731790665593342
Y 13.398622758919027 6.585524991217868 6.343606701391463
Y 13.901430581336585 9.152001547915102 8.754531419873729
Y 12.108909505351273 11.716399217750306 7.890596647789635
Y 12.426487564508866 8.268928254515972 11.686474692090409
Y 13.168265583059673 9.908787481255217 5.246201080085477
Y 11.54455790884231 4.101007433564559 7.435406752826982
Y 11.666519677591511 7.249059054196259 3.659145893694735
Y 11.140345659655681 5.258479970344091 12.09330116028755
Y 11.897801451935953 11.6136398173614 11.24003722345955
Y 11.017966019225783 3.8740414552486278 4.0345325680455835
Y 11.132153491283061 7.262954418532468 8.75367687280873
Y 9.859425618566304 9.639281342450431 13.22002883901579
Y 10.284334762740537 9.213981752059226 6.2187646878430805
Y 9.190711709961054 5.832129651659455 5.657268865422442
Y 10.13346482686846 12.54699999440682 5.377118746453886
Y 9.101051867196116 2.1253854864652157 6.686820991284463
Y 9.907783687113856 9.984889812680235 2.889521573132619
Y 8.84088341554598 6.486397178952995 14.453722664251487
Y 8.850364888664297 4.616813300670713 9.547583403706948
Y 9.416707615696641 13.347279726083194 8.882146911066846
Y 9.622685630433468 10.041816892236971 9.716067608300284
Y 10.928704319168924 2.386354123926123 10.268753236674065
Y 8.728145369109075 6.536499944774033 2.3140701371136627
Y 8.333713084861472 3.670148879619156 12.594763817780604
Y 8.311252874492475 7.2248509396597 11.40023476493155
Y 8.063979316951036 12.14064436035383 11.953176018463926
Y 7.88426636651629 7.5708522665611815 7.960950838517161
Y 7.149542298078561 3.6431480322631353 3.997035761842545
Y 6.546966801590933 9.191451008602582 13.546001658565404
Y 7.515941415869946 11.171815856366946 7.088288764757384
Y 7.264194083210236 8.667898298968092 4.502841103808538
Y 6.7291846668407125 3.9927667034466645 7.429927776285952
Y 5.682995765184401 5.777798510893994 12.94405654917389
Y 5.7636142710421705 3.0084761684636785 10.305528964536812
Y 7.295654596094009 14.34230533596977 6.325796061759471
Y 6.187277707387941 9.877347144408413 10.193734212955327
Y 7.065681544956842 11.942039038870025 3.783826225769566
Y 5.574263544569863 6.104882890599314 5.841036058067795
Y 6.798068686459283 9.35177690003623 1.3855044752955192
Y 5.316137808547717 6.394806540484672 9.552793569639002
Y 5.945109698020778 13.181217527381794 9.346229034792787
Y 5.241889298056849 6.547540660027846 2.6374332921314245
Y 4.5823263037261945 11.757425072329339 12.333234601611727
Y 4.676721311851251 9.07130090227468 7.0375328339377745
Y 5.343213776519222 1.5369604517573046 6.363609509629287
Y 3.6397351145885857 8.521655998839552 11.798586377171107
Y 3.3817755121136366 4.306163319198912 7.677607522530235
Y 4.423366915693437 12.344478849935314 6.225757176146837
Y 4.141475779849892 9.764082972482138 3.708877061711542
Y 2.5185514050720235 6.968542989255289 5.234922250045805
Y 3.083705160710507 11.004896538768616 9.312971272647507
Y 2.1610749476439226 7.674014630448245 8.63395845168562
Y 1.685999639579087 10.094138879023866 6.285881207108172
Y 3.7430000469829956 3.78032714580243 4.372062597350814
