55
Energy = -303.54790046 eV
Y 12.621476692877177 4.784415210415322 2.7363850332444195
Y 10.49657808988757 6.97911708429197 4.705769952858926
Y 7.434957966320135 1.5614344590748543 7.284588469682271
Y 2.515619936864097 12.972095711130022 3.8282545011897335
Y 7.4969765986947285 6.808885822048736 7.028213048063655
Y 3.601684481227994 1.5980889301915984 10.227771714228478
Y 6.012514522791785 4.743641584473161 1.3900749372217929
Y 4.606137493341353 7.393783147565083 9.665265225465097
Y 7.571633076639037 1.2323334048545405 3.856937151117857
Y 2.1101634056019565 4.672411306879086 3.7717512558918975
Y 2.377794557978099 4.664732276834051 0.3608987818108936
Y 3.964087458194948 1.7736097796058716 6.644005137451542
Y 12.648641152851294 5.075652164419835 9.793265622304371
Y 13.065609881607843 5.035064396267198 6.4012563456894425
Y 0.9742713757408344 2.557885242517513 8.362836309142057
Y 5.854442559399961 9.699219531510465 1.6775224428695183
Y 2.855339600862555 10.365007158448538 0.3226116302174333
Y 10.426725530504324 6.873563663003857 1.3257496530829334
Y 3.1623732045642767 10.024570799309837 3.7077179509050437
Y 5.383591591931664 12.462400573737751 5.37779551821876
Y 7.6022146793174 7.177012437452548 3.334448801905713
Y 5.383593178228537 12.687912471801797 8.701026471507634
Y 2.257382104751236 12.675062396195566 7.324400166588137
Y 4.438227907566999 7.905213124991379 6.335157363039349
Y 9.551863575668182 4.1414561481273635 6.25843433279994
Y 9.155603653110282 4.101681260712899 2.7991255225286156
Y 1.3929923468353849 7.382820469508179 8.41525875729989
Y 5.560669353061185 4.086895126286913 8.659071061513082
Y 6.187552302145095 4.36640887650259 5.108008623076166
Y 6.8957486226210785 1.6346902166921353 10.656941842833577
Y 2.5943495767750737 4.8396377132205854 10.330697090979452
Y 3.0652343956363213 4.963542517738216 6.84818675492293
Y 10.57033165187528 7.054601725917245 8.259166319609173
Y 9.346804138447467 9.60040508167893 6.3331027739750985
Y 9.313708975979395 9.736478586233892 2.7474990149815905
Y 7.909328680660085 7.437124650753107 10.344895586831246
Y 6.544806888133892 9.90111315499998 8.325996867048856
Y 6.392832381933034 10.254194944793415 4.910510704405714
Y 4.220661895262436 7.35369477900991 13.155641947530981
Y 4.399866475409138 2.2822223076098456 3.240033856214495
Y 3.054448886481454 10.413805891793784 7.291258115966893
Y 3.9604453453372375 1.7344104369907758 0.009425014275609439
Y 0.5351884931619989 1.9718435151770952 5.1266855061014
Y 8.648890430030457 4.31741442600942 9.501657890023223
Y 7.208262689928197 1.824747709312843 0.5228231457990005
Y 7.586412802826384 7.516393171197029 13.138344325596226
Y 5.940370732098402 4.713544335885324 11.713958346982093
Y 5.65987643331445 4.335935910285702 11.713958346982094
Y 4.385788827308974 6.902056555091516 3.237761762078311
Y 9.760514642060336 10.113871555477624 9.594894838394222
Y 8.887027897112464 4.515610690185012 12.831271861684689
Y 1.099459771519566 7.874692490148469 5.15915635897045
Y 1.140885651954637 1.971379652725954 1.8583265022143427
Y 5.355310997500834 12.66876552743817 1.9515621087404396
Y 1.4398546568328057 7.618223810670588 1.7825944029247645
