55
Energy = -308.47653302 eV
Y 6.500095731663305 6.500095731663305 6.500095731663305
Y 6.500095731663305 8.30081339507089 9.40531547841748
Y 6.500095731663305 8.30081339507089 3.5948759849091254
Y 6.500095731663305 4.699378068255894 9.40531547841748
Y 6.500095731663305 4.699378068255894 3.5948759849091254
Y 8.30081339507089 9.40531547841748 6.500095731663305
Y 4.699378068255894 9.40531547841748 6.500095731663305
Y 8.30081339507089 3.5948759849091254 6.500095731663305
Y 4.699378068255894 3.5948759849091254 6.500095731663305
Y 9.40531547841748 6.500095731663305 8.30081339507089
Y 9.40531547841748 6.500095731663305 4.699378068255894
Y 3.5948759849091254 6.500095731663305 8.30081339507089
Y 3.5948759849091254 6.500095731663305 4.699378068255894
Y 0.849111964866008 6.500095731663305 3.0070717903003197
Y 6.500095731663305 9.993118673026542 12.151079498460778
Y 6.500095731663305 9.993118673026542 0.849111964866008
Y 6.500095731663305 3.0070717903003197 12.151079498460778
Y 6.500095731663305 3.0070717903003197 0.849111964866008
Y 9.993118673026542 12.151079498460778 6.500095731663305
Y 3.0070717903003197 12.151079498460778 6.500095731663305
Y 9.993118673026542 0.849111964866008 6.500095731663305
Y 3.0070717903003197 0.849111964866008 6.500095731663305
Y 12.151079498460778 6.500095731663305 9.993118673026542
Y 12.151079498460778 6.500095731663305 3.0070717903003197
Y 0.849111964866008 6.500095731663305 9.993118673026542
Y 6.500095731663305 12.30367212727276 6.500095731663305
Y 6.500095731663305 0.696518336054102 6.500095731663305
Y 0.696518336054102 6.500095731663305 6.500095731663305
Y 12.30367212727276 6.500095731663305 6.500095731663305
Y 6.500095731663305 6.500095731663305 0.696518336054102
Y 6.500095731663305 6.500095731663305 12.30367212727276
Y 8.298068072192244 1.7999425490015957 9.404609403544507
Y 4.702122391134445 1.7999425490015957 9.404609403544507
Y 8.298068072192244 1.7999425490015957 3.5955820597824535
Y 4.702122391134445 1.7999425490015957 3.5955820597824535
Y 11.200248914325188 3.5955820597824535 4.702122391134445
Y 11.200248914325188 3.5955820597824535 8.298068072192244
Y 1.7999425490015957 3.5955820597824535 4.702122391134445
Y 1.7999425490015957 3.5955820597824535 8.298068072192244
Y 8.298068072192244 11.200248914325188 3.5955820597824535
Y 8.298068072192244 11.200248914325188 9.404609403544507
Y 4.702122391134445 11.200248914325188 3.5955820597824535
Y 4.702122391134445 11.200248914325188 9.404609403544507
Y 3.5955820597824535 8.298068072192244 1.7999425490015957
Y 9.404609403544507 8.298068072192244 1.7999425490015957
Y 3.5955820597824535 4.702122391134445 1.7999425490015957
Y 9.404609403544507 4.702122391134445 1.7999425490015957
Y 1.7999425490015957 9.404609403544507 8.298068072192244
Y 1.7999425490015957 9.404609403544507 4.702122391134445
Y 3.5955820597824535 4.702122391134445 11.200248914325188
Y 9.404609403544507 4.702122391134445 11.200248914325188
Y 9.404609403544507 8.298068072192244 11.200248914325188
Y 3.5955820597824535 8.298068072192244 11.200248914325188
Y 11.200248914325188 9.404609403544507 4.702122391134445
Y 11.200248914325188 9.404609403544507 8.298068072192244
