55
Energy = -303.70625181 eV
Y 3.7094101991037656 3.211531344277479 0.8901024633955847
Y 8.809465127197688 2.3891213601516106 5.564899433473168
Y 5.575029395079829 1.0757587166981495 6.011298640800243
Y 4.640914366943446 5.850210313745868 3.369193443299078
Y 3.513256840417834 8.981062644186162 2.25352873779255
Y 6.034765142861 8.570906395921337 0.11901221516466916
Y 3.479892180322461 6.383676508220117 0.17388048291278446
Y 0.9843617141225857 6.85013633753442 8.549034012433156
Y 7.8206867701771845 4.976664708335876 8.821770793259144
Y 6.30684775390461 8.799940224344626 4.627710194260153
Y 10.251742933293059 6.545136703880318 7.390956207750883
Y 7.551716352237769 1.7260407566096299 8.7495812383802
Y 1.5130042362167282 5.231662462866981 2.6309232735663097
Y 3.1258226657192116 3.234847624632573 12.45033114642338
Y 1.8978886061073819 3.8068369751218265 9.413818124305818
Y 13.118494434989806 7.345256831471355 5.049665890448844
Y 9.826314647219974 10.895369502813768 7.266917904265725
Y 11.212054300713355 6.996179876928973 2.4059181543472765
Y 3.96467413122189 7.468700086760735 6.819665396041654
Y 1.3213896298942744 9.90324840658502 7.557133143178751
Y 3.1728944319836625 2.6679937496434976 4.134456643882273
Y 7.554985875914497 11.566916042764328 9.679655908563657
Y 6.525884780053933 4.984730617847963 0.31516457123040653
Y 13.376152795602076 5.589521534386011 7.880332124912199
Y 9.677957568014781 8.392152803831788 4.873233764776293
Y 12.038233887840745 10.34573104100675 4.187286287504118
Y 6.193720627442765 11.10887523372942 2.435348074373445
Y 7.313053163820147 8.485212485120302 7.913986460569458
Y 4.476805816915902 5.995677739604485 9.798574082685734
Y 11.204989134684102 5.914933617521431 10.402477876147614
Y 10.859067981121939 3.298998200657584 8.219403504157048
Y 1.4065328990961434 4.67485780784908 6.111089233062929
Y 4.636486910937497 6.289328244238791 12.97119346694771
Y 2.7674339275312803 8.786088470038697 10.681772643806745
Y 4.7635570185873775 3.9577871470231654 7.076110936876777
Y 9.210001124510113 4.07602931173718 2.448910265264981
Y 1.5035195380872208 7.928691695720843 4.744997249096914
Y 7.804168896262443 7.176057194689417 2.307093682943384
Y 12.414222641940244 8.901967322086897 7.79347681886364
Y 2.306116213496769 1.4196585103497616 7.035456816575965
Y 9.470836002510724 3.182143740664471 11.244343950020461
Y 4.380843314624985 1.5928668906827579 9.5763872356832
Y 6.215012146957139 3.5354838085594813 11.45406921955939
Y 8.899192880091904 11.592051183448287 4.175770201130639
Y 6.585952893755763 11.713534800866508 6.386089839742796
Y 3.5621132959583095 10.623449729648762 5.162248857127649
Y 8.12315082089812 6.361035224886797 11.829076471803885
Y 4.459416249221673 10.455218236245255 8.507814451770964
Y 9.364268800981328 9.874877247887738 1.5627760835971247
Y 6.148617483424275 8.86671741817118 11.110768043710491
Y 6.318651677593199 2.7646376317669845 3.0861844302542893
Y 11.343538095218229 4.615796481996393 4.958360426277998
Y 7.605257674368914 5.448470558466126 5.274359666246814
Y 9.748870843374817 9.021654152689 10.196730701867395
Y 1.4449241614390076 6.0827293450906375 11.883822115471915
