55
Energy = -305.74613526 eV
Y 0.8464609935289696 4.38378919122977 3.4058437066784597
Y 12.654438147291447 7.483216017671952 6.404956454012647
Y 8.577122822856817 3.801078643533043 8.694634749928909
Y 4.11207377038392 0.26121235696301287 5.743910049136541
Y 9.597134419917735 7.2876813036775125 7.986211954566601
Y 4.712649395746727 4.011600724146625 11.56360429379855
Y 6.89898588817974 6.3719388233683025 3.1167586969498164
Y 6.2348893297037415 9.578281399527388 11.315220883333899
Y 9.071676760514388 2.783347255140635 5.510383333586282
Y 3.6382750896593 5.33619426817377 4.888297473075542
Y 3.8288587357794754 5.245566605390302 1.5897505372240113
Y 5.077930671008242 3.852040970354017 8.074224236773407
Y 0.763906020832081 7.895230899037122 9.188509316197797
Y 0.7588928660218989 6.111993728490106 6.3776864204168335
Y 1.9584867440354776 4.582512023211558 9.381336410375118
Y 6.292414990637191 11.241042384333976 3.3539297629190994
Y 2.8971437194672127 10.900629391183553 3.3801695943080667
Y 11.311577311285946 8.865913888787567 3.392465493262875
Y 4.468500550001573 11.70443773719867 6.34332767051078
Y 6.820602063860561 1.0330058665751483 7.23982134757061
Y 8.34607397958442 8.984386295844265 4.9426739029587194
Y 6.76074217216273 1.6702525083217645 10.536121700434775
Y 3.74279739343276 1.203311505822149 9.095367530365275
Y 6.423952757285668 9.353605791336877 7.916405505251079
Y 11.694581677983932 4.42640873027968 7.29401869794339
Y 10.088466656398515 5.900525519688495 4.642674342102653
Y 3.3864682535756843 10.176542227582969 9.374108075628044
Y 6.5508811052304425 6.443393901083747 9.94000762907445
Y 7.052742225492273 5.777350822370797 6.320032058720417
Y 8.179620349975844 4.428761614764079 12.073537809033413
Y 3.403891599321896 7.208441247234927 11.247816109580656
Y 3.663025248677589 7.128418847232031 7.876462107226967
Y 14.174733115484806 5.980944826436119 9.037145912204641
Y 10.98131455105872 10.371546057804549 6.564911060699547
Y 9.685012807417797 11.658107687012125 3.5302062216586614
Y 9.173543821619488 7.792527671266783 11.627115199002354
Y 9.089787470784879 10.540671404006137 9.49767624278308
Y 7.988824044244145 12.037869257305653 6.500867700812483
Y 4.793540875703551 8.609741310581777 1.5055395022793199
Y 5.892428318070035 3.1806714418194812 4.582051750873328
Y 6.171382444594375 12.346410228836445 9.356676316936628
Y 5.790193828719255 2.6641798010824225 1.0437086206574127
Y 2.0823599132356287 2.79300083784443 6.370559136806841
Y 11.166483964878479 5.410981263727108 10.4458902898094
Y 8.613344804885697 3.533734221252878 2.3243212737319014
Y 8.309692976349115 9.152102960203672 1.482449372050591
Y 6.161383151576602 6.681224249915636 13.23182112309104
Y 7.0109782610137 5.834656955587211 0.028373654342192585
Y 4.746087850350533 8.624465763221906 4.894818837278507
Y 12.16783367834597 8.604518554883612 9.607235627773484
Y 10.0889115256511 6.417720791861699 1.3383572576548264
Y 1.6868122181772338 9.535573622580403 6.324396380728342
Y 3.2635828978588206 2.0934686720709674 3.1162058726169457
Y 6.813180976578244 0.49294717382155506 3.5565269170295464
Y 1.8273400456491344 7.704840009402563 3.3168951283130643
