6
Energy = -26.73132549 eV
Y 4.986943010425591 8.158605100732466 6.477265124163651
Y 5.4937263847914855 5.561058613354672 4.594908891404002
Y 5.082199675153713 5.227155818795286 7.870160737668268
Y 7.913065738346126 7.768037101560397 5.1250609601148485
Y 8.008218828004965 4.836704644797663 6.5179683560137915
Y 7.501560333854278 7.434152691336154 8.40034990121183
