6
Energy = -26.66413983 eV
Y 9.301645011298008 7.0462192426827155 5.102821542086328
Y 8.96796812660158 8.244758332357717 8.123619459972808
Y 8.063250575935815 5.141170006021241 7.406537318200861
Y 6.385297565079289 10.135559364520418 8.742960991844356
Y 6.4170183045786695 7.833459703673674 6.419132373300375
Y 6.2926496101818845 7.025436381752051 9.631620160601155
