6
Energy = -26.50573086 eV
Y 6.542345333016934 8.50008926737704 5.627758921931561
Y 9.31339786179469 8.641225989503006 7.159115490761587
Y 6.5860036595905935 8.020341545735322 8.784646921383484
Y 9.421479970677375 7.122713365471703 9.98371593778713
Y 8.448107737792137 10.446742521461822 9.685811856627227
Y 8.037346887408724 5.704142697021126 7.138311041649883
