6
Energy = -26.72785916 eV
Y 4.489790748359936 7.652190493396261 5.975557547659316
Y 4.991450087869003 5.059030712851996 4.091307326097417
Y 4.578596585364633 4.724021378377408 7.36916247635962
Y 7.4130517238431 7.267642939527244 4.622426945455666
Y 7.501819796922216 4.339414409922724 6.016087868255156
Y 7.000187425084244 6.932596433367831 7.900354203616297
