6
Energy = -24.88630142 eV
Y 5.66978752762212 6.763475856984839 8.736297464211857
Y 8.854586868430061 7.531853709904919 7.760016600535514
Y 6.030915414264009 8.64148756240796 6.183034357949859
Y 10.201973836153714 9.666802527232987 9.66832971986353
Y 6.893024030252032 9.72963001047841 9.092512247506644
Y 12.1242075657432 7.465468113850571 8.366316377283068
