7
Energy = -30.07546573 eV
Y 6.990430257088657 8.581445734589542 4.763670040884775
Y 5.3320607316632405 8.588893254634655 7.625181356290655
Y 8.410003806229605 9.930818263751721 7.448818496799192
Y 9.590488496347408 7.066808168549606 6.149230987664372
Y 7.924616757073445 7.051430310151132 9.02839454446647
Y 6.514721483313408 5.71418151224249 6.32446945210859
Y 8.865451919348128 6.4722903626346415 12.00404149879186
