7
Energy = -29.38328014 eV
Y 7.6778976553473965 5.098250715193681 8.694472836222474
Y 6.041949688639243 7.931997653795972 8.694501299999999
Y 4.406001721931091 5.098250715193681 8.694472836222474
Y 4.406001721931091 6.985648662084804 3.389426541056015
Y 6.041949688639243 6.041949688639243 6.041949688639243
Y 7.6778976553473965 6.985648662084804 3.389426541056015
Y 6.041949688639243 4.151901723482516 3.389398077278484
