7
Energy = -31.58829324 eV
Y 9.814626913270247 9.049733517814133 8.720308859663392
Y 9.372804581590895 7.10446933193371 11.256376781534422
Y 6.956306533203779 8.974358726760814 10.257179530780315
Y 9.337014530430514 7.548302925152995 5.674441281825465
Y 7.045017884251464 9.47939792572107 6.954660252445375
Y 7.801921260733762 6.485455986958169 8.330017763087193
Y 6.181698393315623 6.772325274474632 5.442213240149537
