7
Energy = -32.46418389 eV
Y 6.7433598783288335 5.9211495963579415 6.38048622549675
Y 9.689005789846426 5.751036526543251 8.080700952128932
Y 8.68081867457683 8.514009588500839 6.687356810031743
Y 7.119882042897036 7.394231875696308 9.261233531143256
Y 10.183893007402695 8.639703085083957 9.655767608409011
Y 7.627595354663453 10.612438354941105 8.959938545569104
Y 5.473029229872715 8.897139291163048 6.912169797306824
