7
Energy = -32.46021332 eV
Y 5.300047165394557 7.2564967245472936 5.445423883118211
Y 4.1745052513916105 4.3459950656329305 4.541423496576167
Y 3.739937629115469 5.482872682692728 7.675462938530567
Y 6.696127872306785 4.740238568160963 6.551821775563573
Y 8.521885462928315 7.338345106831136 5.862349635883002
Y 7.129832530655813 5.492710396161474 3.4203886452829093
Y 6.426476548392044 7.332153916157947 8.491942085230168
