7
Energy = -29.1173323 eV
Y 9.825166064096265 8.175826599778864 6.274307968407047
Y 7.638733912905708 10.531114286116892 6.774161263978345
Y 11.276598794563192 6.742942868241101 8.807959784463643
Y 9.157538840003216 9.160948248564274 9.302709208169974
Y 10.570895583462454 7.7073605932075715 11.83755819868461
Y 7.003983235674874 11.548291804285308 9.796019474784382
Y 8.487870112188775 10.158516792827823 12.33088127081409
