7
Energy = -30.97814475 eV
Y 4.184663002510827 6.449825065193406 6.43070000760868
Y 5.440633892677012 6.150827054885164 9.332138883579969
Y 7.364671826251502 5.778979038431885 6.588257297970215
Y 8.423699155778705 8.799801203501241 5.011522155853169
Y 6.141057173774744 8.995660011292731 7.5048879049082275
Y 10.674276574582272 7.147029658059438 6.723739420111026
Y 8.5876974914757 7.494577085686895 9.225453447019492
