7
Energy = -32.17730568 eV
Y 5.586068853587168 9.401206841977002 8.106449103771322
Y 6.8500406586822375 7.248187987973729 10.290699975455233
Y 8.667708090755902 9.835195513660175 9.271744519237432
Y 8.213518336429946 8.84910181856425 6.1057047017692945
Y 6.433309479337121 6.331367137643161 7.104128286343346
Y 9.443541538562059 6.752019363784777 8.239220065056028
Y 9.01682387087959 5.793932164630791 5.093064176601095
