7
Energy = -31.0609868 eV
Y 8.656059319925998 9.28495893874637 4.686042243851207
Y 8.22098246163363 10.060642278266874 7.826676494573609
Y 5.8626956855664565 8.466402136229766 6.167662733081397
Y 8.52983352026949 6.907786679448856 7.13184131898912
Y 7.878793680723546 7.878486915551355 10.137484545134887
Y 5.645364481030789 6.200575556832346 8.413157064786253
Y 8.224818262202655 4.673386527479844 9.674710752229121
