8
Energy = -36.90944515 eV
Y 8.964929282836616 7.065113820774493 5.552857648453097
Y 9.478250245500437 5.549258538247444 8.477858003083396
Y 8.763998817081733 10.304947716015832 5.240185469289356
Y 6.4406306001491425 5.313306223740681 7.114204977682474
Y 3.8463136717679647 6.910189288959068 8.299429540967378
Y 6.7897884805902216 7.123104109505318 9.692184958309978
Y 6.25665078435109 8.6517326215222 6.746822509576725
Y 9.316885283476616 8.859718901136157 8.117940591135934
