8
Energy = -37.68339307 eV
Y 7.400990578974445 8.41246283785635 5.948090245769445
Y 8.004111753933579 5.099401582134967 6.2718573856664905
Y 2.705811981972478 4.861444142832245 6.329011602714637
Y 4.478163466194431 7.401332350012575 4.57794652657624
Y 5.3697115254694685 4.313011604511709 4.606290636313873
Y 5.353486526001887 3.1316442295235687 7.600860779186251
Y 5.309866095161289 6.349517316950555 7.499332648699
Y 7.456454709300672 6.509782848333514 3.2452068120819586
