8
Energy = -36.43047789 eV
Y 5.923569035112475 9.418280239397617 10.36530995760931
Y 8.198012030009176 8.559945780874227 5.34612262419274
Y 6.941187664060952 6.467449711690855 10.10577278998293
Y 8.281515313631834 5.9253974389538575 7.060738825219688
Y 8.64642401455399 8.946877223027522 8.645779165613206
Y 5.614308719112676 8.037615341862697 7.425345753476683
Y 5.903836346800678 6.182748868206324 4.834547331727121
Y 11.01493480178224 7.662393208446026 6.931881494744332
