8
Energy = -36.50735627 eV
Y 4.034583230085325 4.741841866425034 8.507212667630924
Y 6.799056991856487 6.332639625119583 4.163346800037666
Y 6.140020906531824 9.159008974118363 5.7608484165107186
Y 5.572102655716974 3.802218115712464 5.742621666186744
Y 4.06852448792535 4.843394472921495 2.975684646187443
Y 3.980266277846542 6.630392714831712 5.758125429830778
Y 6.731205343648399 6.336392383655284 7.412019417635366
Y 8.850360020615295 4.330231761442273 5.856260870206074
