8
Energy = -36.12943229 eV
Y 7.7601780339250075 10.032869388082112 8.283254939551636
Y 7.27550486886818 6.308070579265358 9.98347391789039
Y 9.819931238819205 8.69140792070504 5.707716418751602
Y 9.290548453927217 4.789501696561944 7.445013468947139
Y 6.315297087442377 8.830413978622728 5.27335261304047
Y 4.987784063740235 8.105206464595623 8.255687313495333
Y 7.867402197804811 7.270212905785847 7.22727648041084
Y 5.836423693675347 5.125386704583733 6.977294486114973
