8
Energy = -37.1595057 eV
Y 5.526466741967531 7.795801932526488 6.630073947739583
Y 7.992759820490367 9.943590257824937 7.118600902659441
Y 6.814525106955543 9.408471007589522 4.050144214730985
Y 6.800510160996848 8.175255684768452 9.74180247869636
Y 9.781656490752885 7.53177303682174 8.689818899456839
Y 7.308290756309095 5.365548221523223 8.191372366833175
Y 8.517644168409781 7.138818394406175 5.577519788261601
Y 8.502418241972627 5.885012952393861 11.244938889476549
