8
Energy = -36.54024574 eV
Y 9.274474374237215 6.2736906152699445 6.389634998237966
Y 10.800861728448336 9.133602898797683 5.590776911532111
Y 4.237327268770865 5.5798866911212 9.455572147787025
Y 8.278122827126158 8.976917913906593 7.851842848388056
Y 5.978027883568567 6.708809369273237 6.761148093968446
Y 7.512494343849741 6.20646270709165 9.559335575515371
Y 5.254332338388901 8.593278046569525 9.364890416555957
Y 7.8110298609787066 8.621393088776362 4.611480360774853
