9
Energy = -42.37722011 eV
Y 9.433966766235098 7.532651126649667 4.536205050551052
Y 6.776035466844656 9.024512975896247 5.732110399603664
Y 9.012715435809096 8.024255201566268 8.032789570048218
Y 7.979531721139046 5.271148041956794 6.404383672062304
Y 8.128243313183171 8.31951411920926 11.269295707382591
Y 6.441998304961411 6.419636517629392 3.6745246613956546
Y 5.937186934752991 8.928744856484693 8.970244082890998
Y 4.9710919759684575 6.494445073323917 6.731241794710402
Y 6.912241753337997 5.891207975049278 9.514185140486838
