9
Energy = -42.68447744 eV
Y 9.77804422632706 5.01510922466327 7.44063825822909
Y 7.668165477202956 7.189515065610872 5.949534109870616
Y 8.658779030438694 7.878741241194444 9.086495983992497
Y 7.428617373384396 3.8506649890570293 5.600360463046651
Y 7.4769815227784395 10.408546055940175 7.001734197942584
Y 4.64777835703876 5.903811195535127 5.952239537083723
Y 6.694898312525611 5.193879045840622 8.486706717842404
Y 5.137145936579332 9.244373310143901 5.141080106464229
Y 5.402568119625086 8.207906936874123 8.233747290292873
