9
Energy = -42.77340251 eV
Y 4.492999764099215 8.100323059384271 5.901540813860574
Y 3.362938866786571 4.785198277107103 6.530301968298552
Y 3.8374563959059524 6.104790344387565 3.407855286432321
Y 6.088385316364158 4.381572680777645 4.955407164169805
Y 6.330998255797056 2.953149420456431 7.78195048241315
Y 7.767091402302821 8.641048839584952 6.847906269777633
Y 6.024894966467494 6.113918240189445 7.852736607970906
Y 7.038969349257002 7.25544314027341 3.987467716469507
Y 8.788014296941002 5.39630461176095 6.466582304529323
