9
Energy = -42.34909992 eV
Y 8.60596131279883 8.978458206686573 4.817609586760146
Y 9.779063375708747 9.867634983006653 7.690948137637894
Y 8.706176388129553 6.640984175075999 7.221362687419029
Y 6.074661266258861 7.000338464489012 5.11519716080489
Y 6.566589587570176 9.03720039624486 7.736130822454928
Y 10.650443450371695 7.758829794836963 9.993042581691642
Y 5.5478162297312785 5.8235680609839475 8.041794025496339
Y 8.468835463000213 10.112586364121622 10.59803168188301
Y 7.50239001849882 7.007544236613349 10.29708813487577
