9
Energy = -42.61718973 eV
Y 8.763181625587904 9.102759817456253 9.577348326817592
Y 7.809942742191926 9.267045136084823 6.402782956188812
Y 8.517352504180275 7.33049749615227 3.950223659567233
Y 10.156996834795986 7.1474910339052125 7.080077113142098
Y 8.20575757560525 5.947765512952447 9.691825256133356
Y 7.235036355330311 5.889409878479261 6.514303410105074
Y 6.704694864234334 7.935881264134387 11.806962004791545
Y 5.759780640116944 7.950958273919775 8.589637562168308
Y 5.320495533775086 7.901430262734025 4.860078386904582
