9
Energy = -41.36447896 eV
Y 8.83541034852085 6.480304821743824 3.8551635789739556
Y 6.204978859345145 7.870711127520263 5.124278870250256
Y 4.939529693814768 6.784969545684642 8.063606786309343
Y 7.612397074914774 5.372362590547785 6.7482900906326995
Y 6.3757358366226535 4.3553138840542 9.667520691633273
Y 9.121061333777838 8.408125439604182 6.56084273185457
Y 7.8423902681573505 7.327909717843855 9.505895023060683
Y 6.449205237000901 9.820864015821227 7.8776341677190524
Y 9.327454633741402 10.287602143076107 9.304931345461855
