9
Energy = -42.83768145 eV
Y 9.553380054127539 9.970799789805705 7.074050456799621
Y 7.440193167419323 11.471245373437473 9.332101916834565
Y 8.966034831389415 6.313646492307697 9.92830116251941
Y 10.912431113830735 11.843433744157316 9.281478559612198
Y 7.034407905922427 8.259398025402092 8.173991703279583
Y 9.521018800414167 6.666087656094639 6.62790738867745
Y 9.37733209922137 9.377491921369714 10.537997215529911
Y 11.677109429600792 8.149997141554781 8.758513519205174
Y 6.3637283156896505 8.77339164026514 11.252363537374379
