9
Energy = -41.93162434 eV
Y 11.165647171586286 8.726348498898766 8.470679760907535
Y 9.984893444299397 6.222330825236241 6.713844771910162
Y 8.448732634546873 7.268237175497133 9.351019418950207
Y 8.384056807884422 9.133285740746544 6.688798586090979
Y 7.187260493405829 4.647927027036728 8.033320122597644
Y 4.890161693003656 9.088409784182565 5.484165306797307
Y 5.716372530481815 8.413288142785882 8.37779060699945
Y 6.7044677132965225 6.620044916194721 5.659258407543779
Y 4.010368439048074 6.0803708196962525 7.3706022902679145
