18
Energy = -9.33088373 eV
Zn 6.032962525813774 8.510549298520004 4.50909999879102
Zn 8.099238667199803 8.908386317971479 5.972934956020927
Zn 6.0125977334108205 6.2369749355082655 2.9276295024482977
Zn 6.083354906169673 6.347910473641636 9.16560980860263
Zn 6.052094727892338 3.169815750012895 6.103057800012033
Zn 6.050481437974206 5.975279590995776 6.0499163139470875
Zn 6.067870785666334 8.563196287973373 7.507075350330131
Zn 4.00166847550105 8.912759495420245 6.0316970632688545
Zn 8.078330729221 6.706544703778338 4.501203713135217
Zn 4.800390740961546 4.124556169414382 8.412512903839989
Zn 4.02334819359002 6.753071495290019 7.572803691941656
Zn 4.753178769283512 4.039716382356999 3.793976968295141
Zn 3.9922181941622497 6.70967650817089 4.554768724808071
Zn 8.33040982698236 4.51357067054447 6.048513345614079
Zn 7.350506420395133 4.124026584809076 8.372533073095084
Zn 8.106750181788483 6.7536788488859365 7.524100341564566
Zn 7.303046784143943 4.04910959998348 3.7596696292431715
Zn 3.773311144454624 4.512937131333734 6.104657059653292
