16
Energy = -7.13639714 eV
Zn 5.699207809797502 3.709685252997616 4.976886303976592
Zn 9.145718843754732 6.536357582278518 9.581341605267818
Zn 7.393575408482171 5.605655619123377 4.627151242205565
Zn 8.324756141703544 5.490079309534671 7.037063475430701
Zn 6.901018677380116 4.604482402761257 9.10928249609677
Zn 10.448078449662102 9.547187686774512 5.795126376854133
Zn 3.6538940430908715 9.573220086680497 8.48542081061168
Zn 3.997537203496246 7.429652407610513 7.07283729734665
Zn 4.6942837345016715 6.148516581314891 4.941828514441806
Zn 6.1740602284002835 9.717962967852976 8.130791081404753
Zn 8.605935711163179 9.135790923551607 7.7433138907430425
Zn 6.577514351058452 7.890976616433854 5.979643881201326
Zn 5.095699138414416 4.937702358137489 7.27393141568826
Zn 9.096110721615407 7.378070008844677 5.327265570762588
Zn 10.49513069422836 7.372039803587458 7.561305111101868
Zn 6.600314104595535 7.117206706912724 8.491693467337281
