18
Energy = -8.41217741 eV
Zn 6.29547423470854 4.828236197376125 8.357907004594285
Zn 5.831749429432159 7.484303823496687 3.839842282778641
Zn 8.270709290078537 8.533937224522107 8.100997687996362
Zn 8.64484509130799 5.852054776392785 7.8178611290862134
Zn 5.901697524926226 9.117671968162817 9.01004518843058
Zn 5.679480650768376 3.252104846355452 5.187483018885455
Zn 7.044648544465069 6.908975729166207 9.7807661962445
Zn 4.698761619229773 6.890768651137028 8.281714366405671
Zn 3.8024259163353538 5.773792660739365 4.205614138975014
Zn 5.836026128072999 6.188040058758478 6.109287844350464
Zn 7.963310931864869 4.336541893492295 5.706167872287696
Zn 6.893933471913081 4.956929186017111 3.466018741837263
Zn 6.054457637833277 8.71576593415435 6.421157972340555
Zn 4.384201417991482 3.505282442950679 2.3891024230325524
Zn 3.8264323758110037 4.648941011423439 6.652642296171448
Zn 5.068969840485409 5.907713769715327 1.8639508402038127
Zn 3.1188184624572806 3.2023684659621323 4.577051784802392
Zn 8.180273000014099 7.392786927873561 5.728604779272582
