13
Energy = -4.23032033 eV
Zn 4.799827403832369 5.217803555666201 3.641947792053881
Zn 5.009069358980415 5.1514881929829315 6.182597132758816
Zn 5.367379681866449 5.129915229922546 8.645689544973104
Zn 7.187673207916031 5.06209705155878 4.407980654311306
Zn 7.48316408317013 5.0538887741388345 6.963185833850272
Zn 7.777597146027107 5.211690346049462 9.535224723495665
Zn 4.79308296881868 7.7396445341385265 3.6455380854505712
Zn 4.990276272732966 7.793258672397236 6.187146184128162
Zn 5.348300287048129 7.807114859524056 8.6533083731537
Zn 7.179539025000079 7.903061512718863 4.417249181082702
Zn 7.459530337996851 7.910553262635641 6.968285447593006
Zn 7.767454927689355 7.752908983277138 9.53665109438166
Zn 9.056634872111887 6.486104636501245 5.434725410994296
