12
Energy = -2.44820799 eV
Zn 8.35092753 6.50579149235661 8.35092753
Zn 8.35092753 8.35092753 6.50579149235661
Zn 6.50579149235661 8.35092753 4.660655454713224
Zn 4.660655454713224 6.50579149235661 4.660655454713224
Zn 6.50579149235661 4.660655454713224 8.35092753
Zn 4.660655454713224 4.660655454713224 6.50579149235661
Zn 4.660655454713224 8.35092753 6.50579149235661
Zn 6.50579149235661 8.35092753 8.35092753
Zn 4.660655454713224 6.50579149235661 8.35092753
Zn 6.50579149235661 4.660655454713224 4.660655454713224
Zn 8.35092753 4.660655454713224 6.50579149235661
Zn 8.35092753 6.50579149235661 4.660655454713224
