16
Energy = -7.34215567 eV
Zn 7.625181613857527 4.933076218518857 5.973294876923708
Zn 6.910216396607398 4.100863395991014 8.578559996837019
Zn 9.914914535683383 6.061083643363671 6.0339029917346565
Zn 6.180557784939359 6.403503811756338 9.70613111833702
Zn 5.014385641851149 7.757969717620565 7.648100618348065
Zn 8.210667126340928 9.599893539457788 5.024300094729559
Zn 6.913624336706949 7.587209451874078 5.890703841724241
Zn 7.74860430565069 8.72790923845974 9.423587908387484
Zn 7.357111453415595 10.301903958836204 7.353925196519947
Zn 4.9793206670555055 6.025137385431599 5.571094192834947
Zn 5.5010745081933505 3.602267388758799 6.388834057784726
Zn 5.248416669938448 10.051890200935093 8.875180549698028
Zn 4.452879838239172 5.255692691424002 8.12366236251142
Zn 10.333269117470438 8.234177199905211 4.835451251294946
Zn 9.585897481769935 8.632153361411044 7.442230689359328
Zn 8.090169521735817 6.426220273201905 8.003865547149433
