13
Energy = -5.51513769 eV
Zn 7.920017472752888 6.647629868811744 5.628661375222377
Zn 6.752323330271461 7.577687003396884 3.420861736888817
Zn 7.662744311031276 4.148269766183293 6.7343726051506385
Zn 6.455974745403072 4.896729294975618 4.486214593006197
Zn 6.21139088955175 8.704626803213356 5.843641154614807
Zn 5.901101402128508 6.0725286415804245 7.09567374469196
Zn 4.686539290958879 2.524554795688747 5.2023820258548685
Zn 3.8910810271095353 7.540792193127719 6.863208804142961
Zn 4.2807371476145075 7.809829882308697 4.298333953702647
Zn 6.179068893759598 2.1334762478799245 7.322914992248661
Zn 4.024445804548124 3.5846417617855817 7.660247444493163
Zn 4.717993174911232 5.688368278864065 2.881205208727684
Zn 3.9148854227761913 5.2772955124746295 5.4097259729991904
