13
Energy = -5.58635927 eV
Zn 3.8373638776462786 7.460280618654513 5.022317317313626
Zn 5.827413273130678 7.424919122386078 8.811891415545658
Zn 5.354779856985719 3.512242473597616 7.1326254896602865
Zn 5.655226174926551 4.130056815252142 2.8205353255327776
Zn 4.228352792606006 3.065199445187561 4.791023511858242
Zn 3.3832409329655238 5.268509581185105 3.615609843197704
Zn 8.123251475086699 7.705170532918874 7.682581382087361
Zn 6.939165292007935 4.440708894172729 5.299525165379946
Zn 8.426812648112312 6.576466819782845 5.367457675913867
Zn 6.007518248808016 8.284177494154203 6.245022450888211
Zn 4.593052566596265 5.902432152493009 6.854490838562144
Zn 7.1474458905526195 5.273306664030033 7.858772763752598
Zn 6.113078055986683 6.593230471596589 4.134847905719567
