12
Energy = -4.62232348 eV
Zn 8.502468539179915 7.110232822203255 6.716458046744038
Zn 8.148489259711855 4.51577932782879 6.716458046744038
Zn 6.738601794269588 6.06100541003525 8.471737377638403
Zn 5.535992220652085 8.277891310890048 8.046938486725223
Zn 5.535992220652085 8.277891310890048 5.38597760676285
Zn 4.507520470315732 6.312281967232282 6.716458046744038
Zn 5.668328960084652 3.6151066849622824 5.4366481808191764
Zn 6.738601794269588 6.06100541003525 4.961178715849677
Zn 5.668328960084652 3.6151066849622824 7.9962679126689
Zn 8.005331095110668 8.485107548188298 4.557480610803684
Zn 7.5425100955250945 9.78098059147421 6.716458046744038
Zn 8.005331095110668 8.485107548188298 8.875435482684408
