13
Energy = -5.28309873 eV
Zn 4.614004076786254 8.383119407867346 7.117617655695688
Zn 6.877205533910298 5.586881428075836 5.521841259201982
Zn 4.553362318021804 6.877205533910298 4.908560444346671
Zn 9.140406991034341 5.371291659953248 7.117617655695688
Zn 6.877205533910298 8.16752963974476 5.521841259201982
Zn 9.2010487497988 6.877205533910298 4.908560444346671
Zn 6.877205533910298 6.877205533910298 8.71572439527469
Zn 9.140406991034341 8.383119407867346 7.117617655695688
Zn 6.877205533910298 9.294187330061721 7.9662600509632835
Zn 6.877205533910298 4.460223737758873 7.9662600509632835
Zn 4.614004076786254 5.371291659953248 7.117617655695688
Zn 2.608236067820598 6.877205533910298 7.712076706876848
Zn 11.146175000000001 6.877205533910298 7.712076706876848
