15
Energy = -5.90383525 eV
Zn 9.884059040501038 6.8383651036132065 7.780608744303871
Zn 8.270395671784508 4.730889126940821 7.554056468046855
Zn 8.458745883474322 6.981230832398226 5.618456558596806
Zn 8.672332241069666 2.6595915711918985 5.810607555531893
Zn 6.4398012661193995 7.024369622204933 4.030020875377668
Zn 7.115581512701692 7.166929031570684 7.8380354998905934
Zn 7.525959325695591 4.626990538608577 4.520986936319922
Zn 6.195959227426108 3.3783133666691847 6.668688964947481
Zn 4.976095935236179 5.6062305176585925 7.59405046124616
Zn 4.810872168475442 5.216362960375735 5.0049124336510955
Zn 4.686811488450594 8.231492638858253 7.5976538959708035
Zn 4.439921326579759 8.433198862009153 4.996178225522687
Zn 3.548683050282806 6.680800955899964 3.256713422215086
Zn 3.4154227689482943 3.5435479990439878 6.458791437269657
Zn 2.8634211774646556 10.126520041792912 6.54588529502276
