13
Energy = -5.28989319 eV
Zn 5.7957454958686245 3.8982589080879766 4.228686242668049
Zn 3.826586833431864 5.315193873738992 3.342026264403863
Zn 7.8170515755454675 4.1243479102890985 5.692972699623861
Zn 4.7885074406178045 5.741892174168124 6.156602808147465
Zn 4.331422690424373 7.664355836253382 4.241979142043285
Zn 4.586061656387852 5.3009025583019405 8.737178949533845
Zn 7.112570601730515 5.067971530342744 8.114292170215267
Zn 9.559073266628902 5.406508633689342 7.364566320041881
Zn 7.013341477848611 6.437110619927661 4.780981170565017
Zn 6.079040115037735 8.570461647224866 5.95991033475136
Zn 8.35717291619876 7.615880305164851 7.150726486168719
Zn 5.876256098948006 7.521103768310564 8.409673454303775
Zn 7.270362605221832 9.737393824125563 8.235157813475347
