12
Energy = -3.94094532 eV
Zn 6.87405462603743 6.433316802328952 5.051205112951051
Zn 7.727245313969568 5.821798873098367 7.473557050866936
Zn 5.834131145414175 5.772682798752321 9.439906001300056
Zn 6.3679489783511665 7.399321729233284 2.6607913914601493
Zn 8.588985795803435 8.113111204618098 6.456606276580274
Zn 6.4780911360104465 8.079238003072676 8.331481203015766
Zn 6.126864911562601 10.54420315128984 9.365495321447977
Zn 7.229035599023935 10.32909755909894 6.947031657264488
Zn 6.93018219085176 9.133168386995237 4.654906511651319
Zn 7.331126970804361 3.88657622244048 5.480106161079925
Zn 5.879126867063515 3.7408405223855756 7.701672971689692
Zn 7.763774894612852 3.877213234685776 9.56780865320927
