16
Energy = -7.39675114 eV
Zn 6.826376520212816 9.830000999999998 7.345607602130108
Zn 4.678715326281175 8.974037714144455 6.295747201862103
Zn 3.8227520404256303 6.826376520212816 7.345607602130108
Zn 4.678715326281175 4.678715326281175 6.295747201862103
Zn 6.826376520212816 3.8227520404256303 7.345607602130108
Zn 8.974037714144455 4.678715326281175 6.295747201862103
Zn 8.728227147551978 6.826376520212816 4.8560270027085
Zn 6.826376520212816 4.924525892873663 4.8560270027085
Zn 4.924525892873663 6.826376520212816 4.8560270027085
Zn 9.830000999999998 6.826376520212816 7.345607602130108
Zn 6.826376520212816 8.728227147551978 4.8560270027085
Zn 8.974037714144455 8.974037714144455 6.295747201862103
Zn 8.149436167580436 8.149436167580436 8.808124274150554
Zn 8.149436167580436 5.503316872845198 8.808124274150554
Zn 5.503316872845198 5.503316872845198 8.808124274150554
Zn 5.503316872845198 8.149436167580436 8.808124274150554
