14
Energy = -4.80229212 eV
Zn 5.653613966277136 8.779894960686562 7.947114673695185
Zn 7.827349858426182 7.358523439441159 8.087629704819062
Zn 9.801359563200513 8.505027188897705 6.6817315741496905
Zn 3.5621035850988747 4.8584359594016835 6.6817315741496905
Zn 3.4912340181460464 7.485769333777893 6.6817315741496905
Zn 5.5361132898731995 6.004939708858223 5.27583344348032
Zn 7.709849182022247 4.583568187612818 5.416348474604204
Zn 9.872229130153334 5.877693814521489 6.6817315741496905
Zn 5.653613966277136 8.779894960686562 5.416348474604204
Zn 7.827349858426182 7.358523439441159 5.27583344348032
Zn 5.5361132898731995 6.004939708858223 8.087629704819062
Zn 7.709849182022247 4.583568187612818 7.947114673695185
Zn 3.5190204652183237 10.11574 6.6817315741496905
Zn 9.844442683081061 3.247723148299381 6.6817315741496905
