10
Energy = -3.57838545 eV
Zn 8.501828338494105 7.256354488741127 7.557502324640381
Zn 7.318291815072178 9.021753888991011 5.9129284076964606
Zn 7.560955907763201 6.44021251583472 5.037194231200013
Zn 6.2434966179393045 8.62969718488456 8.269591520106559
Zn 6.007679497699493 5.87692749544028 8.53669625311066
Zn 3.4918436300210907 6.582636329305553 7.813340016981941
Zn 5.040740558541329 7.719836996182159 5.944403683477855
Zn 5.377746136916024 5.009325031198038 6.08187912925988
Zn 10.306153515196568 6.512469945590431 5.606224128511961
Zn 7.872454556479461 4.671976697954713 6.961430879136774
