10
Energy = -2.76140584 eV
Zn 4.3749307839406155 7.885826820432168 4.930785121105629
Zn 5.3781463499409385 5.436370782069335 4.955961981032528
Zn 5.259891136653212 3.811224971159144 7.146056883306516
Zn 6.519158847015101 8.27031950366133 6.246010513494981
Zn 4.72881842007167 6.433482164596956 7.262979087651344
Zn 7.819403919488138 5.283988068754129 4.122798240967108
Zn 5.857362425876072 7.948189122644916 9.05129244933709
Zn 7.497425630227105 4.954918679593628 6.788910027400855
Zn 8.073910570488426 7.084565034473066 8.130897263152221
Zn 8.751531030219855 7.118283162054782 5.613066465539906
