10
Energy = -3.13721075 eV
Zn 4.5920666143112125 4.234229048833011 7.621059316440697
Zn 7.061984660201124 5.624260742392916 7.318511708325982
Zn 6.70899620354498 8.321753633189703 7.594722483851478
Zn 4.517113911690981 7.03118030173653 6.710558973589114
Zn 9.721295602005737 6.813294955650235 7.043099073800161
Zn 3.0040270936429323 5.245189213638434 5.468685878315393
Zn 5.56066370427637 4.599930921313206 5.012654387540343
Zn 6.979482897592021 7.1679880708776365 5.112920985779392
Zn 4.389921954121102 7.0526130260253135 3.868737288093555
Zn 8.284030893150138 4.729143620880015 5.068633438800741
