15
Energy = -6.73476517 eV
Zn 6.726244544320035 8.319522173409693 5.422873168751762
Zn 8.413669864039893 9.915259233145301 6.926101672720505
Zn 5.758560320775855 10.237696025558858 6.971203407616614
Zn 4.510518084126116 7.06761920976478 4.984786930201152
Zn 6.665399091683481 6.440676235685883 3.571289181898435
Zn 5.6866655994218185 6.4526656691683595 7.150235920951889
Zn 6.973310807133705 9.167083572234334 9.028694325149017
Zn 8.028104782284835 4.325937722838433 4.189417205798922
Zn 6.390748093992835 6.71279275878665 9.75581018782447
Zn 8.148904659420944 7.154407825654927 7.609715885107726
Zn 8.826369139468813 6.685206576080749 5.157122773976704
Zn 5.49182546805842 4.517581018709632 5.047372281680437
Zn 5.384994000018638 3.758643406826933 7.507357995943812
Zn 7.715481269793185 4.769490741302859 6.734211626815281
Zn 5.403855733053999 4.335148516201456 10.001707924674717
