11
Energy = -3.20191952 eV
Zn 4.09933433542884 4.66473687617077 6.738982757230837
Zn 4.716036998407503 7.5184007387222165 7.095362595866941
Zn 5.62513383290827 9.801283642067343 6.172882244473113
Zn 7.285996154595049 7.810689280378158 6.64616968767617
Zn 6.377251200829826 5.651596097960868 5.804630123306308
Zn 8.937287655132835 5.815616458738538 6.95842259625745
Zn 9.866993401108578 8.238481087116343 6.168868702650037
Zn 8.252575801824031 10.341589381231078 6.882614680335636
Zn 6.442150200417932 3.302253097692722 6.977413879133949
Zn 9.09467694785017 3.2200974072950834 6.858344411870509
Zn 2.3004700781308545 6.633162597754715 6.694215161810358
