11
Energy = -4.6306332 eV
Zn 7.0633553247276755 7.790566159416981 6.615656554146472
Zn 7.969568101175226 5.363732331323688 7.005519327969081
Zn 4.130902708361083 3.859728617836701 6.326255237870296
Zn 4.1806659810717015 5.97772235762972 4.834849755215324
Zn 6.360821137566768 4.329706795418341 5.161785693225598
Zn 5.872817672098648 7.9611810120805835 4.172287739094127
Zn 7.995938265519643 6.3032401212435785 4.559581176524215
Zn 3.525800246115056 1.669344264641801 7.729029820357573
Zn 4.470207347734569 8.161870307701937 6.351757615272725
Zn 5.383123758995556 5.872834987556068 7.3024843605046135
Zn 6.0292902330713725 5.692563821587925 2.9232835095250973
