10
Energy = -3.43954973 eV
Zn 7.5285715964160085 4.693818259203516 2.7972720679086605
Zn 5.479804969260856 5.7211078176231585 4.2338316710056585
Zn 7.912105453435853 6.501168517958284 5.0032929047439305
Zn 7.088141719761289 3.9790434262197723 5.4132390285040195
Zn 3.950459223157006 7.667762925448856 5.178668815152652
Zn 3.4853980489331637 5.073694825123935 5.881623827362676
Zn 7.173700401384159 7.910166516451291 7.231902854255737
Zn 7.072594775638893 5.2958156624283514 7.812293122388178
Zn 4.828683696198944 6.698733926507516 7.509506013059422
Zn 6.268124998819412 7.246273006041041 9.725954578624366
