16
Energy = -7.78559316
Zn 8.360930953480267 4.504934006796943 7.407511019008485
Zn 8.623699139595315 7.013134299869375 8.354470596255062
Zn 6.201209636097925 3.9526880321637496 6.0439966776333485
Zn 3.403952451225609 6.5905458206755165 4.681063426786361
Zn 3.440412116008073 4.184716328312061 6.05222024281412
Zn 6.257017653183356 6.273450533867387 4.605836742493279
Zn 7.769767592275212 8.154110061051483 6.087016641871107
Zn 6.264910334159345 6.238449439499441 7.535231436779349
Zn 8.61152772585211 7.062456212093487 3.7867481859550405
Zn 3.4115462511858583 6.559649021346652 7.478327444563549
Zn 4.496732666598952 4.475994308597283 3.7248729507902865
Zn 5.1501289739504275 8.116207075208077 6.0952173513599135
Zn 8.353932482159797 4.532984008542346 4.682896926999537
Zn 4.506422143050667 4.421265013283604 8.380367655326188
Zn 2.525091824713113 8.629016382923052 6.1051953609088985
Zn 9.70341740601878 6.371098805324746 6.059726690009998
