17
Energy = -7.3689585 eV
Zn 6.92741218409148 10.538632999999997 6.8226654601686505
Zn 8.847963411111234 4.941261540114808 6.7343581061883615
Zn 8.847963411111234 8.913562828068153 6.7343581061883615
Zn 9.039334356709194 6.92741218409148 8.75692481149826
Zn 6.92741218409148 8.979639334965038 8.789757950307283
Zn 8.570063181505695 6.92741218409148 4.60850357689702
Zn 5.006860957071724 8.913562828068153 6.7343581061883615
Zn 5.006860957071724 4.941261540114808 6.7343581061883615
Zn 4.815490011473764 6.92741218409148 8.75692481149826
Zn 5.284761186677257 6.92741218409148 4.60850357689702
Zn 6.92741218409148 8.825743949868988 4.803016538260414
Zn 6.92741218409148 5.029080418313964 4.803016538260414
Zn 6.92741218409148 4.875185033217931 8.789757950307283
Zn 6.92741218409148 6.92741218409148 10.195078223565561
Zn 6.92741218409148 3.3161913681829596 6.8226654601686505
Zn 3.527893500219927 6.92741218409148 6.535879875506069
Zn 10.326930867963041 6.92741218409148 6.535879875506069
