19
Energy = -9.34804247 eV
Zn 7.942044674199591 4.355451875387091 4.051888638746657
Zn 5.267651655799699 9.024854069447741 4.034981286312259
Zn 3.5533417998204015 7.508902208239581 5.3587539690087524
Zn 7.834420725302807 8.844915540037459 4.587302905194949
Zn 8.837704620923816 6.477207931258826 5.299233872870619
Zn 8.984421121991701 4.235609529574095 6.485724691572416
Zn 4.9266037205229285 8.52326033581306 7.378676610145478
Zn 6.443974526805912 7.702140618902751 9.338130876332013
Zn 4.5965675684178455 4.36164818459142 7.679764591814701
Zn 7.482209395822159 7.842197856632113 7.046583382096499
Zn 6.466912820478507 3.5165997751676605 6.091182450501789
Zn 7.151452213146399 5.3484487368646905 8.041779571415773
Zn 6.309491937747299 10.353502571719556 6.044772695995733
Zn 5.312224541791092 4.295366687196301 3.793319070217302
Zn 6.613239126836212 6.639096284782977 3.643513078865625
Zn 3.117200810482298 6.545443172499515 7.7055537127504525
Zn 5.602283277614458 6.114443287468922 5.95639346829113
Zn 7.811897872013889 1.2277098161758706 6.441246160457095
Zn 4.729651140604736 5.893992518951762 9.689493395299204
