10
Energy = -2.94809731 eV
Zn 2.727722778950685 5.313360216830276 4.962270544092945
Zn 5.253634086551703 3.7953914355528124 5.774373002209236
Zn 4.386454183713241 6.658778156285315 6.892459803572644
Zn 8.942376281860618 3.820274147979507 6.8564986307108065
Zn 6.848602615443847 5.343810683420448 7.632338251554957
Zn 9.344153937977081 6.584290583621884 7.050829784562085
Zn 6.761378937906247 8.256741965699547 6.244825946424719
Zn 5.1514060771917665 6.691805848142016 4.368695782280328
Zn 7.636905063838302 5.448095647210385 5.109432091509847
Zn 2.9193054403464433 8.0751642935271 5.075717548054643
