14
Energy = -5.72702402 eV
Zn 8.221384415645922 7.738540794835086 6.641704936494847
Zn 5.1453521116327074 5.52635875559191 7.998684189182173
Zn 6.420360559975516 7.654995536495321 8.670811237818679
Zn 4.085446006844457 7.700560905058237 6.641704936494847
Zn 9.175023911839459 3.5034321182597115 6.641704936494847
Zn 6.548687217016604 3.407289215205915 6.641704936494847
Zn 7.873193468373808 5.542348597334343 5.2408953196482075
Zn 8.071015270525974 10.017106342216218 5.240615557748259
Zn 5.916858736045998 9.482658818911561 6.641704936494847
Zn 5.1453521116327074 5.52635875559191 5.284725683807523
Zn 6.420360559975516 7.654995536495321 4.61259863517102
Zn 7.873193468373808 5.542348597334343 8.042514553341485
Zn 8.071015270525974 10.017106342216218 8.042794315241435
Zn 4.0166259465580065 3.6697688513434383 6.641704936494847
