13
Energy = -4.98930445 eV
Zn 6.724982954765891 9.266799390233556 9.368925072622664
Zn 5.233972490466528 5.444091239589931 7.566779803512865
Zn 5.233972490466528 8.00587466994185 7.566779803512865
Zn 5.186002150753929 6.724982954765891 5.351954728905865
Zn 6.724982954765891 8.995034089887751 5.665837518267421
Zn 8.215993419065253 8.00587466994185 7.566779803512865
Zn 8.215993419065253 5.444091239589931 7.566779803512865
Zn 8.263963758777853 6.724982954765891 5.351954728905865
Zn 6.724982954765891 6.724982954765891 9.618856894429273
Zn 6.724982954765891 4.183166519298228 9.368925072622664
Zn 6.724982954765891 5.4497545343772655 3.382683803961051
Zn 6.724982954765891 4.45493181964403 5.665837518267421
Zn 6.724982954765891 8.000211375154516 3.382683803961051
