14
Energy = -4.87471875 eV
Zn 6.607911269757033 6.607911269757033 8.62004291539442
Zn 6.607911269757033 8.62004291539442 6.607911269757033
Zn 4.5957796241196505 6.607911269757033 6.607911269757033
Zn 6.607911269757033 6.607911269757033 4.5957796241196505
Zn 8.62004291539442 6.607911269757033 6.607911269757033
Zn 6.607911269757033 4.5957796241196505 6.607911269757033
Zn 4.577340539514067 4.577340539514067 8.638482
Zn 8.638482 8.638482 4.577340539514067
Zn 8.638482 4.577340539514067 4.577340539514067
Zn 8.638482 8.638482 8.638482
Zn 4.577340539514067 8.638482 8.638482
Zn 4.577340539514067 8.638482 4.577340539514067
Zn 4.577340539514067 4.577340539514067 4.577340539514067
Zn 8.638482 4.577340539514067 8.638482
