15
Energy = -6.13346032 eV
Zn 6.534728314380036 7.230133449800678 7.653406896621827
Zn 4.9800942805703095 7.354721652645946 9.714219234257081
Zn 9.774572396564828 6.62356477054922 4.226117206394266
Zn 6.375103137051969 3.5544707036333927 7.812238392324167
Zn 8.001879527858694 4.683800897595299 3.689560470148628
Zn 5.201924994686116 4.389640125273417 5.639441563647169
Zn 10.045639324323119 4.30871925051824 5.476136769722636
Zn 3.8259763998888556 7.511409234456055 7.215771308891158
Zn 5.522827573065128 5.233825716802305 3.172765817160608
Zn 4.335050863536769 5.1756014264238415 8.210510336969552
Zn 8.112206518928838 7.88265134047587 5.7698348644968975
Zn 1.736640750757923 8.717732859428835 6.003910948539937
Zn 3.2505615478632275 6.21771927988766 4.984021514253423
Zn 7.739496112354722 5.187946623085682 6.501344373483046
Zn 5.76173853543816 7.153738802672105 5.046478779484914
