18
Energy = -8.32396787 eV
Zn 10.614564122334912 5.268017767898147 8.109399874141832
Zn 9.611565978705066 5.098964240090555 5.7979731681799365
Zn 6.919593822083622 10.416466066506244 8.492114222199193
Zn 5.506577933941591 6.234461038886603 4.338686026023126
Zn 6.4957991931895 10.5616424214635 6.002559213557565
Zn 5.631154919268991 8.677217395736966 4.6657236213891125
Zn 5.409757091061359 5.591604080512796 6.807756787953298
Zn 8.522610588132759 8.130587763515123 9.005138532176678
Zn 10.080416787575068 7.46152918014695 6.907023307708546
Zn 5.6962245581381055 6.302947741408199 9.169940303477455
Zn 7.276295245926037 6.800149982879354 11.111663726579119
Zn 7.915086165324399 7.356580357486423 5.340922461783749
Zn 9.29054447076593 5.760047006214543 10.129456034200203
Zn 7.288942767911582 4.6522102172930255 5.1590673617574
Zn 7.808006702532868 5.171691552042354 7.9122326333797295
Zn 8.714950195121784 9.536265769554378 6.74792186795995
Zn 6.055156906995012 8.770143095054088 10.098784411038595
Zn 5.621810009209745 8.240216105572147 7.3428751965020185
