12
Energy = -4.3777174 eV
Zn 8.09774773269747 5.402484881902643 7.999287023568291
Zn 7.892357233612999 8.353422480620562 7.929905859589484
Zn 5.571419317035104 6.855230814407121 7.926938233841672
Zn 5.6743779178412925 9.371517062449204 6.599459126843532
Zn 7.892357233612999 8.353422480620562 5.2690123940975795
Zn 8.09774773269747 5.402484881902643 5.199631230118767
Zn 5.571419317035104 6.855230814407121 5.271980019845388
Zn 9.765490197397838 6.949643077700992 6.599459126843532
Zn 8.271017836681082 3.0879769025552695 6.599459126843532
Zn 3.3364956035803934 5.69732085597 6.599459126843532
Zn 5.815809948845848 4.517287453453691 6.599459126843532
Zn 3.2072694510849002 8.347487872094801 6.599459126843532
