13
Energy = -4.31304117 eV
Zn 4.509525201611678 4.917489772608031 3.6365029417989354
Zn 4.750509898893015 4.932526673994744 6.260721380055987
Zn 4.93984973869062 4.961585183639022 8.817052503078065
Zn 7.15372968549414 4.9100602292291775 3.448168917553353
Zn 7.356996634129874 4.837633986069604 6.0632917317555135
Zn 7.489500874748424 4.87581441809665 8.83163905627194
Zn 4.511404838980821 7.616731393658204 3.634742793159775
Zn 4.751762979479815 7.603670208622713 6.2594690078005355
Zn 4.940782237619097 7.577762139124083 8.815525957867758
Zn 7.155063981616838 7.620155852943376 3.4456061045607442
Zn 7.35845249993826 7.695487378458641 6.061119738950851
Zn 7.490455948088386 7.660662273601451 8.829814577450481
Zn 9.068464838753977 6.2669198259154495 7.372844603573411
