12
Energy = -4.77442377 eV
Zn 6.823053717154879 8.785061026913088 6.573759825309018
Zn 9.084834489577092 7.38063316551431 6.573759825309018
Zn 7.356851216013439 6.915783464954526 8.458262315172089
Zn 5.2705116222710915 5.375341915691552 7.901340044311386
Zn 5.2705116222710915 5.375341915691552 5.2461796063066455
Zn 7.561793551357644 4.951884206841572 6.573759825309018
Zn 7.536810097756024 4.252848182774647 3.881900650618035
Zn 7.356851216013439 6.915783464954526 4.6892573354459515
Zn 7.536810097756021 4.252848182774647 9.265619
Zn 5.288177459778951 8.578260307099299 4.145822619752891
Zn 4.510735409941282 7.523071763399068 6.573759825309018
Zn 5.288177459778951 8.578260307099299 9.00169703086514
