16
Energy = -7.09334761 eV
Zn 6.58057915847091 6.58057915847091 9.478947737210508
Zn 6.58057915847091 9.886452000000002 5.890547854841012
Zn 8.739245223470828 6.58057915847091 7.571653956027229
Zn 5.320859995537673 8.936107558069162 8.264486014333944
Zn 4.5576862604364345 8.298685820276845 5.591528289435471
Zn 8.603472056505387 8.298685820276845 5.591528289435471
Zn 6.58057915847091 5.16672016439172 3.66787822466715
Zn 8.603472056505387 4.86247249666498 5.591528289435471
Zn 5.320859995537673 4.22505075887266 8.264486014333944
Zn 7.84029832140415 4.22505075887266 8.264486014333944
Zn 4.4219130934709945 6.58057915847091 7.571653956027229
Zn 6.58057915847091 3.2747063169418227 5.890547854841012
Zn 7.84029832140415 8.936107558069162 8.264486014333944
Zn 4.5576862604364345 4.86247249666498 5.591528289435471
Zn 6.58057915847091 7.994438152550106 3.66787822466715
Zn 6.58057915847091 6.58057915847091 6.126101624099233
