10
Energy = -2.61394923 eV
Zn 8.931622106962118 5.690140643306628 6.850634221454212
Zn 8.49853454163992 7.535798136554527 4.868939384398935
Zn 7.470177113735374 4.718329860990871 4.362220260282161
Zn 6.3754434366146215 7.310520862988821 7.035470464800485
Zn 5.795607274109437 4.627240171124493 6.587262250914106
Zn 3.6837997936365587 6.434690339914472 6.792729264909496
Zn 5.3585477321219965 6.524347994441585 4.568575100144226
Zn 4.778746262530279 3.841894905494153 4.11968529325725
Zn 2.221813800960861 5.465642069626453 4.300988679586203
Zn 2.654771407682796 3.6204584855518367 6.282558550246769
