16
Energy = -7.57434352 eV
Zn 7.607561362833478 5.085090953368502 6.309058446518401
Zn 8.827372609921644 9.646272989509285 6.9822180810845245
Zn 4.904356841460171 8.235821135012046 8.215591544779063
Zn 6.558579662553923 8.923622357362266 5.574082359622853
Zn 9.35531196944882 5.809442247156744 4.570578084041964
Zn 5.380734284051228 6.5755175740800915 5.834608450744551
Zn 7.034185878657401 6.7385196930983104 3.8301526604149845
Zn 7.639081065276228 5.431866852626129 8.941419944740458
Zn 6.936474853109367 7.8831370996513215 10.093173898501448
Zn 9.848252720923615 7.077118449692759 6.8497646034025585
Zn 5.1605206991962405 5.987156393875089 9.727643691743346
Zn 9.01479020255404 8.448555395938131 4.648649661783569
Zn 3.611286350824237 5.990471310326566 7.597891562674215
Zn 5.525500503615154 4.211446141760573 7.630953085917811
Zn 7.335984309862734 7.475026008813978 7.496044474891102
Zn 8.459088162129193 9.936534691249493 9.543756800025392
