17
Energy = -8.16105018 eV
Zn 6.509724403138175 3.0675202873422434 5.2588504075570475
Zn 7.348797972792337 4.88248536622603 3.3689571881065197
Zn 4.654874710358956 4.545286007375637 3.814528950924029
Zn 8.730181974483992 4.3257249726145846 5.4754203091377205
Zn 4.192455925281432 1.9964746563723879 4.450133042886432
Zn 5.618083538759936 6.773732179567968 3.0175273439458463
Zn 8.180420500236748 7.461439609626871 7.582607146729146
Zn 6.397497007307346 8.99334825613189 6.104141603689567
Zn 4.330838847409609 4.141945855737504 6.4303188786009144
Zn 8.2430274212244 10.152178422258846 7.709272426853419
Zn 7.486084147687916 6.860436254389045 5.139191896039739
Zn 3.9544366260494943 8.6403681172298 7.1203109122376205
Zn 6.885011847250158 6.195513876447185 9.552012622560552
Zn 4.820048609392506 6.664040206517575 5.6090770451208405
Zn 6.7094180872214215 5.159243907798832 7.109288934256419
Zn 6.048437242039949 8.58843598116371 8.741264802543016
Zn 4.543775286913567 6.406622325547372 8.378831318621184
