19
Energy = -10.54784569 eV
Zn 5.353162480806632 7.786677435766218 3.7244635209210983
Zn 6.430617268767803 5.462289821213062 3.8990339443842053
Zn 7.9517323126693435 7.567079198946517 4.375081650114445
Zn 4.31754768797037 6.021039311629937 5.439598613603224
Zn 4.070040566650576 8.632047080582524 5.845279884669888
Zn 6.422720358088939 9.477887576663832 5.264638316373643
Zn 5.549240302176426 3.6289919643124304 5.435383765333663
Zn 8.112346746627463 4.442856619284811 5.687437786763844
Zn 6.583200851090688 6.586931636619442 6.600651350382541
Zn 9.638211508541355 6.517537361892242 6.071530118523531
Zn 8.409316570713225 5.3952069063190535 8.176897027079647
Zn 9.873694514384356 7.500568657973489 8.437650124178079
Zn 4.1016089348981435 7.032830954358213 7.900148744379975
Zn 4.229629704283 4.45136933075723 7.558953510707246
Zn 5.812041006014968 9.073071387966397 7.76657919532819
Zn 8.27038122254045 8.67248870086804 6.820586588842305
Zn 6.662168330821129 3.6186500615530335 7.689188228383899
Zn 7.423467078532851 7.683483106240355 9.241996346129602
Zn 5.9229205419169935 5.583040874548031 9.198949271396085
