14
Energy = -5.78094123 eV
Zn 6.5828828851420536 9.236812879349525 7.195180579472073
Zn 7.904958192028448 5.8620458185624855 4.792547433785493
Zn 7.2648426402109445 6.71346834572591 7.363303487932833
Zn 6.1193222767490125 7.794889193034855 5.023955927510521
Zn 4.098469281608224 8.921372487629098 6.433441857007913
Zn 9.295642357761768 5.084486990590604 6.915944834596286
Zn 5.77874440418488 5.448479061888315 9.3772230628328
Zn 6.342830380089986 6.482090737146897 2.7372925870677216
Zn 7.905718509179654 3.342732453812744 5.516464312337224
Zn 5.865125334177045 4.20378209466482 7.0236186102469995
Zn 4.377131242292999 6.367039607373365 7.280485798228216
Zn 2.754758709706369 6.962416218411623 5.284667939082691
Zn 4.706027120858817 5.303479900568484 4.667355740596095
Zn 5.4431263655802935 2.8116843512973864 4.838903986399575
