11
Energy = -3.61757394 eV
Zn 8.34235836907765 3.6564858743497637 4.675490680214538
Zn 7.2638236118445665 6.09245162978352 4.146262550223241
Zn 6.586816177310001 4.442332542392881 6.4689380051946275
Zn 6.107413231584314 4.095043321250332 9.17862380566148
Zn 6.112058579014382 8.39060747723306 3.3001970637293336
Zn 6.588854804818395 6.550190930308812 7.994182639748079
Zn 7.306121222188061 8.218702605892437 5.729752326574134
Zn 4.306645851009553 5.2753136600102355 7.515350315209096
Zn 5.019385426270379 6.910996455608555 5.372000665086313
Zn 2.3782617350527593 6.344372493873799 5.854502618011039
Zn 8.407898790254984 8.467394936303897 8.201350434058547
