16
Energy = -7.7363656 eV
Zn 6.608910286817773 6.681901644645043 9.767956046978696
Zn 5.412886812070563 8.819483391726472 8.93962455581379
Zn 5.870059424756172 7.331221029119448 5.257346140860037
Zn 5.87615690513524 9.561264852360736 6.504714806052093
Zn 3.6313176419209308 8.322473726679439 6.917536843987909
Zn 9.773485614273326 6.761810290877447 5.867796286696188
Zn 3.9782527444898914 5.85236188324634 6.149939530938409
Zn 6.123086290238383 4.828924967926886 4.689831509425375
Zn 7.674924956756396 7.85703478434516 7.493303234400797
Zn 6.434616832751148 5.40551349210946 7.349899717049904
Zn 4.288639491254933 6.3751024966827945 8.68282965176465
Zn 8.116704897700153 8.494437718878244 4.923984663453221
Zn 8.973722065222745 5.96556630671324 10.61339410358046
Zn 9.07871933367151 5.550476452956189 8.040800590927146
Zn 8.4368682328404 4.423729712634035 5.813012331465483
Zn 8.13673432876309 6.171720897392751 3.748727524895396
