16
Energy = -6.96858424 eV
Zn 5.3708170382463525 8.871544635403012 10.670264158910364
Zn 4.66790726954943 4.999945753536607 6.038980823240253
Zn 6.649014503871829 4.5171991227562565 7.89331427953908
Zn 6.596485634802304 9.46795025325419 8.37569882819461
Zn 5.04086967375027 7.580319779528376 6.777935648452345
Zn 8.106430594239423 8.180134655279646 10.209829431972878
Zn 7.556743031106147 7.933816840508788 6.106118096042894
Zn 10.528888251313845 7.1706520455389215 6.592817868539977
Zn 8.759997134865067 5.560752896137523 5.720677210425763
Zn 9.31449489108951 9.042740563071764 7.987117517218043
Zn 6.08136443235014 6.767319040560375 9.085329566446715
Zn 8.693634708069695 6.337234695606804 8.353770621331115
Zn 7.759302307326945 10.531631449602367 6.343869365495542
Zn 6.437914564736146 6.211265131098531 4.388007121785373
Zn 3.9405261358888763 7.022874570200732 4.4174277556568855
Zn 6.950320515812716 3.7631371075487388 5.487658903463431
