14
Energy = -6.24731246 eV
Zn 9.493802228595978 7.320696202267701 9.475358210225165
Zn 7.320696202267701 8.605949960534494 8.600840377332915
Zn 9.514099996953316 9.500942700388775 7.320696202267701
Zn 5.127292407582083 5.140449704146629 7.320696202267701
Zn 9.514099996953316 5.140449704146629 7.320696202267701
Zn 7.320696202267701 6.035442444000906 6.04055202720249
Zn 5.147590175939421 7.320696202267701 5.166034194310234
Zn 5.127292407582083 9.500942700388773 7.320696202267701
Zn 9.493802228595978 7.320696202267701 5.166034194310234
Zn 7.320696202267701 8.605949960534494 6.04055202720249
Zn 7.320696202267701 6.035442444000906 8.600840377332915
Zn 5.147590175939421 7.320696202267701 9.475358210225165
Zn 10.912074 7.320696202267701 7.320696202267701
Zn 3.7293184045353986 7.320696202267701 7.320696202267701
