19
Energy = -9.64398664 eV
Zn 8.282891869349653 6.321743564549915 3.2519205783745404
Zn 6.572751990995181 7.392050917090229 6.792136414711853
Zn 5.989561895619766 7.004017739219449 9.51677490464396
Zn 9.192854911397774 7.527921581653271 7.437592407268572
Zn 6.100474145810997 4.877426475771393 5.981088470184196
Zn 8.32317463182189 4.341482521807845 4.866871677430854
Zn 8.573106961653252 6.501263818589551 9.799939114673622
Zn 10.049419509229585 6.02850074952159 5.545501759243861
Zn 5.196747215287812 9.092745135011791 8.147071353393164
Zn 7.9850445244385755 8.963501064001456 9.335922415019512
Zn 8.380643228636572 4.997378677878655 7.454755864323955
Zn 3.7804315351401043 6.328177081135699 5.382672992006693
Zn 6.732836991688136 11.0405700597824 8.20456700786078
Zn 5.979096190952356 7.060644144987552 4.243166153759182
Zn 8.329856574310519 8.131297439834984 5.0193125299692305
Zn 6.122043088062984 4.534786724420973 8.735018790369313
Zn 3.9448527282645474 4.483816088429349 7.318785117216608
Zn 3.8466560524843962 6.99706203044893 7.847777954241854
Zn 8.445934294501498 10.010789016003972 6.700218504058275
