10
Energy = -3.36991825 eV
Zn 8.966136568096518 6.608599403519549 5.464858769231837
Zn 6.945445252624971 5.237458297870226 4.434637207640093
Zn 6.860175343135316 7.620513853588726 6.645190449617792
Zn 8.25614930062446 9.360165030485398 4.982026451569591
Zn 5.958014797586949 3.7680395731579206 8.8837054622409
Zn 5.70073674786035 3.7443297309364745 6.263138222281574
Zn 4.334103814596533 8.349014225988034 6.989879204134825
Zn 5.282550239764742 6.251848709281702 8.305063132514668
Zn 4.48803962030695 4.2775970705129955 3.9433729314249844
Zn 4.679327672735698 6.2563750793183 5.572036180986994
