11
Energy = -4.40928321 eV
Zn 6.716927720144483 4.1148678689230715 4.850018591069692
Zn 7.333087109319864 3.0041342716033794 7.086097899774539
Zn 5.634918267168917 5.399390032420104 2.889675374514356
Zn 7.480129972585401 5.596319257339079 7.1178438735109895
Zn 5.013089526606523 4.0468161069680075 7.256645847934151
Zn 4.034916504019325 5.367184418752509 4.904596784188725
Zn 6.40461609421475 7.004704009735345 4.7419473222881505
Zn 7.512850750055208 10.054541243248469 4.897965891594112
Zn 4.9142771912456995 6.9116828614847945 7.207056800411723
Zn 7.147443846430906 8.137709666852599 6.893481679764281
Zn 2.8317169085753733 5.391984803946675 7.179868185523609
