15
Energy = -4.71229863 eV
Zn 6.683580141638169 6.683580141638169 6.683580141638169
Zn 4.996087333660847 4.996087333660847 8.371072949615494
Zn 4.996087333660847 4.996087333660847 4.996087333660847
Zn 8.371072949615494 4.996087333660847 4.996087333660847
Zn 8.371072949615494 4.996087333660847 8.371072949615494
Zn 8.371072949615494 8.371072949615494 8.371072949615494
Zn 4.996087333660847 8.371072949615494 8.371072949615494
Zn 4.996087333660847 8.371072949615494 4.996087333660847
Zn 8.371072949615494 8.371072949615494 4.996087333660847
Zn 6.683580141638169 6.683580141638169 9.667406760000002
Zn 3.6997535232763417 6.683580141638169 6.683580141638169
Zn 6.683580141638169 6.683580141638169 3.6997535232763394
Zn 9.667406760000002 6.683580141638169 6.683580141638169
Zn 6.683580141638169 3.6997535232763417 6.683580141638169
Zn 6.683580141638169 9.667406760000002 6.683580141638169
