10
Energy = -4.1192219 eV
Zn 8.016865026301812 6.711408406308451 5.3616324588705515
Zn 9.364476102569856 7.243893560443448 7.480312662415008
Zn 6.997588777013786 8.512842706389284 7.0530350935649615
Zn 6.214854355800426 5.938483455232088 3.7741452567640645
Zn 4.731089807800973 7.4515711559546025 7.830953067457819
Zn 7.184778197311219 6.032467474964838 8.03864705706517
Zn 5.182909686580485 8.172727389266147 5.2302242786942434
Zn 5.225275363590165 4.465304932963086 8.074409030092584
Zn 4.658563476162088 5.675677980048339 5.864816577910288
Zn 6.950331195225003 4.3041281224566195 5.891392076383241
