13
Energy = -5.27177102 eV
Zn 9.30577055359324 8.025180505456031 8.052715057709896
Zn 4.426158933507222 5.706748981644426 8.052715057709896
Zn 6.865964743550228 6.865964743550228 8.734297645540398
Zn 4.331329182320667 8.422591731995933 7.971548536289947
Zn 6.903616107059569 9.059805859254205 7.501650833972408
Zn 6.828313380040879 4.672123627846252 7.501650833972408
Zn 9.400600304779793 5.3093377551045275 7.971548536289947
Zn 7.7967704329712255 7.768405949461997 5.563199236584539
Zn 5.935159054129231 5.963523537638459 5.563199236584539
Zn 3.4545284871004602 7.0586565118361415 6.058755242465814
Zn 5.347144275274324 8.542299565713947 5.11375307530279
Zn 8.38478521182613 5.189629921386512 5.11375307530279
Zn 10.277401000000001 6.673272975264317 6.058755242465814
