19
Energy = -9.24020173 eV
Zn 1.7574042740106453 4.986838174483828 6.346254888064129
Zn 6.292496713880818 4.525067508541674 6.396738161063677
Zn 6.20479362391258 4.524582943054441 9.026811190695287
Zn 7.622325879482246 7.0365425574510425 8.876376791808
Zn 9.345000664573014 6.261833796530894 4.418985375138825
Zn 2.3702573770091107 7.531274250737045 5.908412860946966
Zn 4.068822764428032 5.211459613284189 7.639702505520189
Zn 8.55078382392397 3.8053121143080095 5.223334703756439
Zn 8.534361414067062 4.871698893172945 7.756798274771247
Zn 5.086620120111468 6.833098244049075 9.455886911287065
Zn 6.8018393176974845 5.441766170523548 4.064720908534965
Zn 6.351219502133649 7.2612255370337335 6.538653693731686
Zn 7.493902479418453 8.154974703653739 4.2589693277928005
Zn 4.328892831955558 8.420372421442703 7.526943082133465
Zn 4.742384258286364 8.770890528763148 4.9470162982913495
Zn 10.744510396175713 4.892343821799834 6.225016591996025
Zn 5.206100929228192 7.167233590643023 3.0200640271395165
Zn 8.842856219054996 7.509658638655794 6.628802489655684
Zn 4.31727294261467 5.740099006475716 5.076350575631249
