17
Energy = -8.2692873 eV
Zn 4.376736158691873 9.700420522185523 4.790586937575232
Zn 5.210586904216361 9.134716074503086 7.130126425933093
Zn 9.771049188805721 6.186215854516551 6.96934928029658
Zn 6.662079578237242 8.508397329777049 4.864153423954624
Zn 3.5454822161642054 7.036594669246005 7.154014773968646
Zn 8.951308659183503 7.159627899318325 4.765499489887237
Zn 7.373756945514061 7.481125435910419 7.109199439139354
Zn 5.17604697600784 7.514930968228095 9.071492088447048
Zn 8.10518093336026 6.019583309827489 9.120296434838624
Zn 8.906828823229215 4.638298518819013 4.897139739225855
Zn 5.716415249091637 5.335559919255987 7.404336265955227
Zn 6.441764545783977 5.864272769140527 4.90719859511378
Zn 4.1623142275567595 7.1919580117601996 4.599051229752469
Zn 8.10564216147183 4.164134676965115 7.412820410153305
Zn 3.468119263667783 4.969096107199645 5.573124517124876
Zn 6.672835380780421 3.3296814579098815 5.510963842892295
Zn 4.230863222947384 2.557230537652562 5.392194670914362
