14
Energy = -4.32787086 eV
Zn 5.4415772968527785 7.737544289608753 8.95375068345601
Zn 4.639783773027504 8.002107834989953 6.319768226533145
Zn 6.833336276066465 9.349278632146552 7.294728189786661
Zn 6.833336276066465 4.317393919986386 6.3719443623462615
Zn 6.833336276066465 5.091713429322427 8.941734935900753
Zn 9.026888779105425 5.664564717142975 7.346904325599783
Zn 8.225095255280142 5.929128262524177 4.71292186867692
Zn 6.833336276066465 8.574959122810505 4.724937616232175
Zn 8.225095255280142 7.737544289608753 8.95375068345601
Zn 9.026888779105425 8.002107834989953 6.319768226533145
Zn 4.639783773027504 5.664564717142975 7.346904325599783
Zn 5.4415772968527785 5.929128262524177 4.71292186867692
Zn 6.833336276066465 6.807588990882202 10.824080000000002
Zn 6.833336276066465 6.859083561250736 2.8425925521329343
