13
Energy = -5.31694129 eV
Zn 6.5765971047430725 8.736528726619404 8.63511600670669
Zn 7.863755924086546 7.89500142754963 6.378458985199289
Zn 8.498726533930673 6.5765971047430725 8.560978525213251
Zn 4.395520485178859 6.5765971047430725 4.262012183738152
Zn 4.654467675555473 6.5765971047430725 8.560978525213251
Zn 5.289438285399605 5.258192781936515 6.378458985199289
Zn 6.5765971047430725 5.2672691017512925 3.423825047690599
Zn 8.757673724307296 6.5765971047430725 4.262012183738152
Zn 6.5765971047430725 4.416665482866742 8.63511600670669
Zn 7.863755924086546 5.258192781936515 6.378458985199289
Zn 5.289438285399605 7.89500142754963 6.378458985199289
Zn 6.5765971047430725 7.885925107734856 3.423825047690599
Zn 6.5765971047430725 6.5765971047430725 10.218062838204455
