12
Energy = -4.86680468 eV
Zn 6.422238899502786 6.474572700164298 3.0238870886362004
Zn 4.033748918493996 6.462073515727145 4.285095229226938
Zn 4.347086440469246 3.890473696164061 4.924542252901493
Zn 5.456133951007735 8.643032403835646 4.117192789391269
Zn 7.367554045590631 7.601257371248757 5.474287785154373
Zn 6.581630482265443 5.002187458634894 5.218627831387083
Zn 5.214079223890015 2.7824569023408965 7.21035820753516
Zn 4.594357631014134 8.16745833171917 6.6158760007108395
Zn 8.529320179736914 5.576023005403024 6.74947706187186
Zn 6.328860149418371 6.518655162762615 7.681628101451205
Zn 7.448651341649091 3.6316185629136224 8.193717558527267
Zn 4.013133596673383 5.586985748797905 6.842104952918053
