17
Energy = -8.26997748 eV
Zn 7.88457179544096 9.826740553277196 7.206521262448239
Zn 8.860359454621332 9.415079609661134 4.898161869508917
Zn 9.45897108072376 7.639573249525172 6.819747470645066
Zn 8.465827262444583 8.388383731848707 9.314041441172776
Zn 8.351592035918342 6.203467743916341 10.67233587714876
Zn 5.404922571177584 9.560396393337877 6.181012839619456
Zn 9.5133572596833 5.663549174736262 8.483643991172617
Zn 6.378240770591948 8.166242620095034 4.300322056116707
Zn 5.981891370235316 6.939264526506568 9.975803690408926
Zn 8.592217583060588 6.900850560988517 4.417781769240342
Zn 6.451348205795402 7.638043498582495 7.509607670774688
Zn 4.154145403070861 7.267431775917396 5.977877020240976
Zn 6.252833028905898 5.467028893512095 4.525643401670917
Zn 6.991497724590843 4.623555374841954 8.861769009726295
Zn 7.8330707332812315 5.475232335637564 6.524455294938997
Zn 4.699356140132582 5.629158505007731 8.049503644245942
Zn 4.215884385588476 4.664374161277409 5.735889927000919
