12
Energy = -4.01659269 eV
Zn 5.258080898083953 8.085799594841353 7.838443550979642
Zn 8.179423171278048 8.085799594841353 7.838443550979642
Zn 6.718752034680999 8.255552440061658 5.623132471361467
Zn 8.90794594674392 6.718752034680999 5.778569997165727
Zn 8.179423171278048 5.351704474520643 7.838443550979642
Zn 5.258080898083953 5.351704474520643 7.838443550979642
Zn 6.718752034680999 5.181951629300349 5.623132471361467
Zn 6.718752034680999 7.9707699618196 9.95561881209978
Zn 5.4147011623338335 6.718752034680999 3.27830388146178
Zn 4.529558122618079 6.718752034680999 5.778569997165727
Zn 8.022802907028167 6.718752034680999 3.27830388146178
Zn 6.718752034680999 5.466734107542402 9.95561881209978
