14
Energy = -5.5408733 eV
Zn 5.168489266089889 6.477196198281924 5.686255999489393
Zn 6.219036869214146 8.651600910964216 6.6695873367502925
Zn 7.197180110022806 7.509936642749987 3.3183857070092935
Zn 4.495491166657571 7.258142292115219 8.043912184220035
Zn 8.421905399518566 5.659254274060927 8.043912184220035
Zn 6.9385206867095235 7.652218206624008 9.11208314083315
Zn 5.978875879466627 5.26517835955214 9.11208314083315
Zn 8.206134450932769 9.23884450431666 4.988259647633571
Zn 7.748907300086248 6.440200367894222 5.686255999489393
Zn 5.720216456153336 5.407459923426152 3.3183857070092935
Zn 8.790037639579213 8.34067896953068 7.392403909719069
Zn 6.698359696961999 4.265795655211924 6.6695873367502925
Zn 4.127358926596937 4.576717596645463 7.392403909719069
Zn 4.7112621152433745 3.6785520618594845 4.988259647633571
