15
Energy = -5.79824216 eV
Zn 7.458511730651933 8.459138087285618 5.779781230949919
Zn 5.192877189308792 7.34230668572348 5.284497497780685
Zn 7.370969153275886 5.725062107586716 10.010745304272277
Zn 2.6629577659904298 6.243825958019244 5.26416757257703
Zn 3.789014445678579 6.2753384940663945 7.512106908780534
Zn 5.8586886041062884 8.078877342781762 7.717106194439936
Zn 5.240983539039938 4.641696580452391 5.55755045359902
Zn 10.149803892865345 6.1514395135484925 6.00885978139526
Zn 6.2962904967461 4.655276866885986 7.854749895894623
Zn 8.15058325873489 6.710798521768008 7.712834340892613
Zn 7.771115223044074 5.025752772857265 5.646233320922182
Zn 4.156619743470431 5.625973608190434 3.3156010416142383
Zn 5.009893478592202 6.581228103601047 9.68840345997846
Zn 8.768615756551325 7.063539378730382 4.00076419472223
Zn 6.676685282375629 5.7549042959958285 3.2662048665833283
