16
Energy = -7.59829329 eV
Zn 10.271655978477535 7.294863737295178 6.743797662465644
Zn 5.259920810131184 5.41664804053556 8.86691774489173
Zn 7.540095045173104 6.433148119831095 8.136929122298048
Zn 5.840386080997685 8.316877258056673 8.544183874251337
Zn 8.489607273904586 8.896853477828193 8.139069644838305
Zn 7.137226652534977 3.8137027815009543 8.037414947392566
Zn 7.540095045173104 6.433148119831095 5.35066620263324
Zn 5.259920810131184 5.41664804053556 4.620677580039558
Zn 5.840386080997685 8.316877258056673 4.94341145068009
Zn 7.137226652534977 3.8137027815009543 5.4501803775387225
Zn 9.213987671242084 4.846406253352835 6.743797662465644
Zn 4.72807611149383 3.9613448674049865 6.743797662465644
Zn 3.990579303408827 9.278430591160893 6.743797662465644
Zn 6.549046517326956 10.055757387097039 6.743797662465644
Zn 4.612945180094198 6.70950029571076 6.743797662465644
Zn 8.489607273904586 8.896853477828193 5.348525680092843
