16
Energy = -5.62178433 eV
Zn 4.858772586648061 8.185426584030784 6.642255858210579
Zn 4.858772586648061 5.0990851323903765 6.642255858210579
Zn 6.642255858210579 6.642255858210579 4.749315323741368
Zn 8.425739129773099 5.0990851323903765 6.642255858210579
Zn 6.642255858210579 6.642255858210579 8.535196392679785
Zn 8.425739129773095 8.185426584030784 6.642255858210579
Zn 6.642255858210579 9.7062211436317 5.313359291609755
Zn 6.642255858210579 3.578290572789461 7.971152424811402
Zn 9.176375757321932 6.642255858210579 8.842269902197927
Zn 4.108135959099226 6.642255858210579 8.842269902197927
Zn 4.108135959099226 6.642255858210579 4.442241814223227
Zn 6.642255858210579 3.578290572789461 5.313359291609755
Zn 9.176375757321932 6.642255858210579 4.442241814223227
Zn 6.642255858210579 9.7062211436317 7.971152424811402
Zn 2.6189367164211554 6.642255858210579 6.642255858210579
Zn 10.665574999999999 6.642255858210579 6.642255858210579
