13
Energy = -5.24655908 eV
Zn 6.316079448649095 7.513966434038549 7.190979226710317
Zn 5.6792986651539685 2.7656745521431447 5.844050630304049
Zn 6.7321069696789255 3.036772013256502 8.221983933188573
Zn 6.2024142936854645 5.113163065338581 4.530851359024689
Zn 4.412023823338644 6.916468822778566 3.5429553972840244
Zn 6.940697785739202 7.074615809181991 2.8212909623704174
Zn 3.168205694312526 2.915563318741799 6.546715223604032
Zn 3.930405595826723 7.427879006124103 6.080387906045479
Zn 7.714304038869406 5.0252074058909875 6.80733639172394
Zn 3.442585892628375 4.893778523492857 4.85239414833415
Zn 8.011115295718065 7.04383458202582 5.225006948181727
Zn 5.991252502333414 8.655290225281854 4.725684044818448
Zn 4.989003362107114 5.1472796097459055 7.1398571964513575
