11
Energy = -4.27060208 eV
Zn 4.07344306417348 6.640524654988615 5.563381508609296
Zn 3.4147937392736942 4.548455360101431 6.98673487322915
Zn 5.595513346378366 5.806348780567298 7.568125121658973
Zn 5.659456002372233 8.590641627812701 6.300815314438899
Zn 5.437117147961089 4.311918952103866 5.310525970580051
Zn 7.222434164068312 5.255897061448051 3.750532166351435
Zn 7.7536481819216085 7.323041499595012 5.292482954623086
Zn 5.598921488908993 7.535884050001882 3.7238212328121003
Zn 3.918575849864144 1.870069762436073 5.322040795970546
Zn 7.882640699758251 4.878183419112317 6.387473468826571
Zn 7.564628707268572 7.336932326017861 7.89747438503054
