19
Energy = -10.10567315 eV
Zn 3.9706775163855745 6.848402032254 8.584271332351804
Zn 6.127490333263144 5.3618404941295905 8.725041970834125
Zn 3.942753301772061 5.215603003397304 6.675734720280829
Zn 4.84081052570464 3.563247928354626 4.774313987238174
Zn 4.451312563800017 8.020107999801008 5.960231223489357
Zn 6.502940560513458 3.8376927842702684 6.633807740256813
Zn 6.611008131398398 7.934311317661679 8.697148624135988
Zn 4.531757348168814 9.37908540093043 8.12989560787228
Zn 8.622507178271686 6.536604586072661 9.488689321761893
Zn 8.488008535868367 4.267214120999655 8.354053467785905
Zn 6.583528543658779 9.769490742828033 6.6803852695298165
Zn 5.03576726188295 6.079342706518712 4.389355828929608
Zn 8.720116107918956 8.24412149496727 7.2790970879908885
Zn 10.151326964051087 6.098784697965705 7.412387241432753
Zn 6.751595683709719 6.560657577527753 6.362947558640162
Zn 8.358700499705295 9.676828157857365 4.870356496238169
Zn 6.427038111476378 8.24970608342687 4.050415622726372
Zn 8.629033698082266 4.840873062838865 5.718326620294255
Zn 8.981210232584104 7.174625714184961 4.874482555817069
