19
Energy = -9.16022647 eV
Zn 8.36064811040137 9.792921588765038 5.734831088284433
Zn 4.8796484194310645 4.894838107062956 4.5299068161530816
Zn 6.839983849271608 3.302946758489729 8.501213538486144
Zn 7.413408750684002 5.388732489263105 3.487090312017796
Zn 5.140993981866891 5.055952705235086 9.2372344422867
Zn 7.984297033587437 5.560616406205271 8.60105270548432
Zn 5.188464750840684 3.336697351930101 6.551819847728226
Zn 7.181136047578834 5.077930556105599 6.007264616690876
Zn 3.7937709572149636 7.562497012690783 5.110015640369544
Zn 8.268029540239361 7.673146872985801 4.189206748455969
Zn 5.444285257588007 7.079336270880157 3.189075453116905
Zn 3.430499357018972 5.228838953075866 6.756152981217144
Zn 10.331047030826992 6.119384582558528 7.213008651596025
Zn 5.6175405308482915 6.864926853346062 7.3154792291419986
Zn 6.079070237270834 8.630568790429487 5.468747325626262
Zn 3.3451659811402097 6.912609317179639 8.765240144913216
Zn 1.76813491341483 7.585012219251607 6.653061534481302
Zn 8.109580173081735 7.5874850773632465 7.070046294492523
Zn 9.707650716433854 5.4691582222881125 4.872367488370102
