12
Energy = -3.52891269 eV
Zn 6.403540960104457 8.332552633392927 6.403540960104457
Zn 7.844056093691251 4.963025826517662 3.9484889202089164
Zn 7.844056093691251 7.844056093691251 3.9484889202089164
Zn 6.403540960104457 4.474529286815989 6.403540960104457
Zn 8.332552633392927 6.403540960104457 6.403540960104457
Zn 7.844056093691251 4.963025826517662 8.858593000000004
Zn 7.844056093691251 7.844056093691251 8.858593000000004
Zn 4.963025826517662 4.963025826517662 3.9484889202089164
Zn 4.963025826517662 7.844056093691251 3.9484889202089164
Zn 4.474529286815989 6.403540960104457 6.403540960104457
Zn 4.963025826517662 7.844056093691251 8.858593000000004
Zn 4.963025826517662 4.963025826517662 8.858593000000004
