14
Energy = -6.41165356 eV
Zn 9.026899114104177 6.527351072868807 5.279487331248438
Zn 5.390243539873113 9.698458786414559 6.526645173172189
Zn 6.315447626277555 4.111987563041463 6.545493583571314
Zn 4.310394108877553 5.685125181175879 6.479620170268826
Zn 7.837022698741277 4.384639556054516 4.357460037989235
Zn 6.3953196829002055 6.44227124791744 5.016995526212571
Zn 3.3008749003724005 8.093036768471977 6.399244831082272
Zn 8.966986586136711 6.549313466857466 7.923654936258188
Zn 6.306413558575075 6.455515176832624 8.049255087099649
Zn 9.009294123800059 4.181827325242502 6.634423498655297
Zn 7.714550664424037 4.42685483683279 8.836197188198424
Zn 4.792562079947922 8.369993416636815 4.155099449258527
Zn 4.557348649241474 8.303083014293664 8.776090864830538
Zn 7.605176170606239 8.29907609123689 6.548865826031927
