13
Energy = -4.92252853 eV
Zn 4.80953791424979 7.884418464117844 5.522406609963594
Zn 4.809531237317965 2.34730425166432 5.522407722785459
Zn 4.188963608204711 5.11586413994612 5.798660889991491
Zn 6.909788413616579 3.7089774620902753 4.792300775520923
Zn 6.90979175208243 6.522736351116439 4.7922940985891005
Zn 3.0769419915960037 3.8474032169053736 3.558475451448261
Zn 3.0769475557058357 6.384320611698899 3.558482128379961
Zn 6.143104394538424 3.6467745530289206 7.278542065047897
Zn 6.1431088458262675 6.584917003738462 7.278536500938316
Zn 5.3043633220402455 5.115865252767986 3.0636272843454515
Zn 3.560880133236769 8.892068987186741 3.5200035296349093
Zn 3.560876794770918 1.3396570670615104 3.5199968527029584
Zn 8.01231194317816 5.115840770684918 8.300414335481525
