11
Energy = -4.5668298 eV
Zn 8.352650072863764 5.616761208644915 6.514765191247124
Zn 5.542442028096529 5.5390307578133 7.296294663644455
Zn 6.465658173602421 4.5494310400109805 4.999536631187884
Zn 6.606630900339306 8.860195781627437 5.652246546811721
Zn 5.029650658247345 6.746163590755525 4.992526540739838
Zn 3.1830787888457377 4.2336780268071665 7.678520044948378
Zn 9.111052159741766 8.140501801803405 5.979501998866976
Zn 7.628375563508575 6.755929459716251 4.241413578528952
Zn 4.743387409322071 8.060194994868093 7.273172535374954
Zn 7.296030980598359 7.686865511194942 7.932023275708688
Zn 7.537901157340152 5.308106151698583 8.936856236795938
