11
Energy = -3.61792216 eV
Zn 8.249877106060278 6.0573824742869 6.380624924672733
Zn 6.591988837806257 6.951553262802473 4.51762474454617
Zn 7.992710275850845 8.748443461464095 6.141101584535179
Zn 6.904522432776573 4.3857926201223325 5.028214022637357
Zn 6.615958044913907 4.429017263402453 7.666665618081421
Zn 6.852763598071279 6.985537739226387 8.430208952422738
Zn 4.437426598796946 6.0255150353235365 7.832224364638478
Zn 5.047231222743881 5.003437112979729 3.100053586712142
Zn 4.507832161675877 3.9869153849110885 6.067501926369514
Zn 4.1164806846298605 6.432210913850461 5.221702314413011
Zn 5.382597925440489 8.162738227908442 6.556867450053441
