12
Energy = -3.65835853 eV
Zn 6.554346203015794 9.470131 6.631822522219875
Zn 7.6919908326081865 7.453188972648672 8.137726492573995
Zn 5.608661000096833 8.76784574009689 9.10576799232696
Zn 7.654984044342916 4.495799304342862 4.157877052112791
Zn 5.608661000096833 8.76784574009689 4.157877052112791
Zn 5.571654211831565 5.810456071791076 5.125918551865755
Zn 6.709298841423958 3.7935140444397493 6.631822522219875
Zn 7.654984044342916 4.495799304342862 9.10576799232696
Zn 4.628975471010388 7.653033238309457 6.631822522219875
Zn 5.571654211831565 5.810456071791076 8.137726492573995
Zn 7.6919908326081865 7.453188972648672 5.125918551865755
Zn 8.634669573429358 5.6106118061302945 6.631822522219875
