14
Energy = -6.11621619 eV
Zn 7.352383080956307 7.074892852688511 2.9665124574850514
Zn 6.741600344179152 7.9673786194797644 5.295869290796509
Zn 4.866239605909281 6.394737960400506 2.7098572418458637
Zn 4.082162447713496 7.339783041547936 4.994557244203373
Zn 6.607723203212413 4.630802607836495 3.5717035226786575
Zn 5.199076291793584 7.322484721992139 7.316947896035569
Zn 3.0331174702766934 4.987709032157574 3.915678884615146
Zn 8.2609909217727 7.566842648205276 7.5812665598843845
Zn 4.3540829140659545 5.281163295192027 8.785967520608573
Zn 6.741638102000411 6.270429269551905 9.249764692425586
Zn 4.625951502574435 4.964737585462391 6.03186895341023
Zn 6.598819603021202 3.3171915733721162 5.807405889822012
Zn 7.562086505005451 5.604142833537998 6.0101420949960245
Zn 6.520643351422195 3.8115986039788874 8.383229943817325
