12
Energy = -4.16155886 eV
Zn 6.633555793708548 9.979990999999998 6.602739189836203
Zn 7.562821045936289 7.559184108341093 8.241388205393498
Zn 5.663346150084733 9.195244925401349 9.001989684440131
Zn 7.542132229587673 4.010233454271063 4.203488695232274
Zn 5.663346150084733 9.195244925401349 4.203488695232274
Zn 5.642657333736114 5.6462942713313105 4.964090174278908
Zn 6.5719225859638595 3.2254873796724035 6.602739189836203
Zn 7.542132229587673 4.010233454271063 9.001989684440131
Zn 5.140363764491732 7.747226110682537 6.602739189836203
Zn 5.642657333736114 5.6462942713313105 8.241388205393498
Zn 7.562821045936289 7.559184108341093 4.964090174278908
Zn 8.065114615180676 5.458252268989866 6.602739189836203
