16
Energy = -5.49168664 eV
Zn 6.548233869441239 9.06845246051754 6.763526941448458
Zn 6.548233869441239 4.028015278364936 6.763526941448458
Zn 6.548233869441239 6.548233869441239 7.891210227250935
Zn 4.463841248206415 5.1915704467350325 9.005185885345748
Zn 4.463841248206415 7.904897292147448 9.005185885345748
Zn 8.632626490676062 5.1915704467350325 9.005185885345748
Zn 8.632626490676062 7.904897292147448 9.005185885345748
Zn 5.1915704467350325 8.632626490676062 4.091281853536727
Zn 7.904897292147448 4.463841248206415 4.091281853536727
Zn 6.548233869441239 6.548233869441239 5.205257511631544
Zn 5.1915704467350325 4.463841248206415 4.091281853536727
Zn 4.028015278364936 6.548233869441239 6.332940797434016
Zn 9.06845246051754 6.548233869441239 6.332940797434016
Zn 7.904897292147448 8.632626490676062 4.091281853536727
Zn 6.548233869441239 6.548233869441239 10.531439999999998
Zn 6.548233869441239 6.548233869441239 2.5650277388824767
