14
Energy = -5.5752066 eV
Zn 4.647273173917008 5.254437299437909 3.934315825764497
Zn 4.680104658499998 7.866467068618491 3.911780194443347
Zn 4.764230481232889 5.271145471754607 6.421550065678904
Zn 4.754081007313931 7.90902635265224 6.400901585999101
Zn 5.376038362605226 5.156501167966665 8.808607888851341
Zn 5.380471532162866 7.968129729090136 8.792917624937235
Zn 7.168863379268137 5.042686286120789 3.9105557222591205
Zn 7.196536160730248 8.091615760504082 3.8899802079822163
Zn 7.3011289162883 4.920379804804353 6.8071241884707385
Zn 7.290339971395065 8.20469098636202 6.80569788063931
Zn 7.755984089290116 5.256237748663846 9.508268173789428
Zn 7.759835681094414 7.890910783994333 9.513195280140136
Zn 9.222671677255065 6.5698011076406795 7.880038371361637
Zn 8.673725403841157 6.569254927284676 5.386351561219315
