12
Energy = -5.22052 eV
Zn 5.960633673380333 4.394876428187519 6.535742701010395
Zn 8.741955438106057 6.828259993116993 5.241526825151873
Zn 7.39423186815413 4.665493702715423 8.785977281316912
Zn 8.706046590420707 6.821090242572761 7.896364077654096
Zn 5.152231119676438 10.073829970607116 6.558456796378068
Zn 7.30708484980726 8.606980016211864 6.549710564586246
Zn 6.081201613268171 6.7234165128634364 5.133967606510581
Zn 3.0528832636529573 8.538832272761338 6.549726815107338
Zn 8.705754980898014 4.463276813619625 6.56546618968295
Zn 6.061171713950482 6.734941725747878 7.954008849269454
Zn 3.9861616891499 6.0977982007567215 6.536345513051967
Zn 7.471936152817215 4.672497074120867 4.313999733561393
