11
Energy = -3.73245827 eV
Zn 5.516098408620924 5.959432604044802 7.317924248687404
Zn 5.507881125807879 5.926556110917176 4.730101444247401
Zn 3.4395396351154766 7.565066513166752 6.111230867170092
Zn 6.556345164806856 3.798683277653117 6.022414572033909
Zn 5.953557135934038 8.29745165481725 6.043991154522725
Zn 1.9879070851443192 5.477717207105498 6.033189628396984
Zn 3.9403368092994797 3.8532822573581074 5.965125753009979
Zn 7.981109203227632 6.443070613885266 8.352077919775173
Zn 8.006529635090954 6.229031383581821 3.709775169772027
Zn 8.89177292392256 5.1083064895227634 6.0566402138774995
Zn 8.560165872571261 7.682644774666862 5.998772028048463
