18
Energy = -8.47471323 eV
Zn 6.952753150949871 9.70824311890277 5.065119427434453
Zn 7.818861441551201 3.929795856410054 7.325805222068618
Zn 8.037631172586632 4.6624105188762295 4.866399318834872
Zn 7.950510871501353 7.319994802843365 5.443719467135759
Zn 4.390480339231899 7.313611673008872 7.584769318703458
Zn 7.681858996636289 9.514107254952402 7.568611832086347
Zn 5.220699922291137 9.57821532354013 2.865153386904196
Zn 9.949219521388244 5.712888275852097 6.177015546243286
Zn 5.701716603983352 8.851388057930553 9.240907000662322
Zn 6.954576148509684 6.835192646422002 8.028118807787436
Zn 8.19732875015369 6.687658113003771 11.351769496452585
Zn 5.069868921081485 9.8220172360104 6.891105534087613
Zn 9.583079687765725 7.78601867262044 7.612206210183098
Zn 5.226953105514128 7.7930844391935965 5.067568098953841
Zn 5.895517278973581 5.429701356774059 6.0905555805159
Zn 8.287038549842961 8.859550385983665 10.018972480750525
Zn 9.594386598286476 5.48903776316329 8.814880783176081
Zn 7.233918949195943 4.96289780909049 9.713564315064867
