17
Energy = -7.90964111 eV
Zn 8.224945593709476 4.450296604257822 7.187416168855978
Zn 4.985324844864081 6.819423400045754 8.514122828005489
Zn 8.216510556382879 6.5531725546944095 4.373745183778586
Zn 7.283310006080422 8.832682324169605 5.22678525503607
Zn 5.202010861177518 8.787609732593024 6.902979495557305
Zn 6.619475470561154 6.5252298585568305 6.451877013577869
Zn 3.7137050912043 6.661202820728911 6.196321973934861
Zn 8.95595528313801 4.131878347575298 4.6103898741051275
Zn 4.866061231377034 9.682852051517104 4.493688361802847
Zn 3.3885168242877843 4.834753755537644 8.53682487208585
Zn 8.420601039017189 1.7213798267899603 7.367160599697016
Zn 6.091960506286768 7.584819909719841 3.170808911241428
Zn 6.549563279194191 3.406503095054625 5.4724954155336825
Zn 5.907659365493252 4.262600247724456 8.326882518251479
Zn 5.138470360515913 5.421679425714867 4.365298488775514
Zn 3.5432492091253556 7.592871068709827 3.817541729736813
Zn 4.112446863106705 3.8925234942166593 6.268863740115861
