13
Energy = -5.78039334 eV
Zn 9.116350627516386 8.405488517116556 7.664841037883935
Zn 7.762159715978745 5.1742930762571815 8.071103484364867
Zn 6.697159285567772 9.228684061462966 8.570401827642232
Zn 6.8318909702641815 4.192444222376754 5.889406982725998
Zn 5.339191366558744 5.822136095610156 7.515607104587108
Zn 4.179243695005247 3.9443036638262314 6.1002968341419095
Zn 7.9361985568406315 7.210330773448064 9.731404371170198
Zn 5.3833631520384335 8.27345041072172 6.530386679388852
Zn 3.7544417971469453 6.474433313066115 5.499616930776687
Zn 7.57459574088151 5.497853030543035 3.702566294163951
Zn 5.117193576555143 4.826324501245511 3.850393879973876
Zn 7.646334572784482 6.7906922492240795 5.965951090427285
Zn 5.865414289038218 7.426688604507087 4.147488257833501
