16
Energy = -7.5913963 eV
Zn 4.0651145967826965 6.394850537192568 3.182168537740531
Zn 6.553651978567493 4.637796711472696 3.16743251387035
Zn 4.065556457881202 8.460945810126475 4.74850997475489
Zn 6.372606852533111 7.07103230380029 4.5357297042803415
Zn 8.623469104737879 5.340786346151164 4.548942506009593
Zn 2.442613574981375 6.406596770489148 5.26722414354392
Zn 4.74843167685376 4.793556009190426 5.171563577469157
Zn 7.108636773378938 3.1966024385772984 5.21102886215519
Zn 8.408284253194752 7.129992483411667 6.400995414965586
Zn 5.9074169219353525 8.940040476247338 6.500894572157635
Zn 8.244626652858123 4.702650223244648 7.1714014361430705
Zn 5.925103006819811 6.441818166265171 7.293313705150333
Zn 7.701993478730686 2.0728423922694272 7.568416644393168
Zn 5.7591890573988085 3.8522540741733997 7.382100615028536
Zn 3.5638779145010866 7.998862579391036 7.316211728397094
Zn 3.404486360976146 5.454431340128163 7.429124726071516
