16
Energy = -6.89662211 eV
Zn 6.161607836143195 6.166396018671362 6.251390747583963
Zn 5.138061298874169 7.497162494498865 8.605351749992831
Zn 5.566842976247168 4.595072172180351 8.596895455976316
Zn 7.845493150117958 6.409069276624672 8.579599514945238
Zn 5.798373980423258 9.060304080956747 6.607780099751592
Zn 3.6065152830002623 7.50605263446564 6.425984975868937
Zn 3.848503881787477 4.405485338992405 6.618218508436733
Zn 6.290415518966564 3.287192843047509 6.401865146635
Zn 8.8643712314751 5.030414561306753 6.589143603748711
Zn 8.61249705270874 7.692071783736949 6.379141320262422
Zn 6.801881919946891 7.674037029140064 4.082752881752697
Zn 4.524030401125183 5.974077783521817 4.09203773562498
Zn 7.147301767186694 4.879111403394608 4.0725001785952175
Zn 7.780248989006662 9.81665387609466 5.1327368566328815
Zn 8.51460214443259 2.960991686202822 5.095683210834078
Zn 2.182602649423528 5.729257097954667 5.152268094148978
