15
Energy = -7.24724822
Zn 6.04902460926718 5.976315450024318 4.5174602665836145
Zn 3.6992669371443774 5.115792244052917 3.7779119042025098
Zn 4.800848177729916 4.056102759442254 6.056780882308787
Zn 7.390831998047174 4.116025861452698 6.046941519499646
Zn 3.709099058157206 5.1172910649429975 8.340504690058657
Zn 8.255509698374684 7.693177105642768 4.683356355869224
Zn 3.77396781871568 7.589592748634706 7.419147096616367
Zn 6.058988282445792 5.97444127111822 7.588084212470029
Zn 9.551083377758422 5.72408524845883 6.037842164320627
Zn 3.7651321433467015 7.589063599258705 4.693216417557921
Zn 8.43239231556582 5.224660977029555 3.7593478787798005
Zn 8.266908490455007 7.691585195363533 7.4108842235479075
Zn 8.450308415568658 5.221693030292835 8.325960990619947
Zn 2.566948994567829 5.560735209595302 6.063005299118917
Zn 6.003956808926101 8.123705360761445 6.053823224515778
