11
Energy = -3.23116835 eV
Zn 8.697983935581735 6.8194001872745025 5.907921408856331
Zn 8.103347364706977 4.560301348109101 7.2814550675912715
Zn 7.7740231047369575 4.054623272967881 4.603301534446998
Zn 6.164680694390173 8.901706493219498 5.947405898284637
Zn 5.6019960669509485 2.9409198182795886 5.808317030872532
Zn 5.934587163461911 5.923348450691683 5.929540659879813
Zn 7.18842605884004 7.472023570859792 8.064439312825725
Zn 4.680723150525431 4.443123286517811 3.7320825101494326
Zn 3.7473736788361545 7.29254569437381 4.668404383339271
Zn 4.102768830284904 7.796222314339176 7.319414012801073
Zn 3.151485305923823 4.927320848285746 5.928429045908904
