10
Energy = -1.72632067 eV
Zn 4.447480207847293 5.8530877158938495 7.76000518039603
Zn 6.535956525950701 4.3806554419014025 7.756920721343104
Zn 8.624432844054107 5.8530877158938495 7.76000518039603
Zn 7.808590784221175 8.274166064724277 7.747916826693232
Zn 5.2633222676802225 8.274166064724277 7.747916826693232
Zn 4.447480207847293 7.218825336007555 5.311907871505367
Zn 5.2633222676802225 4.79774698717712 5.323996225208167
Zn 7.808590784221175 4.79774698717712 5.323996225208167
Zn 8.624432844054107 7.218825336007555 5.311907871505367
Zn 6.535956525950701 8.691257610000001 5.314992330558294
