11
Energy = -3.89973503 eV
Zn 6.1578646418162055 9.061992513329054 6.912670054908302
Zn 3.9567751415282335 7.381132688661262 6.6242032948427045
Zn 8.583451138138242 7.52621903105038 7.145037955221197
Zn 4.9460061025109745 4.667582718905089 6.642709257733463
Zn 7.7223181226856825 4.801087122288709 6.9478939631810555
Zn 6.28589885516279 6.664817169142764 5.324902396582206
Zn 5.930500788062727 6.564860308316117 8.355487706919988
Zn 7.3971914621921995 8.64905048900818 9.369169403332263
Zn 8.403883160643895 5.928938232402821 9.37675802235826
Zn 7.918788207455508 8.81434940080437 4.802716505514564
Zn 8.91590286133021 6.07200737716922 4.81103788097352
