19
Energy = -9.0405725 eV
Zn 9.999475029293178 8.828224324677489 6.867961246805901
Zn 8.326298898649792 8.527350168309765 4.721995848890902
Zn 7.461097985508293 10.117929511925121 6.604131345985076
Zn 9.540323351487352 6.459565650561241 5.7606667492442005
Zn 7.158578343681533 7.636136909042315 9.656196414516064
Zn 7.780240176627623 6.119807183941298 3.6627706451977153
Zn 3.059295619938315 5.654510494844057 7.900237355802138
Zn 7.752711545939337 4.55002996821914 5.7565126746079365
Zn 5.794840677640465 7.777706347371096 4.481596376831477
Zn 9.862476709210748 7.567755929184179 9.230331258912274
Zn 3.170456045402912 4.016270156055688 6.007161095604267
Zn 5.613974582620374 3.114331476259977 6.268174809849983
Zn 6.790071657917552 7.630593415436226 6.943308823525044
Zn 5.197604152425586 5.3181724330657385 4.835015881797037
Zn 8.57838820166462 9.774241877878792 8.944823195541755
Zn 8.385374796085639 5.8829458114024575 7.961287803552917
Zn 5.7940082974909295 5.195010882440001 7.832974198428903
Zn 4.120158521273946 7.564935885192515 6.491514695505478
Zn 4.62800593563631 7.302891540588893 9.076010092962902
