16
Energy = -6.7311814 eV
Zn 5.734047725814768 9.02499765776024 8.535738799265259
Zn 7.974175182645465 7.488146152676049 8.286548128830745
Zn 10.062460293922179 8.587932425269729 6.902685349202921
Zn 3.7429104044836645 5.217438273136113 6.902685349202921
Zn 3.9328479962400826 7.856548705123103 6.902685349202921
Zn 5.83119551576037 6.31722454572979 5.518822569575093
Zn 8.071322972591071 4.780373040645595 5.269631899140577
Zn 9.872522702165757 5.948821993282733 6.902685349202921
Zn 5.734047725814768 9.02499765776024 5.269631899140577
Zn 7.974175182645465 7.488146152676049 5.518822569575093
Zn 5.83119551576037 6.31722454572979 8.286548128830745
Zn 8.071322972591071 4.780373040645595 8.535738799265259
Zn 5.246105094646091 11.143653000000002 6.902685349202921
Zn 8.559265603759753 2.6617176984058433 6.902685349202921
Zn 6.037486286309591 3.947431642020403 6.902685349202921
Zn 7.767884412096242 9.857939056385428 6.902685349202921
