19
Energy = -9.08777668 eV
Zn 4.795625446655654 7.6913500018294245 8.641933647243315
Zn 5.894019220483165 4.194158751102457 8.40122503617978
Zn 3.259645013513267 5.88703304392661 6.784799164989524
Zn 5.943818155087374 8.347367242906229 3.478780155461133
Zn 6.809866359214433 9.0907814352405 7.728651611636293
Zn 3.8439364998707197 5.433945075455633 9.242772260853195
Zn 4.353282580931235 6.437734333262753 4.462934842198417
Zn 7.684893838930436 9.18858993683203 5.088510777780085
Zn 9.031453475203937 7.098286295963792 6.381273976264696
Zn 2.3561627080843044 8.01813309567682 5.388704743806699
Zn 10.364076576511403 3.362492479873905 7.260830739849266
Zn 6.475804483241146 6.554381593501043 7.020943674642696
Zn 7.332498799419615 3.0175268248156835 6.525702300323971
Zn 4.82070322681003 8.704686767438638 6.067945877027362
Zn 9.128182810908873 4.687262881625349 5.296022914965225
Zn 8.412321372557361 4.930995292335219 8.054407583771027
Zn 9.241530017792652 9.541724580846225 7.128317751610407
Zn 5.353816873675183 4.457129362954812 5.698061195099203
Zn 7.241217518246089 6.310005817182351 4.432562016474778
