10
Energy = -3.11902986 eV
Zn 6.362388561299488 8.931308180031559 3.559789196956145
Zn 4.5178184474089 8.986603524496191 5.4055791376617925
Zn 5.652762380741154 6.397889835673805 4.421755453257197
Zn 7.751213702701632 6.086728686922201 6.165143502299829
Zn 8.411613036028099 7.348551752491433 4.04355961755267
Zn 5.638472324032452 4.460521217591414 6.881314684904593
Zn 8.459830998697734 4.058712798173228 7.602518156884061
Zn 5.532794359282538 7.252194843593124 7.035275473936932
Zn 4.888334618239724 6.134823679096836 9.253602280182953
Zn 6.589917197405235 4.147811107767717 9.436608122200898
