18
Energy = -8.99140053 eV
Zn 6.590263631753037 9.644855095053739 7.1463402852786
Zn 4.413843487650331 8.766683775855741 6.028223620827158
Zn 3.5356721684523333 6.590263631753037 7.1463402852786
Zn 4.413843487650331 4.413843487650331 6.028223620827158
Zn 6.590263631753037 3.5356721684523333 7.1463402852786
Zn 8.766683775855741 4.413843487650331 6.028223620827158
Zn 8.434961213698845 6.590263631753037 4.660449524631231
Zn 6.590263631753037 4.745566049807227 4.660449524631231
Zn 4.745566049807227 6.590263631753037 4.660449524631231
Zn 9.644855095053739 6.590263631753037 7.1463402852786
Zn 6.590263631753037 8.434961213698845 4.660449524631231
Zn 8.766683775855741 8.766683775855741 6.028223620827158
Zn 7.894452677257627 7.894452677257627 8.527261350765027
Zn 7.894452677257627 5.286074586248446 8.527261350765027
Zn 5.286074586248446 5.286074586248446 8.527261350765027
Zn 5.286074586248446 7.894452677257627 8.527261350765027
Zn 6.590263631753037 6.590263631753037 2.8011967545263254
Zn 6.590263631753037 6.590263631753037 10.37444949102025
