13
Energy = -5.57148694 eV
Zn 9.20923560246464 4.6888752276813 7.449952875158728
Zn 8.863420912892485 5.281830174707969 4.952008278492195
Zn 7.778836018576185 6.546726913723412 8.433730691353155
Zn 7.259460239929582 7.242040419292839 3.650041249307146
Zn 7.271610466875839 3.3409391215113007 6.402411179411995
Zn 7.228954340648949 7.609226778207844 6.136140155215802
Zn 5.620042079405356 8.079110226009076 8.143951538287888
Zn 5.50669177235683 5.517289352791029 7.671337475249854
Zn 4.760898864898714 8.201348080952409 4.413060837312565
Zn 5.871548267468244 5.504523551951088 4.814832113767577
Zn 4.545632464478338 3.811101988302101 6.1001188304112
Zn 3.6253447069760223 8.640254374122224 6.670768361032938
Zn 3.160410570427445 6.236382564189543 5.8405436924545695
