15
Energy = -7.23805889 eV
Zn 4.461607966476482 5.440683333344651 3.0231076630919365
Zn 6.998067923835445 5.142207898053725 3.341353252940481
Zn 5.521975471250947 3.1873904768835635 4.161409923068012
Zn 5.983436065881682 7.145306581844709 4.739993081083663
Zn 3.3415723189433124 6.810395465302784 4.903331444513866
Zn 3.194301632902948 4.24847515102889 5.147336708662237
Zn 8.567908089845384 6.842265981236534 5.205271332212919
Zn 4.912919444331095 8.46502953340159 6.763760177311761
Zn 7.476032968365176 8.689726017855396 6.639091407190565
Zn 7.119913060020501 4.728576151521387 5.9674342408630805
Zn 4.638249226126754 5.859331081974238 7.017685848380859
Zn 5.018288033455756 3.2636992994215452 6.688427986512154
Zn 8.5678762137453 6.417987045427963 7.741456525820329
Zn 6.236231643451942 7.474690132549169 8.75136669897847
Zn 6.611444590528429 4.934060499314726 8.55879835853124
