13
Energy = -5.25714484 eV
Zn 5.959689029893222 8.531201653090003 6.93264007666897
Zn 8.252595615930112 8.741052659973944 8.506699897853165
Zn 7.170730028908722 8.849881851642666 4.454868474668315
Zn 9.11184863816854 6.362925133614475 7.3697507962536815
Zn 9.156464999999999 8.624216017665919 6.087126988723035
Zn 6.564765193293561 6.564765193293561 8.495356267087113
Zn 7.1698413566939 4.598328733497122 6.93264007666897
Zn 5.35156732065983 6.932996930047876 5.072209388697433
Zn 7.77796306592729 6.1965334565392425 5.072209388697433
Zn 3.9730653865871197 4.5053143689212 6.087126988723035
Zn 4.017681748418587 6.766605252972656 7.3697507962536815
Zn 5.958800357678403 4.2796485349444655 4.454868474668315
Zn 4.876934770657016 4.388477726613181 8.506699897853165
