14
Energy = -6.0720287 eV
Zn 4.7103855655173215 3.1318168011506384 5.686849082557751
Zn 5.625017560589386 4.142363585663683 3.25387883929002
Zn 6.074939318083195 4.032988184661793 8.183574187666649
Zn 4.514025999481645 5.7012571187993375 6.785909097013726
Zn 3.269374536319214 4.803651485579194 4.314817670369588
Zn 8.208885300799825 5.548272380917746 8.028395317505101
Zn 7.988653130593833 8.144465849095411 7.8294122763951615
Zn 6.458721221317893 6.7038227502195324 4.016714609097225
Zn 4.2951652672830996 6.434498856916685 2.5466056897722478
Zn 8.496029206527767 6.701865156734163 5.679764083147298
Zn 5.850484866289113 7.869797075773719 6.240064520230403
Zn 3.6302483079801973 7.336906097901749 4.936185105802518
Zn 6.8790597916225025 4.6541110550065765 5.580748778100999
Zn 5.92339531801603 6.718568992001225 8.841466133472604
