17
Energy = -7.57742964 eV
Zn 10.303844699791634 6.457348382347622 4.887815931890887
Zn 9.917538718572553 4.108347427531203 6.18998372284442
Zn 9.200577158087233 4.338202652513886 3.657230620321208
Zn 8.023634786052385 7.440729714986724 5.86627559077474
Zn 7.2876741323349465 7.417144321419306 8.377374950250301
Zn 6.419323232228847 9.309356927604917 6.771506884891452
Zn 6.981731508646556 5.5127533806631694 4.394225414690945
Zn 7.742492465416097 5.125271489737115 7.274139451172774
Zn 5.496884386349307 7.545263290105725 5.058575491918575
Zn 4.6693872317301945 7.63614495439815 7.691948843162785
Zn 5.6487186041534105 5.4948092187285615 8.876911573797587
Zn 5.346685668446316 5.34587495499232 2.442392656127097
Zn 5.32663704975586 5.139353185304322 6.318799653815761
Zn 3.0511716107075504 6.037343882563419 3.3273714851656226
Zn 3.23037153836992 4.746751602469576 9.409199958146147
Zn 3.2111347036508215 6.574603937800891 5.823211829863362
Zn 1.6569908298566112 5.424127391062277 7.494199346441591
