13
Energy = -3.91297478 eV
Zn 6.166821865647992 5.450909803045466 4.75195951984681
Zn 5.862270767706937 2.395697663886128 5.49433877818648
Zn 6.4688937429756885 3.2272106586603067 2.51909967414306
Zn 3.928919320497866 4.514308954481228 6.736800321951435
Zn 4.864829233669263 5.872154594968408 1.929286763073624
Zn 3.3466761694821083 6.408633008966 4.453126585243329
Zn 3.811569894635462 3.105239718948599 0.9456555883834588
Zn 3.8437637016664046 3.8170415495301637 3.818906318572991
Zn 2.8825067890913134 1.7472458010780632 5.733032433190773
Zn 1.2437736983915362 4.39619263263089 5.133633708145544
Zn 1.8203443805663118 5.223265944830587 2.167369255316498
Zn 4.368102643411419 1.2099862692934193 3.2172976005795886
Zn 1.5521056201750765 2.1729586804984207 2.9063777841681593
