11
Energy = -4.16460603 eV
Zn 9.036148977906958 6.909638405218198 5.526939068420673
Zn 8.469693214794608 7.189958969186693 8.119041995430269
Zn 7.45552103652972 8.898798962044165 6.2928919958854035
Zn 4.703107949450434 9.630797123151664 5.886837555696733
Zn 8.777398178299306 4.537156413359423 6.924196954240873
Zn 7.333923889330186 5.183219551596949 4.5020346532532205
Zn 5.334410473977994 5.022645586345531 6.184371930833129
Zn 6.690717589524625 5.272327489152938 8.386211180292692
Zn 5.7841531916084765 7.294849678863584 4.84136944288416
Zn 4.571789271705526 6.3467556164931125 9.642180476603567
Zn 5.650456378450682 7.5044601614890425 7.5040093802605226
