18
Energy = -8.1241759 eV
Zn 4.697347329387324 7.060880455486411 8.572538516711587
Zn 7.060880455486411 8.314516553662466 8.409433120872881
Zn 7.060880455486411 10.709451885457772 7.060880455486411
Zn 7.060880455486411 3.41230902551505 7.060880455486411
Zn 4.768777896498632 4.357096660134956 7.060880455486411
Zn 7.060880455486411 5.807244357310357 5.712327790099941
Zn 9.424413581585501 7.060880455486411 5.549222394261236
Zn 9.352983014474187 9.764664250837868 7.060880455486411
Zn 4.697347329387324 7.060880455486411 5.549222394261236
Zn 7.060880455486411 8.314516553662466 5.712327790099941
Zn 7.060880455486411 5.807244357310357 8.409433120872881
Zn 9.424413581585501 7.060880455486411 8.572538516711587
Zn 2.786748910972823 5.820946738335453 7.060880455486411
Zn 11.335012 8.30081417263737 7.060880455486411
Zn 11.335012 5.820946738335453 7.060880455486411
Zn 2.786748910972823 8.30081417263737 7.060880455486411
Zn 9.352983014474187 4.357096660134956 7.060880455486411
Zn 4.768777896498632 9.764664250837868 7.060880455486411
