16
Energy = -7.47084164 eV
Zn 4.155951784179976 6.193724237037417 2.533890738586118
Zn 6.204768880234959 4.602978942710959 2.7090459166669922
Zn 5.242981321359623 2.5646021887555364 3.996210010225284
Zn 6.612193559088529 6.468402094366293 4.451739116188653
Zn 3.903522350502706 7.217990276035322 4.866668098083535
Zn 5.38158279636501 9.277712497343092 5.228231337822432
Zn 3.488089481004962 4.504478934989522 4.4891605839352255
Zn 7.169682037868817 3.8930721032296183 5.109096607793271
Zn 7.67371992528815 8.294169412752641 5.958805670759835
Zn 4.527402420497668 2.9311726659188073 6.411256523056153
Zn 7.916987319932384 5.730151787073081 6.70421350317995
Zn 4.952758361027478 5.453525500614123 6.4292490084645975
Zn 4.850821411571018 7.854887606373771 7.426079938199604
Zn 6.612629185308444 3.370351418327982 8.046833573134364
Zn 7.3184433884712465 7.574865920241417 8.413262577031734
Zn 5.6394718027861055 5.718920439717349 8.877262822359947
