14
Energy = -5.72323496 eV
Zn 5.8248583340820606 8.394774898999964 5.825811078140372
Zn 8.283870144521527 7.799690290461869 5.912686187673865
Zn 7.864636950894998 6.387446786674329 3.731934008562205
Zn 6.975351546975014 8.052319636220114 8.072247081780844
Zn 6.288735154133025 5.211767064887917 8.072247081780844
Zn 7.920044602465109 6.350802639016307 9.954507694725756
Zn 5.344042098642926 6.913284062091727 9.954507694725756
Zn 10.001165 5.7128795821122385 5.2333977650611425
Zn 7.439228367025977 4.869311802108074 5.825811078140372
Zn 5.399449750213039 6.876639914433708 3.731934008562205
Zn 9.016874126634512 5.947440038599815 7.693719693895691
Zn 4.980216556586502 5.464396410646164 5.912686187673865
Zn 4.247212574473526 7.316646662508216 7.693719693895691
Zn 3.262921701108034 7.551207118995649 5.2333977650611425
