18
Energy = -8.31088459 eV
Zn 7.090748770535298 3.875470818858409 6.767029668288979
Zn 8.258232371925866 6.625834024279331 9.478621564437503
Zn 8.574996862124802 6.355310686435023 6.805438648037006
Zn 6.845472545508842 4.554190183911052 9.237437142786888
Zn 3.414479588334521 4.970938580811571 6.366704950871735
Zn 9.787648184122004 8.393887396348509 8.41870244244967
Zn 7.657862505407552 5.117082604795412 4.477020361230966
Zn 5.324671400425404 3.322867021266221 4.964476604787968
Zn 3.6911083057115097 4.950230014471615 3.7779994862005717
Zn 8.412182644303362 8.93028920779809 6.075296023168183
Zn 5.993657326201911 6.159279546905793 6.143758676767337
Zn 4.090704140059883 7.37295279014874 4.66560587022624
Zn 6.763374436812574 8.239292367109536 8.101703865829228
Zn 4.387792348540327 5.001750367170173 8.812662226784132
Zn 5.897536362240463 6.024560248124416 2.859047328370459
Zn 7.675963558389948 7.770312287816815 3.8835539274648583
Zn 5.901207858933096 9.08206131761745 5.635797702285507
Zn 4.2849463135194785 7.32723735920622 7.5611627355484625
