16
Energy = -7.21603837 eV
Zn 8.13317443785406 9.398816476376359 7.733443584063849
Zn 5.499178138819527 9.398816476376359 7.733443584063849
Zn 6.816176288336792 8.09214602952978 9.614169000000004
Zn 4.745855798104364 6.816176288336792 8.269505783045952
Zn 6.816176288336792 8.886496778569223 5.362846793627634
Zn 8.886496778569223 6.816176288336792 8.269505783045952
Zn 9.398816476376359 8.13317443785406 5.898908992609738
Zn 4.2335361002972265 8.13317443785406 5.898908992609738
Zn 6.816176288336792 5.540206547143806 9.614169000000004
Zn 6.816176288336792 4.745855798104364 5.362846793627634
Zn 9.398816476376359 5.499178138819527 5.898908992609738
Zn 8.09214602952978 6.816176288336792 4.018183576673586
Zn 8.13317443785406 4.2335361002972265 7.733443584063849
Zn 5.540206547143806 6.816176288336792 4.018183576673586
Zn 5.499178138819527 4.2335361002972265 7.733443584063849
Zn 4.2335361002972265 5.499178138819527 5.898908992609738
