25
Energy = -14.13494398 eV
Zn 8.053370165100151 9.548859236415447 4.438878248508998
Zn 5.61648090604512 9.397413202039113 5.142891870364942
Zn 7.370550821867837 6.910656270518744 4.565138184744779
Zn 4.891126070101441 7.221147618871108 3.9536240126478757
Zn 10.177180574434379 5.34227494504683 4.661977954699202
Zn 4.807998274644719 5.50316246581033 5.849601868332646
Zn 9.86221932833541 7.832262966544664 4.804721456494608
Zn 6.931676956308637 7.976578769282767 6.941157453664402
Zn 3.7089691681129815 7.786150374641885 6.196271335170356
Zn 7.224941860703031 5.386332766712678 6.678670160281509
Zn 9.627616761102953 3.7190912585905704 6.427660788332834
Zn 4.783783483134779 9.522774379762499 7.719236078890169
Zn 9.39088724982939 7.225773538183537 7.391025477302693
Zn 9.591117364366587 9.72434061414366 6.519288117577734
Zn 7.81328681622896 2.5441243849945776 7.824075762635611
Zn 4.2391187681904094 3.212428903589015 6.831785142616679
Zn 7.177933884612079 10.827104301055568 6.705219689017314
Zn 5.503322919293909 2.7004973853479326 8.942939466274984
Zn 5.07768306884204 6.797074644616945 8.353955107089478
Zn 6.193947793540223 11.171692865349167 9.042696575837816
Zn 6.437908750138848 4.928327100371624 9.501149319006146
Zn 8.352843606753545 9.36812914885256 8.736179442086767
Zn 8.934881117519454 5.008965169080531 8.619674034114139
Zn 5.950658990572453 8.78839608214365 9.968985746513775
Zn 7.783154218691158 7.059100526505393 9.68585562626654
