28
Energy = -17.31416266 eV
Zn 6.251551988803227 8.138271037003767 9.056527479799502
Zn 4.057108967523533 6.969490216025006 8.957467512586414
Zn 4.762186678905145 7.8844149230344405 6.629047626462573
Zn 8.49893260579634 7.039042512460878 8.577552649524742
Zn 7.588694130516139 9.23771028519963 7.230951400123368
Zn 2.822540795638386 4.784796837741501 8.798786468668979
Zn 2.3224989263813494 6.644683274764479 7.078596758260712
Zn 2.4146720804307784 6.605446059986005 4.626027378020671
Zn 6.148495833762722 9.432562334823752 5.14788171518977
Zn 7.192666099800199 6.740362831804551 6.0432570655977536
Zn 8.704167456663576 9.24083000362185 4.809100145899655
Zn 6.137251705808564 5.4695764848064625 8.303304724368454
Zn 5.143388146196882 5.363788193093857 5.865816833465124
Zn 4.546471869202047 3.172706975167579 8.123268310079569
Zn 2.7935923723474616 4.226564891492114 6.097608979318029
Zn 4.754937075511192 7.676273740515287 3.921326503423345
Zn 8.518971848560744 4.674224888309579 7.615247972227962
Zn 7.193296703093319 8.202519789181473 3.0607633791151816
Zn 9.893933427373408 7.9571661495125205 6.615838289571245
Zn 4.519972248832319 2.0840100653394145 5.860364665187959
Zn 3.9467303377790404 5.392798083242389 3.0337855006230856
Zn 6.5934626594290116 5.77277157574971 3.5307490125408107
Zn 6.748742223609406 3.073426290449097 6.758068439633125
Zn 9.083121555910191 6.743273669148496 4.081827777328863
Zn 10.324642921688444 5.600959020961969 6.087344533580245
Zn 3.524754396477203 3.0965061488245205 3.7824433354751004
Zn 6.063200393756858 3.324898214508169 4.168454153072317
Zn 8.329129738399603 4.327756703052143 4.9964948409307235
