29
Energy = -15.09192047 eV
Zn 8.743796905810859 1.9872214201110732 4.155281262528127
Zn 2.9638961427716843 6.513993749586169 6.5283393720568865
Zn 4.6089513950110845 3.5477198920605897 3.0900300875501148
Zn 6.879577163054888 6.245590137340331 8.76097838167084
Zn 10.197726846801825 9.350400209290749 8.506371467103945
Zn 5.803425328295872 8.155874876133133 4.536946131912889
Zn 9.10164371977156 7.212821805804513 7.808033716841597
Zn 5.51250759363816 3.3778668148279785 5.648279535355199
Zn 10.303290840740798 3.316468497009984 5.789884530899694
Zn 7.685553268328154 6.574388150775415 5.640587775354473
Zn 4.026102644573701 10.395842598062506 4.365518245926591
Zn 6.86706184863385 2.546968941821221 2.5994624601434144
Zn 5.928101437530767 10.513579456712174 6.036602852475861
Zn 2.638195432495106 8.861726451356512 2.925382942891271
Zn 7.775658938659359 2.3554376536815287 6.460899435712264
Zn 3.933213876235461 8.871965769727197 6.488470042089792
Zn 2.4020739450381723 5.912633559948846 9.103554957355756
Zn 3.710722353461845 4.132318671009095 7.512364420292999
Zn 12.269311811234342 10.496920527820606 9.793441870811817
Zn 3.2380620776947566 4.45765114995767 4.970808486597768
Zn 5.859676868385869 5.593852191223964 4.14643241696003
Zn 6.301609752302488 3.800096030958382 8.050881474050685
Zn 3.534308810829749 6.754360130658461 3.901887702445329
Zn 4.499261371237791 7.431577543675041 8.528361422175934
Zn 8.262846752509866 4.506836603895314 4.262550285785391
Zn 4.774348759623262 5.122787338256168 9.753102625039483
Zn 8.641813667769501 4.740396391991066 7.369162124074331
Zn 6.605502731515454 8.291118777526686 7.199431916865623
Zn 8.059373082151385 10.428128320221557 7.555768287975092
