22
Energy = -11.41078996 eV
Zn 3.7180492664727565 4.050958784362157 8.44328190010359
Zn 3.952742315104242 6.560231245283739 7.911472903888435
Zn 6.165379177715567 6.226674631747529 6.29739199374225
Zn 4.5817822380333295 5.2128763640950755 2.0210174198892576
Zn 5.378771461325505 3.720579686043294 6.585479419505199
Zn 5.677524083430976 5.30163291165493 9.59469821139464
Zn 4.534434689426085 8.495187000331724 6.264595807913839
Zn 5.71063893021881 7.101368773929664 3.754329008383792
Zn 5.901112261523676 4.483584544980126 4.154131196216585
Zn 7.698178661967949 3.085263644756286 5.570237029008712
Zn 6.023946243862119 7.941930275014497 8.521811029818037
Zn 7.662372895071538 4.528512477112966 7.87729566423821
Zn 8.404954938751402 4.715235846753928 3.6543383137824383
Zn 5.770877529033442 10.73949669272233 6.9059081297318565
Zn 7.979408240890984 6.301469535664679 9.869794890137081
Zn 6.314747352707143 9.385344563599329 4.653613432348642
Zn 9.578477406850421 4.857624418043022 6.006049076280244
Zn 8.894491147937975 6.839294347863896 7.441971841305171
Zn 8.164256972714332 7.02519090659897 4.8372935119173155
Zn 8.331784810041954 8.828815333750217 9.312276258868817
Zn 7.925888092379492 9.010752301895073 6.6170265460159285
Zn 7.006599686647811 10.964394115904067 9.082404817617327
