20
Energy = -11.76735586
Zn 7.541655777520703 7.990841526262444 4.658031175106984
Zn 4.960271041527674 8.382217769951277 3.8735800146199226
Zn 5.166078479680485 7.266002960350039 9.018130859029048
Zn 8.661197790672226 6.46476698263303 6.567647374077266
Zn 6.038293964500022 6.033253846733241 3.4783690631328725
Zn 3.6127474374058957 6.365772203899676 4.6959129049528645
Zn 7.510080840341294 4.197568277192134 7.381132201071236
Zn 4.549952874164624 3.9278742660324775 3.9129165438761033
Zn 5.1084025699118945 3.5982038007219317 6.611994704736223
Zn 6.9544277490729485 8.252340463151677 7.351293158413498
Zn 6.054733491132163 6.054550204396166 6.097841778199801
Zn 4.4024485884453055 8.109502000789181 6.581399665922781
Zn 5.495782294662738 4.699280702554767 9.035900036374965
Zn 7.55489100887564 6.268011240930496 9.010833934454757
Zn 3.722787584567189 5.742791348533117 7.390779080589108
Zn 6.044900430558721 9.903647976452685 5.585729713556445
Zn 2.7171994547247813 4.1200949872620445 5.651436673433671
Zn 6.982627308733426 3.7743446685640327 4.6953467479715725
Zn 8.61341636480073 5.802129043474923 3.872822222752968
Zn 9.389474499631733 4.128175281044722 5.610271698658505
