21
Energy = -11.95558159 eV
Zn 4.098652333914771 6.857886046934087 5.5326768817326615
Zn 4.16915303395613 6.915840892418141 8.111542879096906
Zn 3.972237166970644 4.548186738874119 6.9087534744746915
Zn 5.588695409747442 8.799106654960672 4.209323967644121
Zn 4.965830616133797 9.105385672520724 6.679035023302432
Zn 5.127395763550602 6.558720699546376 3.1175422604746887
Zn 5.733693307759875 4.855936071737552 4.96099468684947
Zn 6.489373288043569 6.687384043406773 6.7418939959085264
Zn 6.314638709790171 3.4675920857929468 7.131511334285229
Zn 4.7149337834597 9.1964553383983 9.301128507665892
Zn 8.930589945959625 3.400883381697996 3.5557343573699813
Zn 7.836906481603742 5.140382997349124 8.434912025715516
Zn 5.293411447817834 4.762676785684154 9.12420515810876
Zn 8.236622327860944 4.8207572030189105 5.761384196195057
Zn 6.457555582256348 7.153710457552088 9.39792610400469
Zn 7.036792620944964 9.661474848979317 8.36751096067111
Zn 7.5620617812118525 8.934817157890919 5.91817289647171
Zn 7.500432715986395 6.864413173169127 4.1262402160322
Zn 10.134608123275461 5.667896243028443 7.424870738817197
Zn 8.711725488677315 7.746698607250195 8.104027590977275
Zn 9.55273233105017 7.282559662209364 5.5801419774086405
