29
Energy = -17.48532946 eV
Zn 7.22196906335112 9.418136702345283 9.7171656422122
Zn 8.60742130351339 10.859160331592328 8.082796190221437
Zn 7.2219870000772834 10.824054335629198 5.944951325734948
Zn 5.021153733434138 9.646361704055526 5.797379240143052
Zn 6.022009596357993 7.277665499672698 7.229905865429243
Zn 3.6696674928839648 5.569094895530305 6.1779142523549755
Zn 4.449332502422632 8.949572218192989 8.959886538444398
Zn 3.288347336735617 8.04224576638255 6.770981678276569
Zn 5.004354892454601 7.3245034252956 4.671997882847681
Zn 5.873942481753294 4.776472837300585 5.116160393754644
Zn 4.094096689718694 6.258278580598508 8.846146124687086
Zn 7.221960567007216 6.443297348367209 3.7861364301971783
Zn 7.222008712955905 8.888574896484334 4.301682593588857
Zn 5.836519655303747 10.859146171019418 8.082819791176606
Zn 9.994590519668503 8.94955522550518 8.959878042100492
Zn 7.221964343160149 5.2196621489546215 8.514492876353007
Zn 8.42189926516007 7.277657003329109 7.229898313123689
Zn 9.431739494187472 4.1031910111774765 7.794108644021126
Zn 5.9226064527740885 7.300956157596915 10.294365333580647
Zn 5.012248666540006 4.103266534234109 7.794100147677221
Zn 8.521347722577765 7.3010194081568685 10.294400262994461
Zn 7.221946406434303 5.1506712610059155 10.949759799441672
Zn 7.221953014701661 3.2775587398384385 6.739572183881985
Zn 10.34984332506025 6.258318230203295 8.846177277947966
Zn 8.57003151840127 4.7764397959633165 5.116170778175097
Zn 10.774211159411415 5.569093951492107 6.1778604421769625
Zn 9.439586066362539 7.324510977601467 4.672029036108562
Zn 11.15561816707504 8.04224576638255 6.770972237894629
Zn 9.422717366555847 9.646363592131756 5.797365079569824
