20
Energy = -10.15399853 eV
Zn 7.031209824522959 7.63967316209137 10.420466797763366
Zn 4.040798484889679 8.613090139815933 7.783363656126506
Zn 8.616984741086762 4.753906399337444 3.180938715778115
Zn 9.45589267693886 5.268215631734763 8.480807665109275
Zn 6.575388251633338 6.316023428159159 3.283033551746568
Zn 10.309773477727733 6.9376754682945805 6.695078405684072
Zn 4.495163686011995 5.79581566198716 4.759174756439732
Zn 4.278760194690373 8.291463043219574 5.227454010705407
Zn 9.434122773429985 4.773741659959846 5.597327870081752
Zn 7.783347700375119 3.489394659621415 7.517850532867253
Zn 6.424149330691546 9.080539390421096 6.650438857279512
Zn 8.072210558655929 7.545324771891498 8.025074367456506
Zn 6.5543418818242944 8.8429721687671 4.021158435963386
Zn 6.906386882650337 5.389221484391573 9.12003273632059
Zn 4.518682820379164 6.556829751824504 9.696911148319717
Zn 8.116114955354616 7.2856425019954605 5.375531970319791
Zn 5.453250384445369 6.467472327874308 7.199965702148964
Zn 7.2876160138915775 9.95237619100036 8.963831357078105
Zn 4.995401703980658 9.210886710426749 10.050162544543872
Zn 6.712209984948494 4.823646937474367 5.648381343676682
