26
Energy = -15.00208531 eV
Zn 8.175771576720683 4.608408732538866 9.840785662547399
Zn 7.409191413172586 6.975162288503417 9.983992858726813
Zn 5.373449181703115 7.6971654035349655 8.516899521229305
Zn 7.6016336641143045 8.941795650303145 8.49360710508517
Zn 5.51102986908941 5.092013572069507 9.696489134728083
Zn 8.866444518258682 4.041863945362357 7.3898633884927705
Zn 6.800316915696314 3.0221748671253734 8.52630966235901
Zn 3.5220166368241252 5.969018278539787 8.412021271342656
Zn 8.818893090885714 6.62445125142492 7.702412246106948
Zn 6.201109399885536 8.742150664990199 6.2241514770899204
Zn 4.747906733803304 3.923923950994445 7.323200207492924
Zn 8.955317826179169 8.98090979282756 6.4210856556478895
Zn 6.817204664167342 3.1563095170705644 5.853617911863809
Zn 2.694164085336398 5.094459946601751 6.163353139348869
Zn 8.217523564884274 6.701998601694372 5.089122742104628
Zn 6.435539729242359 5.952329191138833 6.832235331807122
Zn 3.8551437979445082 7.491781743738376 6.330307204046601
Zn 8.893421129491223 4.227173372336315 4.870280638150261
Zn 7.0809118317665245 5.000280442632322 3.302543892886996
Zn 5.427882542554216 9.1448733322919 3.7247031079634842
Zn 5.006304485215614 4.634763464387659 4.804058901404068
Zn 7.955243161530882 9.265322049420945 4.1078614013973285
Zn 2.6239462542313867 5.444040174598666 3.666013213185177
Zn 7.1568716584274235 7.472519248676833 2.5713391627230986
Zn 4.870196306140871 6.2460404776415 2.570468153457529
Zn 3.227840631163442 7.918936745021733 3.8626376152118373
