25
Energy = -14.11313637 eV
Zn 7.44393059273021 7.857989239335079 7.46714400785006
Zn 8.716888100453856 4.072101136024043 6.388327817638892
Zn 5.442833133972926 8.750590803503018 8.962002715380349
Zn 10.196525174935248 6.076375126369619 5.754175275576552
Zn 5.70259991196958 6.654296343073175 2.370659046177426
Zn 6.067570774585152 6.779751202632812 10.555081613129065
Zn 5.2357828763021566 9.077873319992914 6.4459943053143895
Zn 4.675889070327181 7.119133435023771 4.873763889825247
Zn 9.488910325475503 10.444980425725674 6.999974244741657
Zn 8.924552286511492 10.181464879849917 9.453573309460635
Zn 6.518467828162222 2.865718040525239 6.184131170158396
Zn 7.727398072206998 10.660086873014906 5.227596204693736
Zn 9.017559128991842 8.254985556775841 5.322470194128408
Zn 4.799966446507394 4.691418808979428 5.339895312602628
Zn 6.921233700863324 10.613525867319924 7.741852950523642
Zn 7.307871497627422 6.145489080611152 5.452219088924458
Zn 9.958919481281487 5.467612883692047 8.182733730711337
Zn 4.779024855389016 6.518634432640863 7.489871318827019
Zn 7.1874465742036335 5.338380832381192 8.143513595350745
Zn 4.493393866214111 3.8059719587538683 7.632936200797017
Zn 10.099240378714159 8.038729036665782 7.7573656755507745
Zn 5.105530111615669 4.60869674311597 9.855485647809394
Zn 6.6821824768654 8.552114487364655 4.283253191600705
Zn 8.594059680636606 6.956757237053549 9.728388230673453
Zn 7.356747530967443 8.9118461270849 10.832115140064207
