23
Energy = -11.14143299 eV
Zn 7.072891145059529 10.162733042082078 7.6623918770906965
Zn 5.336022407839182 4.402050263031222 6.535718908752758
Zn 8.038707187954165 7.906682000914686 4.913467718377915
Zn 6.080858584080428 6.190011074102002 4.8248107618084575
Zn 5.6592873224584 8.735030802165566 3.880937364945893
Zn 9.412116762223837 6.327472118911011 6.6105872163286605
Zn 6.832037977029475 8.624338750615404 1.2052118102542206
Zn 8.199742064276279 9.75883320415539 3.012860953646882
Zn 5.188684795225282 4.789122378936015 10.383200358530734
Zn 4.200197132905546 2.1895301607251403 7.063572513456604
Zn 4.79652619920212 2.2693753848030482 9.570046885467148
Zn 4.887649633416895 6.380219236959732 8.35823056916796
Zn 8.158118320424178 10.780400514934374 5.343395826636271
Zn 5.188345112189212 8.144129915408163 6.4369249824135855
Zn 6.8221050979192475 2.4469481727033457 7.668929542789224
Zn 7.222944042729553 3.025290075001917 10.238189872910379
Zn 7.316956495328876 7.555463249807105 7.7885562853301336
Zn 3.32306739778908 4.26971191045577 8.448885528880208
Zn 5.4397421817195175 10.653007632918614 5.6355693200946755
Zn 5.657224025599753 6.562394876565245 2.2918913253921436
Zn 7.876215321611899 4.421448010623678 6.003968085285182
Zn 9.371101097009 9.038481077570601 6.874011787677622
Zn 7.20753047456885 5.04381439558041 8.603838511555884
