25
Energy = -13.89536727 eV
Zn 7.877321825345079 6.5096361860558005 7.604801553597714
Zn 9.07577652119112 5.700158469711533 5.341299485680784
Zn 6.134328722021998 6.480312922576764 9.5312160884838
Zn 6.317600234413241 9.240333886607193 3.257630074351462
Zn 6.608154934081768 4.713809148279352 5.417828275816954
Zn 3.219459831593593 7.6387560431488675 6.1742922185001925
Zn 7.939441276575898 4.601409150549618 9.753948161138254
Zn 6.0243603088639786 7.766751611771215 6.451323915727157
Zn 6.606591843494378 3.37668775505693 7.759345774938515
Zn 4.207954753964339 5.426190210645444 4.9433135856561385
Zn 5.8854772972485705 9.199210236776567 9.314898678519521
Zn 7.180857144964789 6.93809891449597 4.222115016982389
Zn 8.1031255464617 9.383254636083631 5.016092964272394
Zn 10.746740836080484 6.140353658657772 7.439873200790336
Zn 7.779674876567988 9.35866803474676 7.544617260706321
Zn 10.46435575511192 4.250625265883356 9.192649689989207
Zn 5.047525267792822 5.371153394297132 7.428754584851018
Zn 9.833627840534712 8.152070997617756 6.223807587214247
Zn 4.415082012680757 9.8287069649702 7.250755030113514
Zn 4.476801265723248 7.782341669199553 3.9933845217029402
Zn 8.995929828654347 3.8925667504259636 7.163194112090725
Zn 8.096052403775905 8.190383145005615 9.880383809957578
Zn 10.041405206343654 6.645555807732399 9.988704055252818
Zn 5.630586682175205 10.667735147010003 5.2572645919338425
Zn 4.031975710379626 7.485437918736016 8.588713687773296
