27
Energy = -14.70268198 eV
Zn 7.983392070300301 1.8446019902543973 6.095616364917693
Zn 9.650775356845852 3.859409860045545 6.439274753808683
Zn 9.8726029491767 5.859835561798765 4.685877865327441
Zn 7.649727422776676 4.447315013650339 4.941650361871495
Zn 7.778654340245928 4.952126391345404 7.988028447487488
Zn 5.626578041687592 2.587539350551849 4.92875237880641
Zn 5.980815771687512 2.6419762912938918 7.618806337434241
Zn 7.491759606081097 6.679040248921022 3.7516952771774883
Zn 9.871327188809651 6.426052813300747 7.247841882715195
Zn 9.16279316902891 8.186301818871062 5.3873257492633755
Zn 5.702377185792502 4.6929549165450855 3.3800233247084237
Zn 9.46025502518661 7.727692468446686 9.330089412570064
Zn 7.099131253279137 7.09191282784881 6.570994856160485
Zn 7.2730734429469965 9.21442191177173 3.8570252474437883
Zn 6.917420757720173 6.79079325604841 9.732339648609567
Zn 5.525556011912242 4.985100482658576 6.76713927865098
Zn 4.5236958448769675 6.452443562283165 9.102515124539766
Zn 3.567758154434888 4.595349808378956 4.695244391597734
Zn 7.267005593529791 9.057814591367737 8.583696497755508
Zn 4.911301855956221 6.931677246192633 5.050660013292687
Zn 7.147212675039258 10.098700987413467 6.323387984241839
Zn 3.084430477394276 5.025746687322218 7.2745971060058965
Zn 5.040728547207542 9.613163428724043 4.875235670587305
Zn 4.939371428759134 8.529225914979135 7.365645907339611
Zn 2.5269528720766816 7.44895658076431 7.744837160554104
Zn 1.7517100031909865 6.309569482322988 5.43060554816012
Zn 2.83203732168893 8.588720874532163 5.46953777660545
