27
Energy = -15.2381411 eV
Zn 7.149345151161969 3.458632982864448 4.273608905760465
Zn 9.15291752272332 4.946544005596266 4.8592376509013935
Zn 5.540664619406085 2.2989610952817747 5.820019040780372
Zn 4.399910194715586 3.7235188741260994 3.925773926948066
Zn 7.52424411228177 4.427273968047501 6.828043686986972
Zn 11.010297600900934 4.808796888988924 6.610914616237058
Zn 5.946556759117339 5.481344256255181 3.071377166440256
Zn 5.175653054260097 3.2014401284262197 8.090347146360298
Zn 7.87214776637797 6.88476822936783 3.9007036591051083
Zn 10.643104120229571 6.6350128041797545 8.437943341926246
Zn 3.782737776281972 4.471227223487441 6.269287043938516
Zn 3.419911927946732 6.105466543921055 4.0289335987730075
Zn 9.428859982549977 7.297499681376555 5.845887662966551
Zn 8.002361239844626 6.6961561857846075 8.112839600668986
Zn 6.093663908263571 6.577199455309428 6.2347881439416835
Zn 5.5346827995862595 7.917569399372531 3.9315032713305995
Zn 3.307959778072561 8.690767604301723 4.76552902587421
Zn 6.679593026667655 4.763108568367649 9.32490287468886
Zn 8.946799422881186 9.164585974571358 7.487589398883018
Zn 4.396562840631132 5.733417727620233 8.63174822696349
Zn 3.4594391430452953 7.0421521704106125 6.683888588723346
Zn 7.301397969599045 9.074266761625017 5.3862137397379835
Zn 6.093896327961029 7.020589717031888 10.281643092705941
Zn 5.143734704516097 8.348317756750943 8.233553231435852
Zn 4.289220220595941 10.309459725178518 6.457607716255834
Zn 7.45657202094184 8.961727576696012 9.524901151582139
Zn 6.631785914062999 10.395501009742107 7.460070665773408
