29
Energy = -16.98468846 eV
Zn 6.991683314586039 4.098930793506377 3.5366992849262533
Zn 6.6742624132051045 6.6971085504836765 6.011827148455039
Zn 8.051213890572464 9.155327410042919 9.137196595894801
Zn 7.2780911830874055 3.5306921319041127 6.1125535049407835
Zn 8.484838654675471 2.605217023534399 8.13257779457031
Zn 5.612260314969921 5.029952976947983 10.651169282613226
Zn 9.852357514961001 7.308863189697049 8.46041943736463
Zn 7.655027960963815 6.6300793630889165 3.547086231131715
Zn 8.74434726585821 9.28258257591558 4.456361954053587
Zn 4.596822089408591 7.192974240384645 11.518025569098386
Zn 7.838102098524375 4.080406347281723 10.036663136310782
Zn 5.0622276377874815 7.154570910477405 2.5585653506868287
Zn 8.74271110755157 5.234731873924285 7.5405865326071435
Zn 4.8736992127685195 8.473530116574914 5.0785837422650255
Zn 9.180510280276197 4.687589403269944 4.730389172495406
Zn 5.87300840647921 4.958986298784319 7.9683623825640115
Zn 6.473685054743289 10.752807315833294 4.673972889746358
Zn 6.0621761986994915 8.979911282810418 10.642106286301592
Zn 3.8294667455491957 6.183198239150859 9.224472712546488
Zn 9.287426545279823 7.053680795130518 5.7015888556184935
Zn 4.689812912697066 4.675393983334357 2.8548435655855076
Zn 7.511045044458383 6.652325650689365 9.72093319585895
Zn 9.495766741613686 9.36256668542863 7.04898372161804
Zn 6.9322361184621295 9.20297975027086 6.650823408490475
Zn 3.399580319504382 6.356158450204987 4.345688620781808
Zn 3.5676283776181936 6.72759736611462 6.795873425862115
Zn 6.711871617035836 8.950938309656271 2.9441953428187992
Zn 5.398339357777711 8.01565262252591 8.237322435201863
Zn 4.992316824148891 4.636662372663027 5.535393558861662
