29
Energy = -17.55364142 eV
Zn 11.339381304855479 7.298891406791538 10.928592979980806
Zn 10.242055518313643 5.70655878413485 9.147496130375991
Zn 11.117507458599107 7.887239373211002 7.69222934227547
Zn 10.621996093319584 5.590241893672092 6.576198252978967
Zn 9.387651412542782 8.282282732164589 9.446713872404
Zn 8.623736707611515 3.9987312250545277 8.274763636028688
Zn 8.370443325356197 9.099753852448353 6.93972699548301
Zn 10.274484541963108 8.041452952967003 5.374313582938963
Zn 9.063309145865004 3.7961421642792836 5.536878064479829
Zn 7.6761938821136475 6.14002988699927 9.822999708719239
Zn 8.160621750125694 6.495018016851002 7.072664930952802
Zn 6.935815324837011 3.1424939822602593 6.5747582771609725
Zn 9.345947462634888 5.916970764741358 4.235283191771248
Zn 6.962383522478239 8.661960562659536 9.216815175527708
Zn 7.967839142991481 8.116819457170843 4.315992064349151
Zn 6.036046289008514 5.169149311314458 8.05430558026284
Zn 4.532485090124198 9.471377960355634 9.981282767344227
Zn 5.667395859675305 10.306230234188334 7.7526282255788335
Zn 6.712308411454503 10.138303099820076 5.2434301013573865
Zn 4.95750365105561 6.975215501026163 9.508406194686629
Zn 5.903821256016112 7.649938084392273 6.8551967891119165
Zn 5.413806174281689 8.146184543266456 4.095399329842884
Zn 6.727229675004878 5.714358222733092 5.0040272836929125
Zn 4.596568641377456 4.157691776962794 6.150271909748559
Zn 3.352690042830248 8.731893589451987 7.920098004610553
Zn 4.234648901524756 10.250816403529528 5.685583705628249
Zn 3.497141982379136 6.117997266700621 7.417396556563205
Zn 4.144749398215415 5.934111082480181 4.525427412953306
Zn 3.191095436645681 7.989632066451682 5.549781618471332
