21
Energy = -10.40577557 eV
Zn 7.130750872455166 6.837567162549535 4.697208894309483
Zn 7.118345711448441 6.532445893922674 9.817351814365447
Zn 10.931688155006329 9.392513844381902 7.957876900796577
Zn 4.527759734735855 6.973241351008085 5.361020919292886
Zn 8.502214757140024 9.821613357371513 8.453759632273524
Zn 4.645520655840037 6.767842841575383 9.182031738542175
Zn 9.676732180184795 6.900639261951512 5.311467842563396
Zn 10.84164358550674 5.15916957197037 7.4743797075122265
Zn 8.714751624402268 4.784757842635255 8.811103052289338
Zn 8.228655553297967 8.946701943115007 5.908642130720598
Zn 2.693183946796758 7.237168307965141 7.51396731698514
Zn 3.959525376830907 5.1423174340630275 7.212978349272358
Zn 6.258128656534546 4.649263775886605 8.111098616648015
Zn 4.446968297094429 8.935950515667754 7.261199014293297
Zn 6.261726976640693 8.87153206763603 9.283077211020528
Zn 11.751233917976526 7.380214333322492 6.733189873419813
Zn 5.8007731663898765 4.698520182047185 5.476555392283479
Zn 8.808481103985027 7.287394678177336 7.940843864209595
Zn 8.222827351392516 4.9494639382309815 6.285107145609358
Zn 6.458357615651548 10.414278243240512 7.119544022146696
Zn 5.835675063302167 9.132347755894656 4.902540808096504
