26
Energy = -15.47870957
Zn 3.4315588489712385 3.02914856206717 6.516356547226299
Zn 5.124465132306 5.841485968614029 3.386996943329089
Zn 7.327623719352108 6.079724405578996 6.047922676363393
Zn 1.9286612425604721 7.322131686123895 6.055826381538616
Zn 7.218001219934456 4.826942811593085 8.43866174376188
Zn 5.803542333703063 8.317904800579198 4.428021984052529
Zn 7.598669265391039 6.559424960452396 3.4088191782994754
Zn 3.6727967758556233 7.349362104973076 8.001436709013534
Zn 8.802446394839517 3.1369917080488667 7.068847385522375
Zn 4.865664696076024 6.004747755613306 6.02055827638773
Zn 6.0766609360102 3.5336513986485674 6.5093622013060255
Zn 2.2604938431611163 5.167864594159673 7.363115632454829
Zn 5.99852921412209 8.191478504825811 7.0890630510745405
Zn 2.696238379087894 5.100315719314662 4.707397057642356
Zn 4.597258093574119 4.663489325914238 8.36828848725807
Zn 9.888371890223675 6.825983938050564 4.560996422251287
Zn 9.799567039124828 8.240595879834052 6.735031781371878
Zn 3.37048575844536 7.560531623560552 3.9763164182247053
Zn 9.857132861706924 5.558651606624182 7.053991016124758
Zn 6.928396682276584 4.020583340709867 4.031271744384017
Zn 9.380584070297841 4.286116172006321 4.736700262515801
Zn 8.275302829610569 8.922826963104777 4.748933391179413
Zn 4.498359859259412 3.3700575641362276 4.230971794126387
Zn 5.807363106439786 6.758541647998239 9.330131073246772
Zn 8.130802610334944 7.315156752584184 8.376804847126127
Zn 3.7901817777144933 9.145448785262454 5.937335574596503
