23
Energy = -12.52652653 eV
Zn 6.973932678018275 9.991500056859302 5.164021187028438
Zn 6.389839845607786 8.152913254978612 3.5513851677321515
Zn 7.581464604952927 4.506928364830744 9.130915838963361
Zn 5.45020141029496 6.13404441347071 8.880246084441284
Zn 6.317383885860565 1.9261849219761913 5.920569656963871
Zn 3.829234107603812 6.201573779461921 6.468845948124104
Zn 8.909851670119792 6.562168079302081 8.561876022191619
Zn 4.906204382704036 6.234924466031909 4.062137266183064
Zn 8.320926016756923 4.76862419605899 6.611154050440534
Zn 7.573172676915447 5.969162474841387 4.387969859105994
Zn 8.861262661003886 8.378653169594898 4.334346674336001
Zn 9.78032267277814 6.818574648269174 6.118344116169053
Zn 4.0323751569141075 8.173697657599252 8.102363219483362
Zn 8.332356564115369 8.74637568333021 7.100968803617676
Zn 6.963423065418874 8.065680804990762 9.262183294538987
Zn 4.295127563629347 3.997662351598788 5.041258424598245
Zn 7.1924933498803405 2.0946859918517147 8.29125278381636
Zn 6.52297326996316 6.942463427770996 6.570586222869964
Zn 6.080953100779021 10.001826441232284 7.481910269714
Zn 4.661923478109278 8.61970175529934 5.560735402204901
Zn 6.70746313130715 3.5671466551830338 4.0220340047900764
Zn 5.783356891348188 4.405349431569471 7.052446623874935
Zn 5.01727031171072 9.859613549123097 9.780537926904021
