29
Energy = -17.21094554 eV
Zn 9.094676179496295 6.500689343192548 9.080025172011291
Zn 9.300556913451661 3.942435821516728 8.898354307709726
Zn 10.087109468388688 5.442684349492138 6.792056681548214
Zn 10.207209993469919 7.9079693091129215 7.054105140912725
Zn 9.689666211745726 2.707939288628226 6.701791040614971
Zn 6.817909837257008 7.296242659685859 10.21159319700625
Zn 7.141429151261527 4.792958791541072 10.047724620504727
Zn 7.285936392529297 5.849206667327309 7.292106690675596
Zn 8.003869781649813 8.643198225876366 8.149761217044937
Zn 5.26321621851437 4.291358144512354 8.435214396557626
Zn 7.304823678873829 2.9582038488218636 7.563257821955069
Zn 8.736491317181335 9.370095221198893 5.714877414949937
Zn 8.411209580118165 6.895616745259738 5.130828968066453
Zn 8.519600958021408 4.285374825952257 5.096270140000539
Zn 5.861827828445739 3.9501583995007414 5.700676545286927
Zn 5.544363686513404 9.150596555988518 8.978596302439767
Zn 5.617885826538208 6.817229728056106 5.607218116974538
Zn 7.0174799431964265 9.26856915963024 3.8274026761183637
Zn 4.725268533929959 6.884594248465936 8.094750360062088
Zn 5.646122777455677 7.440844918359466 2.726413857658834
Zn 6.905707867040562 5.405799535156602 3.5281840539658855
Zn 6.2256559830439455 9.693252775531768 6.463821322558945
Zn 3.5648727560649243 5.016491421069725 6.702317558858119
Zn 3.7911777294481848 9.421217384016682 7.254677974679108
Zn 3.183401287875534 7.170552225028496 3.4446635869189994
Zn 4.396891655921735 4.895726477908042 3.8104508823008785
Zn 4.511026567490957 8.99931398359951 4.671158087994222
Zn 2.8381438333590907 7.433277516027385 6.111410345236425
Zn 2.018386465008282 5.261364044503048 4.675637732252432
