29
Energy = -17.39743028 eV
Zn 5.556263107833659 3.773886711683965 2.97358576196573
Zn 7.41112375081176 3.7246681225980027 6.180860576782431
Zn 3.45061060444966 3.3884831341945185 4.5654074885123075
Zn 5.173794575863799 5.194167648171416 5.6986169309601635
Zn 9.52517126140592 7.489843370265359 7.6389728482531885
Zn 7.804839221058319 7.718966519868385 3.669347879963779
Zn 3.2145721538046232 4.012987020055834 7.343593442726966
Zn 7.706903857280632 4.243415152618736 8.703649979230327
Zn 5.594733099062091 2.8799262042897644 7.855992556132706
Zn 1.8617323114620767 5.155066077300458 5.444402950506511
Zn 9.477615396861763 5.051127376610144 6.958985701320478
Zn 10.276701669125712 11.078835642920492 5.835574907788427
Zn 5.401039999256065 8.089712572883437 8.565534035437576
Zn 3.9525277064261948 8.77510411718547 6.613340078797398
Zn 7.571901641902933 6.682793345354575 9.299803866786931
Zn 8.554092614971026 9.075832155812098 5.704248999879337
Zn 5.329694434172064 5.501859641543962 8.342405372259591
Zn 7.799936167264457 9.065706442102194 8.523374609826
Zn 3.7975659506647585 1.6306525879351017 6.548908161275156
Zn 6.26853827318673 9.636160623090737 6.499915828342081
Zn 3.0527768442065137 6.555763653144414 7.423009727483481
Zn 2.7192589572962533 7.420033742996732 4.858086682881192
Zn 5.330577072751817 7.689193082991426 4.631827479027446
Zn 6.994540174960056 6.693113922982611 6.4900453746003
Zn 9.655891356356982 6.774865933230441 5.120918112240011
Zn 3.555567555503475 5.67959439046629 3.241611168104551
Zn 5.729618308243258 2.2350116532082125 4.961146424972877
Zn 7.810731931921644 5.116639362365852 4.089421112268979
Zn 5.97365043876465 6.211862019110987 2.587428992571919
