23
Energy = -12.27899715 eV
Zn 5.293978358912857 8.82634683901663 7.594579613507104
Zn 7.864681070498236 8.308485629302034 7.61061381076078
Zn 6.163704425189925 6.534924970937027 6.159813780499358
Zn 8.361010726915815 5.756944582821188 7.25616643519309
Zn 0.49922658469832487 6.742699521020468 8.282309070901476
Zn 6.825604472772877 9.867748522250318 5.717514953750176
Zn 6.142028036570198 8.159577599733256 3.980025245788161
Zn 8.146263324301083 6.200550137333121 4.5544302467223305
Zn 3.900516968854537 7.311348332530247 5.132203689711393
Zn 5.908849648451775 4.6259301420783965 7.982575822301327
Zn 4.144175042249889 6.53380299390758 7.798664947100363
Zn 8.04828618298896 3.2598763497831156 7.69135351571807
Zn 4.832117047881571 6.009529738906838 2.8874138295662957
Zn 8.092728450186284 3.6170422777249263 5.179300536399817
Zn 7.098246882911659 4.355057407578785 2.846348272569145
Zn 7.188554405776967 6.769828424903504 2.1270221049423634
Zn 5.557932847684155 4.38786107212375 4.966742533521257
Zn 2.0909927171608658 5.864465389687853 6.389135818513706
Zn 3.714209908298978 3.87597001341728 6.7744391004227404
Zn 5.928483252959765 2.26870999692042 6.470366083003506
Zn 3.0141392939103775 4.798500380893962 4.30220870270802
Zn 4.6154255629483805 3.2338920980682198 2.565854029991689
Zn 5.071764833849882 1.3307323685885055 4.257847352129391
