22
Energy = -11.68113794 eV
Zn 7.570907795653265 3.3284031210593965 6.943468239978435
Zn 7.8692886147579175 3.6994818463972368 4.399238921354993
Zn 7.360469999881086 4.151071048709001 9.296144848755368
Zn 5.537297655001656 3.002629155734489 5.3534433180124905
Zn 5.178957011796042 4.512940711235722 0.7717150464564786
Zn 5.277080476202796 4.797667840983143 7.2274017221282
Zn 7.646000017907215 5.834424966521592 6.372607004002479
Zn 3.5944258118419667 4.684558518743455 5.102820656084602
Zn 7.813793955335017 6.6205329120009955 9.560936799870147
Zn 7.731813893610413 6.174675051663424 3.7858444150155073
Zn 5.628679553031729 4.602354847608335 3.3380299059895115
Zn 10.260148231676133 8.169507824979469 5.455784535878094
Zn 3.377295429860856 6.464105022407394 8.219221161345747
Zn 8.669680922252171 7.831324720095206 7.539584901058227
Zn 1.6486032413010434 5.573353661134908 6.4660222488519095
Zn 5.369576223380936 5.773735460354999 9.695684502306388
Zn 7.113913086890402 9.599821325903772 6.6360932795814875
Zn 5.393944281203453 6.610504752655386 5.042245184955113
Zn 7.627578548722936 8.62169607609956 4.347432448153683
Zn 5.7873088905106975 7.556607449037052 7.638765387482247
Zn 3.0019688387470174 7.7534152960637295 5.9624803014254875
Zn 5.032388463602968 9.146325220059273 5.3139413898734915
