24
Energy = -13.50897127 eV
Zn 6.522565899838686 6.889631313149015 3.859264164681185
Zn 6.888593899203767 6.8093337098248075 9.832866776818193
Zn 8.289052080554917 5.55686644222575 5.018218923302038
Zn 8.05108595340625 5.4048857623096875 7.8883224964602325
Zn 8.972430091689413 8.00455642924949 4.266057404588297
Zn 8.881413754454119 7.888991028334339 8.599569823063847
Zn 6.840683658312771 9.458534003775075 4.86759494192321
Zn 6.260853274068737 9.222434875777294 9.077597163432323
Zn 4.550791064482394 8.389661071461198 4.188453025597433
Zn 4.768737716820849 7.101628153147631 8.346312398610442
Zn 5.906486363590475 5.40262327938012 6.1142501847846
Zn 5.657331957337279 4.765958679686006 8.859187572405386
Zn 7.076550444050207 7.619155790815256 6.76741967355834
Zn 8.838388507615386 2.4438539536921544 6.580550987770026
Zn 10.178887911935252 4.56137895380777 6.37975684935231
Zn 10.057469846248853 7.05829539516583 6.4252936586048826
Zn 9.088322007212483 9.544360994278438 6.383501961963355
Zn 6.80079374994929 10.91988385247283 7.039503514886556
Zn 4.926402825328626 9.112301413885884 6.7364225437760945
Zn 3.6651228782572787 6.831968948480427 6.016496220642111
Zn 2.5378653454659963 4.595482245364158 6.507610710001491
Zn 3.958083880658005 3.083879098217868 7.893764842905322
Zn 6.529058892550533 2.7763002309692433 7.416014580693126
Zn 8.580405080323734 10.450971170813766 8.773600718878125
