21
Energy = -10.18746832 eV
Zn 2.5381604964544384 7.459432602044087 4.336609851818815
Zn 4.753418428612576 7.5486225774105264 9.036888726315576
Zn 6.846000959374027 7.432438347295203 10.481209398202674
Zn 4.92677265423672 6.845586577889751 3.282864488995172
Zn 8.659600634384914 4.901034397449411 6.178301773163437
Zn 5.717862100305835 8.177822601442918 6.527905428794702
Zn 6.85917464674446 6.386444804605137 1.7022672251472044
Zn 4.0606673812193135 3.206686462909905 6.410283728955274
Zn 4.1682844060059665 5.183487629374073 8.140001602368848
Zn 7.180219263754543 6.286395240763999 7.955755259938179
Zn 6.26487923119233 5.869911142404475 5.358865539920068
Zn 9.991435711834123 6.5215753732172335 7.919976596658177
Zn 9.646678802821812 7.226811341975099 5.426425668688724
Zn 9.141740257237524 8.61491612158057 9.598423979767109
Zn 8.174620343877224 8.62904966422644 7.076197096732575
Zn 6.418416657927987 3.9683922923374717 7.201603675391939
Zn 7.365161642370548 8.203692139268298 4.519078296672932
Zn 3.685460459175589 5.238925740486556 4.982024636759246
Zn 3.324374796269194 7.349024265863511 6.857745685268795
Zn 8.375196387119233 5.83036352449633 3.6929578061060053
Zn 9.071717303060511 6.169239266703454 10.319467333694718
