22
Energy = -12.37194187 eV
Zn 2.6274368389167484 9.953151091898713 8.629833230804023
Zn 4.7130094164990295 8.427523101947255 8.526565322502485
Zn 5.753059978585945 4.652006010169215 6.342114932648187
Zn 6.821579055871847 9.190516354286004 6.929575604507715
Zn 5.373602821714358 5.869359917845513 8.73484710944279
Zn 4.4909546959685045 6.818131212265078 6.4977203575004765
Zn 8.58228312721611 6.97539334512387 3.4010483941244956
Zn 9.615518266595227 7.311978974287544 9.585135823843899
Zn 7.491830370296537 6.588101414939882 7.058718637823073
Zn 6.703845231973003 3.531216300026933 8.541515054892283
Zn 9.188788327793574 9.31386339486396 8.037892631838046
Zn 2.6357720803267295 10.644409771737198 6.105314099714755
Zn 7.307570688813997 4.944482040568054 4.295704890099907
Zn 7.748605239864033 5.513812331698566 9.767784564317973
Zn 10.66350430573789 7.392449709347542 7.212056450433031
Zn 9.595257111703539 5.7237046150378035 5.48323361630074
Zn 7.119714253587626 8.034692570576857 9.235589588194946
Zn 8.87502247767283 8.357148712154356 5.56956969545868
Zn 9.489294689118958 5.126156344284866 7.979204710684148
Zn 8.144587005033774 3.6123384150754485 6.358577959020377
Zn 4.684759890672471 9.211480865653604 5.552603742701554
Zn 6.383122906659594 7.396986736613901 4.817507523409686
