25
Energy = -14.12002374 eV
Zn 7.899868730366343 4.860842749468135 9.059317947858494
Zn 10.060853427512544 5.825628670111592 5.854610979211247
Zn 3.688755489237206 9.5740200801668 9.357548975747145
Zn 7.654624312566376 7.5155391355276535 9.450705898398594
Zn 9.214117700851656 7.8456711158031744 4.426998802352575
Zn 7.879208660071856 9.746637604406988 8.102024024741084
Zn 6.577202068270106 8.103584120764083 4.765004943387634
Zn 7.776122357706024 6.785664347906914 6.761574513468458
Zn 3.4471487610193234 7.3587702563024076 8.156043276382135
Zn 5.470432545265276 5.67550558403057 8.83378615161891
Zn 6.546197319958763 4.468972252053018 6.779282759975177
Zn 7.983951342564986 6.217458344040504 3.0589792049195035
Zn 8.129808393040049 4.264614027952522 4.621982441961655
Zn 4.422566672155132 5.938722506974519 6.323532098412061
Zn 5.869132480174057 5.493502224623846 4.37267523019353
Zn 5.721331413301151 8.250691453472964 7.2614190770498945
Zn 8.580669589865423 10.013056117452173 5.60757619556698
Zn 6.294257318091868 9.593596974335915 10.160693299224913
Zn 10.52405813848422 3.9189382614877917 8.878000475850426
Zn 6.093013666652159 10.534385340460211 5.827394466229518
Zn 9.891011645916961 8.38905834906985 7.115234843083935
Zn 4.873317624243877 7.5271147397394325 10.546029453607867
Zn 5.3953512006249245 11.055332965689377 8.146928858993604
Zn 9.970104000108694 6.42850143344673 8.705955636060665
Zn 9.065510716209157 3.642806918970959 6.855316019961688
