26
Energy = -14.47049536 eV
Zn 7.802004095570059 8.749181450936192 3.988628703779486
Zn 6.704870442805133 9.812700751830926 7.923007565344736
Zn 3.0531271753866527 2.968667687366631 4.863913860515197
Zn 6.1852864153426355 3.8498967246123352 6.563069311583008
Zn 8.49215983382045 8.425628571935981 6.459426559259031
Zn 7.714021556158553 6.685643750633104 2.460982768825704
Zn 4.9420926951310244 7.580184128400637 8.632762714117497
Zn 4.768531383931529 2.940803170057015 8.662247521191862
Zn 5.874003334927463 9.573463141796068 5.389181400455729
Zn 6.0062903601287205 7.014392727057429 6.129388995711969
Zn 4.016023594290317 5.238333292322724 7.726887922686464
Zn 9.529937761960474 4.886863239007293 2.148611473797051
Zn 5.513352686094736 2.712791186549827 4.137776365764841
Zn 9.296280250655549 6.659798605835567 4.581670921194296
Zn 2.48584473851031 2.8241549833069355 7.458772063042139
Zn 8.24919561382402 5.6663507061678215 6.670885344109973
Zn 4.684319781573221 1.6847112930553514 6.4077894234308745
Zn 5.489758698449052 7.347379846899712 3.6264109081341256
Zn 6.420485065587644 5.343135789541747 8.74092755211264
Zn 2.008643176841213 5.0073898164424975 6.19501632954644
Zn 7.602707688096133 7.603024472301068 8.771925777308661
Zn 6.9849754343629575 5.142191281069514 4.418751675143386
Zn 7.623269433063582 3.196851458766431 2.728049195099413
Zn 4.205456261364118 9.67672475962068 7.3327250426686
Zn 4.3145054405104455 5.259826837405114 4.815062844633406
Zn 3.321782438457406 7.43883568392464 6.455053117387183
