23
Energy = -12.12576866 eV
Zn 5.362134580957801 7.478197285391737 2.6737165839487695
Zn 9.320000759225023 9.319996017880346 4.655276263269413
Zn 4.313016378686026 9.45936915308263 3.9475489933391743
Zn 3.6794825335171715 7.128721192296948 4.766062344941789
Zn 6.891288384458135 9.326731048404758 3.971208476045441
Zn 7.565024530855103 8.833390307516067 6.657180562451559
Zn 5.0869228477895945 9.434910411485886 6.334181748697318
Zn 5.600428461695075 5.112275913994521 3.48664646188252
Zn 6.520998839053151 6.8798127541795875 5.298699235550265
Zn 5.649434366553814 3.159592048895746 7.4496347786577415
Zn 10.014881389549187 7.943723988418115 6.6642440158639245
Zn 8.72731002907063 4.939569813539096 10.129700139172272
Zn 4.544944152043341 5.03300316987624 6.069544146373076
Zn 6.931464613385127 4.095916979640315 5.436068944212445
Zn 9.942257064004485 5.991330864770493 8.273686048580613
Zn 5.8449949260725775 8.415452572004073 8.63360499262266
Zn 8.381365673920422 7.924856134657121 8.97228747205876
Zn 8.733098474860311 5.849729572304364 5.937699870814332
Zn 3.852612417934351 7.237136169301162 7.381833518058297
Zn 4.620312216913257 5.246575905591152 8.725441416358112
Zn 6.602269281801041 6.428413610578295 10.01733685323162
Zn 8.16956209983044 3.9521079300615494 7.694346183066393
Zn 6.488433763547762 3.863590208312494 9.769808501001863
