25
Energy = -13.51412914 eV
Zn 7.78618177335169 8.523568696431036 3.1588123271834108
Zn 5.7712532143008035 5.170182144764019 3.8926567049300442
Zn 5.477090742123933 7.796239899504299 4.025498448413449
Zn 10.66356463771353 8.705218113022925 7.261513744822033
Zn 6.961582063429431 9.740530633664074 5.2741837910268465
Zn 6.162915053788501 2.89853707926843 5.048743366072306
Zn 3.8212553549155204 3.8845480499294873 5.1179526945626135
Zn 7.7556251486277255 1.8889623570944005 6.737597288684029
Zn 3.7642526369473597 6.4832860645224795 5.391912474308797
Zn 8.792163397349965 7.270211942973108 5.062806501934659
Zn 4.523515903468277 8.80098547571694 6.370544108761423
Zn 8.059178350201247 4.749245931836493 5.270695447301198
Zn 9.735354663686296 6.0800558842841825 7.090448959409363
Zn 6.322659942651291 6.572803008209303 6.247304335829662
Zn 8.943239453542398 3.7915426812738175 7.913386369375728
Zn 3.663497077240504 4.896303705587314 7.473431384684856
Zn 6.222352661829228 4.212724014488909 7.465153165316469
Zn 6.353628136503409 10.306826323965327 7.642210223320471
Zn 7.9422380859884445 8.138001372114992 7.4234133866992105
Zn 4.586168036281466 8.730467464653778 8.967250670825878
Zn 8.001358198342556 5.848585195838621 9.033246552820062
Zn 5.385146111697269 6.347031739882238 8.788829851619973
Zn 8.973627086711328 10.144754103539363 8.811384075578301
Zn 7.124248577237336 8.048128842430499 9.92929331542525
Zn 6.764814472439729 10.52817005537263 10.158641591463345
