24
Energy = -12.60588594 eV
Zn 8.628787938232316 4.792157278499009 8.789231984647397
Zn 8.295297857598397 5.508935180535607 6.391118633445901
Zn 8.053367995487523 6.381339405782963 4.05074481032551
Zn 6.587317294537444 5.675669985151126 9.986551196727241
Zn 8.606219133561893 2.8578915339107565 7.027537323753879
Zn 7.824481438964706 3.8437975020853616 4.279581300417515
Zn 7.751635226655279 7.3373767223417685 8.349367046662056
Zn 6.315494549991794 3.7645169435440207 8.12023599742277
Zn 5.775766631820126 5.80119847487975 5.892503129308168
Zn 6.347201853985057 5.357686146605626 2.4315511214184418
Zn 7.496877709327391 8.084100720564777 5.894823593875041
Zn 6.461801512034008 2.3423685705178316 5.871731647054052
Zn 6.249314119363155 8.130389223331798 3.5410411867001406
Zn 4.6740260059432455 5.927851938598229 8.240518145021607
Zn 5.5083015442925864 8.268602234423529 7.499318512495854
Zn 5.150558524823422 3.8848443715570373 4.27278127495153
Zn 4.188478867799461 3.4613469071063223 6.74786210566955
Zn 4.9110700413770525 7.197827519710157 1.4253294997688501
Zn 4.6525021982470705 9.351885416696113 5.302452166872654
Zn 3.4431027354225767 7.116199303061075 6.0996723682040175
Zn 3.9402638952787767 6.205997450859746 3.666293400503792
Zn 2.329889078138194 5.166823421012148 7.423888532705094
Zn 3.6480729189966357 8.736735094397305 3.1034045744859777
Zn 2.657352263446885 4.495432423275286 4.989204062585667
