29
Energy = -18.02158991 eV
Zn 8.326533916479347 9.506481905804879 8.095572628959305
Zn 7.673088283130293 10.098190820079529 3.910354193494155
Zn 9.26839037913603 9.984050946330287 5.8551728302894395
Zn 6.530115956431494 9.837381247168178 6.230443402323205
Zn 8.186955724322381 7.2062084617145254 9.103993374377653
Zn 7.199661137104795 7.90683213781095 2.6927369584336582
Zn 9.895766885987536 7.613844751087302 6.923062382689735
Zn 5.969737981486531 8.56887158662782 8.518374958762863
Zn 9.34128239940702 7.963004695388798 4.253850482341928
Zn 7.319782214321498 7.3255667640323985 5.848402358983949
Zn 5.281016134871554 9.171520974086643 4.028493262113356
Zn 10.230408415485137 5.751474044276956 5.211846548815697
Zn 5.8917212004132145 6.891544413716203 10.56757477658413
Zn 7.651262986487682 5.003080460343803 10.281912113921015
Zn 5.870563242970876 6.020898686415244 7.46208107620762
Zn 8.403397275227032 5.335796008287244 7.306911477893559
Zn 3.77942169170869 7.1914109441770515 9.13837221397177
Zn 4.601613663949835 8.036639118947308 6.277110462421815
Zn 5.260306941732201 6.62058480199654 3.8185328841261623
Zn 8.13552749595761 5.749077018700443 3.6067839805245767
Zn 6.949719162496984 3.3479617906637293 8.58179884160378
Zn 2.2568699994486923 7.205895464727899 7.098672199692659
Zn 4.849216157024069 4.736805626791055 9.515476207648208
Zn 4.7009121836171825 3.536208494151553 7.095659917058998
Zn 6.869981177521945 2.332928292199796 6.308438677970162
Zn 8.779069562781638 3.7559620720284213 5.2125867327171775
Zn 3.7187222179851793 5.521681470253167 5.630027320259084
Zn 6.268816764465682 4.692201930109805 5.16196403377038
Zn 2.722975177285774 4.932048073429484 8.047527376341161
