23
Energy = -13.30955604 eV
Zn 7.768598789763224 5.626452276519283 8.652663735471178
Zn 7.095140511102391 7.593745486327956 7.046574394062203
Zn 3.9533575020375005 5.114622068716291 7.10944324358976
Zn 5.203440451888142 7.8537938469577595 3.6574464166214185
Zn 3.288637070199329 9.599952518999798 7.357746467556925
Zn 2.932949348400787 3.569457188577599 5.310401615976533
Zn 7.7292874409433185 3.5737157652995566 7.0085150753213545
Zn 7.709139051680817 7.488597225833166 4.3897005502789455
Zn 8.862383981471432 5.88352959538186 6.241087289584373
Zn 4.961224243278331 9.141848513780305 9.415480439838849
Zn 6.251553506249807 9.391821348861974 5.3723576058176405
Zn 5.675763102957395 10.765239377641148 7.523988912227409
Zn 8.786623376817639 5.313533235469184 3.5725105028148363
Zn 6.216779310400776 5.46293562961576 5.76257598581471
Zn 9.59216842949729 3.5567926639213496 5.232294097957059
Zn 6.247234045069806 5.5058968169974225 3.1499089521811428
Zn 4.766893287855711 3.365069173622074 3.56958947898476
Zn 5.737885941282716 4.0777155313045865 8.675828568946503
Zn 7.186190024324812 3.194466815611447 4.314038985681776
Zn 5.32032554937672 2.992241300126402 6.235539133762562
Zn 4.471165459320851 7.470614976058447 6.237270042561872
Zn 5.366263741210271 6.632419918584373 8.82159631274713
Zn 3.8309659434513303 5.779508834372788 4.297412300781451
