27
Energy = -15.06104859 eV
Zn 3.1629427128362546 7.756133203502368 9.554817554220124
Zn 5.238350789771401 8.59185968357135 8.191500417555055
Zn 6.5857206370457515 9.046719799110463 6.068238828469078
Zn 8.643328591949826 9.5308036393743 7.518647765450118
Zn 5.437648574263726 6.811955022556057 10.071820749240377
Zn 7.754150462796548 7.95902871682513 9.236065746653763
Zn 7.646606561532317 5.904619904764221 10.793261813401987
Zn 2.4959254514049087 7.216962966114515 7.219719355456378
Zn 8.836270663465925 8.960371244268229 4.86544797072591
Zn 4.2463507063699 8.220911011360592 5.585006772842081
Zn 8.831612486980703 7.04261320531269 6.669160632078821
Zn 3.8297714426004403 5.3168977172076195 8.447118782888971
Zn 6.209401810109798 6.367559220364647 6.888381728816276
Zn 8.315377740643253 5.25403545962712 8.464888426386079
Zn 6.107188508136386 8.613059883623027 3.575394615323832
Zn 5.97335855261602 4.248878208187804 9.400222242649042
Zn 8.44323756265943 8.368316562900963 2.4655453911202385
Zn 3.651349902798133 5.692402531631434 5.56818477132172
Zn 9.304275430243099 6.458095609050771 4.016864426653731
Zn 4.346357089409135 6.7955825447560745 3.2867623182016596
Zn 5.118313856123374 3.8807893830422304 6.769199608417497
Zn 8.70939054730459 4.5961197082371825 5.9418662344303455
Zn 7.403112133861323 2.945959015339243 7.773823516020036
Zn 5.471860567089081 4.605144486610365 4.031851849326418
Zn 6.88338275262418 6.3029961612865435 2.6011727968724823
Zn 6.909143163984475 2.9078393912443286 5.221276766911196
Zn 8.110145197298891 4.2392866719772515 3.396620614023558
