26
Energy = -15.02056703 eV
Zn 5.6361132133241005 4.925145781253352 1.3163806208170385
Zn 3.4556741349207343 4.909677269556041 2.569371909179324
Zn 7.483035586921135 6.780141094178986 1.5349737968679922
Zn 8.05747809792213 4.341811998806019 2.109431815394863
Zn 7.241387499751586 8.159479826710214 3.654793478853242
Zn 5.73604994668368 3.549970168146901 3.565304919021876
Zn 5.602260077147798 6.191576409942762 4.0731983492327934
Zn 1.7599990285203824 5.953777786827647 4.105310551245918
Zn 8.133170938657162 6.176070526714671 5.1178337984378315
Zn 3.772855046686534 4.328926476360164 5.177464577536831
Zn 7.589137514955394 8.728954895130684 6.196310223995831
Zn 8.218207455253156 3.631867053251702 4.497004736994289
Zn 5.273090223368235 8.822352930222122 5.262386019040565
Zn 3.7283424898379116 6.973243370571513 5.861127746280942
Zn 6.15300047327034 2.928318540533454 5.980983713554591
Zn 5.964743820904286 5.566483187874226 6.53434375940727
Zn 0.08982529095065038 6.384532922334822 6.047603308033692
Zn 8.642079795352807 4.293278900277634 6.91715182500603
Zn 2.1097010908165594 5.278454371704992 7.0862248197999556
Zn 7.970198082191273 6.80502508436 7.795667083539983
Zn 3.6380787792455758 6.336698382288482 8.748428453154345
Zn 4.2299835951882265 3.910199565963208 7.715437925643636
Zn 5.493283566935021 7.922781737907854 7.762620054910598
Zn 6.628415248099468 3.4053087509705064 8.407687140185999
Zn 5.95625588257731 5.7447275938251146 9.479034554403283
Zn 8.401160916132566 4.9147231699011735 9.447452615074383
