25
Energy = -14.49094839 eV
Zn 7.7063790929560145 2.8348956731376496 7.665276045038473
Zn 4.25496066189756 2.6918690087234007 5.103998158098951
Zn 5.886031625785463 5.513271454429145 2.487944638566342
Zn 3.1746663608419077 7.871822354477237 6.002634299072267
Zn 5.742206783717687 9.453366940494023 8.435401693435589
Zn 6.960740789952339 7.497482168436441 9.539990110360087
Zn 6.93513842567817 2.653892120750326 5.187904205167163
Zn 5.284744733718361 6.354884491910898 7.3962940452997925
Zn 5.729266515747539 8.657146947499104 5.972950907181343
Zn 3.064633361479765 9.217425535011364 8.181653585402573
Zn 6.934327402545589 7.641320403187976 3.92910828980262
Zn 5.381883373299163 3.7935757484016266 7.16962595697864
Zn 7.838838431296989 6.996070761858687 6.352343186515825
Zn 3.6205853953335896 4.537304060879893 3.412317457582434
Zn 3.46467606204554 5.1604847934228255 5.891379507048551
Zn 6.184757314270383 5.269408336867035 5.148329931825479
Zn 4.408547971120262 6.967084202445307 4.03963864104763
Zn 9.299673246833713 6.371137347931305 4.312375207094263
Zn 8.785894287063018 4.471055969430048 5.973376177865707
Zn 8.059399437162421 4.157405454821232 3.4128463130515776
Zn 4.320759054245276 7.467431013224366 9.683998360061905
Zn 7.554070031802682 5.27495086938924 8.302076685017967
Zn 5.654353306319709 2.9750545855107307 2.9701153945987495
Zn 2.3305250405398112 6.621526677879207 8.209598538689242
Zn 8.243087834197729 6.370279619732492 2.0389692050482524
