29
Energy = -15.83683346 eV
Zn 2.4886460236726378 5.146798114011413 5.747589631236458
Zn 8.590087728454474 4.138785687431438 4.549394441716423
Zn 8.357962065872956 5.650729679988223 0.0367971604984144
Zn 5.001798065466736 8.986429634475007 6.615467500630216
Zn 4.024883960316048 4.685352109488127 3.7090041890711825
Zn 4.917070977235256 8.315920281345802 9.103591930081835
Zn 6.211003842592793 3.3323462453522765 5.1628789100856105
Zn 8.762798274138612 6.32500542607124 6.018790075239268
Zn 5.488359036896038 4.237678819735778 7.491625695511784
Zn 5.635995864929039 8.851986059301852 3.780755668794505
Zn 4.9026276756441165 6.783849889136273 2.4502375562642578
Zn 7.030338391557396 6.654138802642227 8.013350073484435
Zn 2.917671119953209 4.146692788283882 8.189933971121183
Zn 3.6676927368422136 7.249628361785243 4.787032109432729
Zn 7.564739766466157 7.07671713449286 3.5303086993563326
Zn 5.859866129004933 5.998561648142415 0.23266019290671464
Zn 9.118636371096981 2.826086812535502 9.006183543211852
Zn 3.752067149896863 3.004560086177723 5.7538489693479855
Zn 5.929020236750793 5.9540865841586035 5.420548158854654
Zn 6.4408001709123015 4.591900047951411 2.7630318696582803
Zn 3.2946040765673903 6.219280845211367 9.72824448363805
Zn 7.1431867849813235 4.459509612588624 9.573140046109607
Zn 4.623696409747529 4.01785527437106 10.1302043931606
Zn 8.076175014531366 4.106713216995849 7.029083959724998
Zn 9.011852394321483 5.279020696244131 2.398350125752351
Zn 4.117177633283919 6.545630111083746 7.264715552559159
Zn 5.874714655843694 6.430577504301124 10.41739895497156
Zn 7.252980490496221 8.306368228265418 5.858732739316717
Zn 3.4073269090576463 10.141570254961405 4.70087935479237
