29
Energy = -18.10866719 eV
Zn 9.058605229630997 8.81559311798952 8.949927999189336
Zn 8.570568754461847 10.36293489554741 7.040857788737488
Zn 7.217929006392692 7.7784907439010285 10.328514729853636
Zn 9.651814312692249 7.75607515420629 6.6617086478789265
Zn 6.600887206504634 9.757438757302122 8.6290703569295
Zn 8.21926173628455 9.14534120244699 4.858347674161291
Zn 8.514231403218805 6.272423774747785 8.603244900567372
Zn 6.195400628473041 10.23130760144633 5.918540570059511
Zn 6.041547113876202 5.765965032847571 9.23410091235603
Zn 6.85848064744243 7.6229085488985024 6.988917853097923
Zn 9.30201323038356 5.109587169861893 6.429613906372038
Zn 4.818161294291621 8.021870457809705 9.538851708081026
Zn 8.86944154102397 6.7181420459176415 4.42176944252275
Zn 7.4929167770850205 3.905204159492409 8.090829704963578
Zn 9.093341579669781 4.179917814658916 3.9972416606702628
Zn 2.252930029465627 7.661532730843846 9.80183641786844
Zn 6.646995507404446 5.4192335967038545 5.904399278907925
Zn 6.2384211137293875 7.459405151574807 4.3170090613196255
Zn 8.386204326240618 2.722466544792954 5.9231518626572095
Zn 4.256497883180361 9.414137642501705 7.532085060331016
Zn 4.493513258727562 6.555953175058693 7.140708011738228
Zn 5.943294395528092 2.4080186407668607 6.477692343382021
Zn 4.220901141832873 8.840086181654973 5.125688349301118
Zn 7.220944580109341 5.478823365734316 2.8781877813901984
Zn 4.747990299134966 4.022851949146323 7.985972253519931
Zn 6.543901291831296 3.293922708081916 4.146770418370915
Zn 4.193420496627031 4.106085756540073 5.505394760072372
Zn 3.654709782156784 6.449805699409051 4.6722644379485185
Zn 4.790964009875739 4.918658160251767 3.079091172583708
