25
Energy = -14.35266297 eV
Zn 8.256394744651594 8.254128135217611 5.049724159707871
Zn 6.795085846947902 4.350532052842491 7.766950495325888
Zn 5.649247211564516 7.7661786364092205 3.8337634610890383
Zn 7.385684732985263 8.816787317198846 10.655412773070537
Zn 7.5355947998643 5.8381918527409615 4.256529206429142
Zn 4.913770912433464 5.207349901877139 9.24007709041956
Zn 3.4971766397574156 6.712338311659139 5.284814156177005
Zn 10.871437541771073 6.705523791385926 8.381009330952587
Zn 6.22841432217406 3.503630013564765 5.287666210844963
Zn 9.83251100666102 8.808663190331464 7.387628105733728
Zn 7.656130401172597 6.483975542873281 9.200214836173261
Zn 5.029022681346319 5.2912568276753 3.9249944162628925
Zn 4.07331980560172 7.186891108796769 7.893950924951481
Zn 6.393486944922332 8.981549818307206 8.157396137804096
Zn 9.713200738906519 8.13696856745145 10.059857698912964
Zn 6.554875145485768 10.086138735519203 4.7370909424758825
Zn 6.723641011944012 6.780326780341217 6.692440392929414
Zn 8.663741723553198 3.9299622058260995 5.640549792870811
Zn 9.61829236226649 6.335445309072879 5.933717892286128
Zn 5.277263713361041 7.516524860511383 10.144274693091647
Zn 8.639531546734426 10.435747322840296 9.1395068123176
Zn 4.900106742221163 8.811748287149786 6.127476705005478
Zn 9.288179078510733 4.762319464473965 7.959082917190799
Zn 4.37524055716703 4.6877395100625465 6.608837160209978
Zn 8.144476478360563 10.625909146235303 6.652860378131783
