23
Energy = -12.6979035 eV
Zn 7.341158171176052 4.571455176559093 10.414149678298767
Zn 8.330112727795166 5.657588003120713 4.0037587118028055
Zn 8.066864596862827 7.944345843053702 5.649688248172427
Zn 9.239360888909044 5.6956235621254026 6.4173244752009815
Zn 7.367621103629199 5.982565214431496 1.6479044759640042
Zn 7.497270922645726 4.557695242291837 7.852921958964948
Zn 5.892746347965329 4.446039248525529 3.0706222989765792
Zn 7.737780238313088 7.1527667231319345 8.066687731648514
Zn 7.102122586304184 8.0451408435923 3.297748314834483
Zn 6.910465833214506 3.9620318041064797 5.471319822439578
Zn 5.992381029353708 6.3514642102021215 5.259428860574832
Zn 6.4643369862464475 7.039666230951601 10.461905652103777
Zn 4.9992893109987895 6.894761257142929 2.227942326153022
Zn 5.495892665472638 2.82197527307788 9.70877552545994
Zn 4.680452160606193 8.534948322177351 4.221421096295967
Zn 5.857602062550658 8.49389289924472 7.020334856277476
Zn 5.067377307574833 3.1919168498910486 7.198916938438128
Zn 5.158111108524053 5.868120574216554 7.624899456625109
Zn 3.7406946161099093 5.708285964709907 4.119029364814476
Zn 3.7425196243031853 9.614847200261819 6.322543771623474
Zn 4.444142310876751 3.1513496345852867 4.721337317801779
Zn 3.197137420324656 7.145516326623789 6.330791688902436
Zn 3.073646863473569 4.594929916917149 6.345594025598959
