22
Energy = -11.70834322 eV
Zn 8.838170462801537 6.827837483435434 5.873078749315019
Zn 6.8533178794762994 2.8916054136208005 5.873078749315019
Zn 4.878030281806537 9.005787900745599 5.873078749315019
Zn 6.2340229478417415 5.994748262565623 8.819246676679567
Zn 6.921225936047021 8.072114373558309 7.194004100101362
Zn 8.042457084468802 4.714588373631802 7.233430138191373
Zn 4.443402616286297 7.623692665769211 7.9463997972048706
Zn 5.721058800670876 3.609822461105389 8.012033401287844
Zn 4.259531780687335 2.96545059940258 5.873078749315019
Zn 5.721058800670876 3.609822461105389 3.734124097342042
Zn 8.042457084468802 4.714588373631802 4.5127273604386655
Zn 3.868822812797106 5.231399651538558 4.579603721986321
Zn 6.2340229478417415 5.994748262565623 2.9269108219504725
Zn 6.041192921118266 5.916405671089839 5.873078749315019
Zn 6.921225936047021 8.072114373558309 4.552153398528676
Zn 3.868822812797106 5.231399651538558 7.166553776643719
Zn 4.443402616286297 7.623692665769211 3.79975770142517
Zn 2.872379655588262 7.327321582442421 5.873078749315019
Zn 3.785468543805895 5.075826944197763 1.0046884986300373
Zn 3.785468543805895 5.075826944197763 10.741469
Zn 8.716095953846617 6.814469212710971 8.619451130255968
Zn 8.716095953846617 6.814469212710971 3.126706368374071
