25
Energy = -14.87456973
Zn 2.7391204076386333 6.687713381442111 7.163014930610084
Zn 5.361141646880432 9.029940898000136 4.664377323345958
Zn 6.960988892470226 9.488895786495322 6.541568337289267
Zn 7.177843443654103 7.058739566004652 4.585526523247382
Zn 4.023476899835277 4.323393437188319 4.118765362333027
Zn 3.522778388504588 4.469749312286875 8.40481934620375
Zn 4.991043536651434 6.5610975696736205 8.825955891210123
Zn 7.229658083063141 6.997905014051739 7.557918592257058
Zn 7.277344613243994 4.444216606285155 6.405443871370299
Zn 4.724854195781158 8.48746133424622 7.184035020330392
Zn 6.345199289704913 3.2233700526960045 4.316385967070438
Zn 2.8762464115359276 8.395574262917304 5.200811867926957
Zn 9.805531013538388 6.724069426357985 7.767983225026044
Zn 9.9875114324714 4.463116657195871 6.400626900642376
Zn 9.243856226037728 8.624597191498204 6.120155696401674
Zn 6.3137993442486335 5.201024772419258 2.793028154864559
Zn 2.203229618371379 6.12138006460931 4.3603091949707675
Zn 4.93358548612803 3.390696061089129 6.50825289841494
Zn 10.064075980119302 6.614698531602999 4.896221085315041
Zn 8.651201049638775 4.654984785327686 8.698507282313637
Zn 5.212870194539267 6.043285458278274 6.01120226758362
Zn 4.5822499578415465 6.88173899004818 3.539053285315407
Zn 6.087398568767788 4.254319127110499 8.84136578533306
Zn 8.52708120164176 4.753686133016357 4.110671398264145
Zn 2.3509095958428032 4.29734105830914 6.176995270510211
