26
Energy = -15.36044728 eV
Zn 7.487790146286529 7.628338433263169 4.229844029591321
Zn 3.959349332362188 8.027091840578542 9.371336846683704
Zn 8.208737280996191 6.737791524270794 6.710246584298446
Zn 8.99341453659987 4.174943827582825 3.6017194201127163
Zn 9.85027263166629 6.3765003417162545 4.536873637487065
Zn 4.5388528614074355 3.946006398027028 4.460174712736791
Zn 9.770602093312228 4.477215506728237 6.22343216392728
Zn 6.420775808624452 4.760265949633789 7.675613326086661
Zn 4.977805330474347 6.389273257397523 6.004415189810648
Zn 2.622958784268046 7.775877203635032 5.236658086193004
Zn 6.152773694292633 7.300934879795786 8.261762482364764
Zn 6.948925941422375 5.049326914764644 5.040953453912388
Zn 4.030647212196596 5.531750285999975 8.551449169204993
Zn 2.7720833668695386 5.568025525820038 3.5958789171576475
Zn 5.078105812804619 8.73307006575883 4.453192655955339
Zn 6.885335572576436 2.6398542284248716 3.4136981780579125
Zn 3.3208824675597013 7.912402439534597 2.773395242631705
Zn 6.866079665040311 8.900300839968109 6.352508548224363
Zn 5.375020058102423 6.295044698139506 3.3644916071064612
Zn 2.517068277183875 5.232695126690064 6.130928900495121
Zn 4.1393239867055796 3.4604043794383164 7.039425861451037
Zn 8.372036770649315 2.9983882145671186 7.714857835068392
Zn 4.30376724266656 8.88242288906976 6.9497892976378015
Zn 6.204273579675647 2.4836771154626036 6.027707964588681
Zn 8.644991308771893 2.16489310552901 5.285845067079771
Zn 2.250692343269626 7.246071113988122 7.686366927921442
