24
Energy = -13.29925771 eV
Zn 7.279301861066252 4.955669478549917 1.6703620046412686
Zn 4.905217100843283 5.623870316041691 2.6949327823241824
Zn 8.39839864063261 3.126150790811812 2.9544019545695015
Zn 7.158882669229984 7.160764671868801 2.9761495811145884
Zn 5.824092623661232 3.237002681581501 3.3951661937322988
Zn 4.641733691330679 8.128465458491634 3.480174162784605
Zn 3.390754727501426 3.866621811776533 3.954087888968445
Zn 8.811191054598448 5.413988028935612 4.131282503608697
Zn 6.664543885442848 9.332883309027869 4.387974199254303
Zn 3.4299907228148823 6.40627771280286 4.861229981020746
Zn 6.163014151252643 5.598216798693884 5.00976685997394
Zn 8.86188816829016 5.215047822160418 6.8014668030583625
Zn 7.634521620593246 3.3687618698285173 5.441159516002405
Zn 5.347531271052805 7.982217477421382 6.195388700703654
Zn 5.073334756135032 3.3106667248453543 5.976239692931314
Zn 2.5600702160748514 4.375617368033771 6.315614641096299
Zn 7.988379588502969 7.432865014132849 5.568945425291315
Zn 4.6270529129537294 5.656555219781622 7.155520540410151
Zn 7.071355594355239 6.742481366702237 7.904840837580594
Zn 6.759917354593402 4.162928273186552 7.879835205656162
Zn 4.205265304232479 8.023309567170687 8.873544808476394
Zn 2.668799385785163 5.807017467853698 8.989138029547561
Zn 5.191094744450079 5.7283947122592425 9.883535206672871
Zn 3.1452567222646306 7.145814825698941 11.300831248237227
