20
Energy = -10.18437156 eV
Zn 10.39051642892357 6.443371391657897 7.883666985350742
Zn 5.102128756802539 6.171557704773492 8.412945364303575
Zn 3.5078442990451344 9.67224167128106 5.559569236909348
Zn 4.699463203699072 5.169663922029866 6.008269722419883
Zn 6.879644682562021 5.554561677103426 4.839447307767774
Zn 8.121895610772912 10.01659774088794 5.612408883570638
Zn 9.821298226719678 8.904329323903728 7.268662648198133
Zn 7.445938966266165 6.91697427713526 7.615647840720505
Zn 9.702510241633508 5.710741489316704 10.348224952846902
Zn 6.756646145052442 4.2396610195710664 7.383524177358393
Zn 5.950413129993516 7.952759243874577 5.328190238502555
Zn 7.701360812971721 10.176448607752786 8.203843793516006
Zn 9.255007700553122 4.99864284634945 6.065134306156597
Zn 3.6373322577827945 7.461462944176623 6.757866470915901
Zn 8.802278976516957 7.995431159176443 9.541466071329014
Zn 5.561017563758357 8.782577011432554 7.995103108938846
Zn 5.710190619183648 10.865392889522365 5.60309726487298
Zn 8.535172675605255 7.495470913352471 5.284795130358036
Zn 9.163690655565137 4.01179467160372 8.460870619269809
Zn 7.225900566384659 5.43057101489082 9.797517396486741
