25
Energy = -13.71916516 eV
Zn 4.278840017363559 9.026665362619298 0.969372139003129
Zn 5.944706270381888 9.41810207499098 2.8611152955242747
Zn 5.022019840613745 6.636777239054083 1.83774126064919
Zn 3.769360174380125 8.433685095636346 3.6861135161201335
Zn 5.964471782000911 4.569070444284287 2.989344048339066
Zn 2.554041330441075 3.7771029718530147 5.249580160088168
Zn 6.7071653485305625 7.10085636381437 3.764971569819673
Zn 6.181008666038669 9.239122027025896 5.449347078375337
Zn 7.563323815730567 3.076394840064314 4.491793984813809
Zn 8.542784455069587 5.346350213502169 4.156563779213698
Zn 3.990266416986724 5.838297685574296 4.296065400433422
Zn 4.999941864514276 3.1602146558303015 4.915913477829716
Zn 5.928413486725254 5.363777258146695 6.090881982609644
Zn 7.893949657795516 7.157898219015544 5.987933859646787
Zn 8.525779143362072 4.4742960419248945 6.621153546258136
Zn 4.370956187553111 7.57590963349038 6.279731072230569
Zn 6.588456757400045 2.6071321902418365 6.955241732869544
Zn 2.740767956882819 5.740913441267179 6.808016615707291
Zn 4.032450624246786 3.520323893926273 7.435080660334353
Zn 6.257974723056125 8.420483412382437 7.9121579198487035
Zn 4.858908595428874 5.8655731458420615 8.443732999348667
Zn 7.449791181187014 6.121486132786 8.283991419221579
Zn 8.029178661155354 3.5275920003651997 8.965847381671102
Zn 5.50802534407384 3.239906216199948 9.418249801889537
Zn 6.713217135612372 5.17786887669288 10.545858734685135
