20
Energy = -10.80700033 eV
Zn 6.959083463036104 3.2475379260722086 4.324303014572691
Zn 6.959083463036104 5.732758128981946 3.9616133481476794
Zn 8.456989863320183 4.206879674274362 6.1099026206375555
Zn 5.461177062751871 4.206879674274362 6.1099026206375555
Zn 6.959083463036104 5.41863183689078 8.054926112637181
Zn 8.499535089181578 6.959083463036104 5.863240813435025
Zn 5.41863183689078 6.959083463036104 5.863240813435025
Zn 6.959083463036104 8.185408797090261 3.9616133481476794
Zn 9.711287251797845 5.461177062751871 7.808264305434651
Zn 4.206879674274362 5.461177062751871 7.808264305434651
Zn 6.959083463036104 8.499535089181578 8.054926112637181
Zn 5.461177062751871 9.711287251797845 6.1099026206375555
Zn 8.456989863320183 9.711287251797845 6.1099026206375555
Zn 4.206879674274362 8.456989863320183 7.808264305434651
Zn 9.711287251797845 8.456989863320183 7.808264305434651
Zn 5.732758128981946 6.959083463036104 9.956553577924529
Zn 8.185408797090261 6.959083463036104 9.956553577924529
Zn 6.959083463036104 10.670628999999998 4.324303014572691
Zn 3.2475379260722086 6.959083463036104 9.593863911499517
Zn 10.670628999999998 6.959083463036104 9.593863911499517
