23
Energy = -12.58245383 eV
Zn 7.430310343435255 5.6505237139215385 2.617590833649805
Zn 5.071124175906039 5.264321540977633 3.58341324532116
Zn 6.288391273086376 7.627414543857126 3.99216643931549
Zn 8.682842089756807 6.212940574873933 4.870592852485721
Zn 3.7978266352301127 7.250187831640285 4.936077639028963
Zn 7.444708040570609 3.9609059908143576 4.548896026031516
Zn 5.122432221045083 3.510128468425384 5.483063831601383
Zn 6.964543466632364 10.167356642564213 4.4419429388239955
Zn 2.8879578469245355 4.909034837095556 5.065538426621654
Zn 6.0694614714596105 6.031826562464904 6.036409778011252
Zn 4.547381137065594 9.738114392301695 5.097267932478961
Zn 8.944307280377943 8.745185645315459 5.028425297081497
Zn 7.375080781757488 2.2373442780691137 6.797998653143163
Zn 3.9346723898754803 8.500153764949404 7.294817189191737
Zn 6.506238308096631 8.67809122732667 6.612318870812655
Zn 8.379145897564454 4.589261308749459 6.946358595092526
Zn 8.412560315643574 7.153238907283144 7.326094045162685
Zn 3.0597644033766893 3.4792952435109146 7.236039804383634
Zn 3.622788523742551 6.012360544172274 7.384318135944629
Zn 5.702383684191714 4.469315490013146 8.080677015867622
Zn 5.031574026986751 1.9289850904448924 7.6335599070705245
Zn 5.816579998338184 7.121887366064733 8.558657823695688
Zn 7.769371224397073 5.62357157062573 9.289220254644649
