20
Energy = -10.00510169 eV
Zn 3.5179690590326333 8.553306588185633 8.491402470017237
Zn 9.628146319545191 6.8029042210123984 4.523629773184539
Zn 9.276972516611385 8.697359733363383 6.249252343522912
Zn 4.279398920215379 10.361235677609185 6.814650007697644
Zn 10.361843388166836 4.736489177471004 8.501467113923947
Zn 8.01686930343195 4.119311155150141 7.445773325612797
Zn 5.43276486720361 10.129285054947891 9.221877557285058
Zn 8.489997059301626 6.658002610334048 8.188262835355987
Zn 4.381104918573051 8.003196999514852 5.598552718321662
Zn 6.216915608911946 7.701108984907488 8.860034011970033
Zn 10.930346246692634 6.8156612689489195 6.812967401586528
Zn 6.933486886475918 7.403387599278867 6.09039994819797
Zn 4.298829023215268 6.194021879326074 7.804252196817396
Zn 5.30308426476914 3.791524217829225 7.252649329778945
Zn 7.380397641503771 9.8526018104594 7.522756983755679
Zn 7.645394691002373 5.1371617718367695 4.997055488915203
Zn 6.276925303526253 9.872815507801098 5.188410257625765
Zn 5.108812581432294 5.470787061101227 5.367470220943866
Zn 10.13657606730585 4.499023897020982 5.901480468207598
Zn 6.34642450594319 5.1630739567605906 9.129914720138844
