24
Energy = -13.40502519 eV
Zn 4.0340159191783895 6.196941393442045 6.448501549335804
Zn 3.6661557706243393 9.02210991425843 9.389584147460555
Zn 9.521523724181565 5.629993644363713 3.627475342811997
Zn 7.594146379109515 2.644617813784932 7.426669951183421
Zn 2.198930748499874 7.165267583060572 8.251288059612934
Zn 7.158650037542439 8.78673137984727 5.895440073476526
Zn 3.736901230055881 3.7060563902120953 5.602408771174125
Zn 5.669060828544693 6.088079720621561 2.7056808354925583
Zn 8.050360612408598 5.96325244916497 1.620627873325799
Zn 8.40089396459179 4.987176881018185 7.902643857760633
Zn 6.656847595873329 6.826177375962794 7.665330228855483
Zn 3.3852342215175577 5.7124298050352635 3.9816443278710802
Zn 2.15536661239045 7.464398379419913 11.00784446728805
Zn 4.92511135558168 8.713199511815079 7.071554235189027
Zn 7.582276572054173 7.6272366555116955 3.634381256311481
Zn 5.00077601070384 7.7954688264799055 4.606940913527911
Zn 7.346026367745842 3.9872321078927166 3.1633337487423323
Zn 8.718595347148522 3.9840405693776146 5.4461896574166655
Zn 4.7241605974969385 3.6658652816340904 3.21723787295645
Zn 8.69655847436012 6.669243154507599 5.869890443223166
Zn 4.472820268436407 6.455014986497595 9.480994531389706
Zn 5.612951763381753 4.36819226785401 7.445963151088665
Zn 6.409128339432946 5.565087533211704 5.204868019829636
Zn 6.206618605555066 2.8992977214424798 5.256618031091717
