27
Energy = -16.54151944 eV
Zn 6.565822966645278 3.754521505086163 8.143700918869865
Zn 4.33581403969174 7.129755203773543 7.488001655618246
Zn 6.473936384313102 6.194033611527133 9.029668060073599
Zn 4.26333868087936 5.000114722803847 9.11818092641008
Zn 6.176906573619638 8.758744450455822 8.9143487463308
Zn 8.459625408332817 5.476267884341538 7.428449465399776
Zn 8.499468453110337 7.716441159095344 8.864045843269988
Zn 2.7408689924604532 5.022611617671831 7.101996380374089
Zn 5.224304332395601 9.562892736602485 6.74728039113633
Zn 4.029761683256143 2.8715707807964823 7.813804009577266
Zn 7.827234636958474 9.705630575003548 7.0099369847154955
Zn 9.633845641780628 7.6819151385116164 6.648069590343607
Zn 3.708434894370847 8.312208826194396 5.158212575864325
Zn 7.808958767545322 3.689776458235527 5.642786278007978
Zn 4.414192885780067 4.396664613800664 3.097420547870123
Zn 7.068101500980855 4.942720275092338 3.4883541606186164
Zn 6.068868478574787 2.6527890982831788 3.8711509015816143
Zn 6.73474531065625 7.188921629799692 6.167090628409096
Zn 9.036179937502482 6.0136976779629165 4.850302476474756
Zn 7.680292710938803 7.458719118082793 3.1189033904395993
Zn 3.507974784066596 3.1396843252698754 5.191592931790215
Zn 5.238920489465832 6.777841405158239 3.7549821753011425
Zn 5.863781191015944 2.1046317679243285 6.303619539586161
Zn 6.1806012482066155 9.172692806846536 4.372647455374867
Zn 8.80262026256799 9.003591647761642 4.6707536097036835
Zn 2.986654390502614 5.888775187135315 4.755489553312693
Zn 5.394471564591414 5.108511986993408 5.974937013755097
