23
Energy = -12.56865325 eV
Zn 9.098520250548255 7.793513017351445 8.541360306689448
Zn 8.163989114949173 5.768113119309327 9.990469520204385
Zn 6.665556599052989 8.700924740308002 7.966455927592072
Zn 9.963675737388085 5.312178089682889 8.132068767427526
Zn 8.522614497595951 8.25715648130656 5.998035634057703
Zn 6.910470832597036 6.264155475429414 6.841126274093659
Zn 4.206028066895912 8.885930159128552 7.186408768640627
Zn 5.03712737221629 6.778317925267445 8.603504342859008
Zn 6.362723133486026 4.4419528824422665 8.728787539004973
Zn 5.766916593513752 8.415724972546284 5.286584807623128
Zn 8.280091701845684 3.9814210940574797 6.719522925431077
Zn 3.0015294183962444 7.622523014037935 4.670270752799465
Zn 8.596249986336991 5.927123413150905 4.858904283550858
Zn 5.089222087147673 5.9690461658680025 5.218774192973507
Zn 7.568010986409508 8.057492908680928 3.6049091422982817
Zn 4.235984983126359 4.597454624801264 7.3102078333622975
Zn 5.959980468963801 2.739228090628524 6.765006703995724
Zn 4.81944917956598 7.1953871005595165 2.805516624341662
Zn 2.85143547571956 6.706945982021511 7.041557269537574
Zn 6.759291976761153 4.019423541655532 4.656791286167306
Zn 6.896006644277553 5.720163678195571 2.7847729544322215
Zn 2.999751821957508 5.248491742781642 3.330760844350626
Zn 4.154120070290482 3.5566505832199704 4.861149412730016
