21
Energy = -11.06198634 eV
Zn 7.956982091674464 5.740073990158101 4.1864068714102824
Zn 8.028589421791422 4.32085927612341 6.561895678476716
Zn 6.1720010279856306 7.410193988291411 3.1619985242009054
Zn 8.761337465176323 5.668345957708687 8.614461785608441
Zn 7.02890577021588 8.813963493590277 5.0763046604038635
Zn 8.570633379515519 9.942527162910979 6.883476040842067
Zn 5.832283521788594 4.8764209241341305 2.984344954544409
Zn 8.695416290957432 8.391710683742112 8.879184739304995
Zn 7.158363645900631 3.136597910530144 4.441553608090156
Zn 8.321775884152421 7.009918633165954 6.40224334598842
Zn 6.540931290672213 7.011215936910141 8.90111927385883
Zn 5.717629994515831 2.9106287251132965 6.6486151807661935
Zn 4.414039042267325 8.483028463204946 4.736093534226658
Zn 5.947867454549669 5.893135177415258 6.050641495278192
Zn 4.442543165215773 3.4346657495878925 4.551656356272511
Zn 5.37639320410505 8.271912521918718 7.085589358028217
Zn 6.175441522614649 4.542144605714123 8.47061413835162
Zn 3.9517430250357237 5.980566907246861 4.327146924816949
Zn 3.5081302719454914 4.5039464100416335 6.732749837836177
Zn 4.105074358556108 6.225481518029222 8.516874459357188
Zn 2.897842512584125 7.120266774969266 6.444418091087778
