27
Energy = -15.79368333 eV
Zn 6.3324628955152376 7.695818220847811 2.1260908383584676
Zn 7.516982331189381 5.31152761447548 2.678694813540431
Zn 4.909074074041439 5.778434011755473 3.115303042280595
Zn 8.73385016025253 7.72095269280398 3.0489316857815854
Zn 6.182062246869487 3.220852792356491 3.4093480966361187
Zn 7.123269232525785 9.731441047586872 3.622701296527911
Zn 8.01776946853165 4.20484926044342 5.086824487722176
Zn 3.5851614527180127 6.5514331982311855 5.69494468187116
Zn 6.930404364306365 6.620341562469381 5.021250414336648
Zn 4.90397343487849 8.299814645586602 4.290857953677908
Zn 9.321749966220219 7.515493358230324 5.534872287022207
Zn 5.085025779312056 1.722949764907221 5.184403742532681
Zn 5.2687859706405495 4.595288025808338 5.647205601858784
Zn 4.81015753830355 2.5989997102135063 7.585435911407935
Zn 6.753699771429758 9.003275558679109 6.167381872436091
Zn 9.094403572010984 5.519584031027468 7.075451520333918
Zn 6.103518087321527 6.513672321064018 7.367010157460021
Zn 8.388744669457676 7.864197652355153 7.950241257652119
Zn 4.1744491542392925 8.851335219411533 6.6535513712294625
Zn 7.121710998332992 3.9570630103082642 7.501727530488285
Zn 3.8531905206104016 7.0213035072429655 8.501593209054455
Zn 3.36561981754247 4.707603839575282 7.488627021640756
Zn 5.205257822842355 4.554337690602375 9.346297091147502
Zn 5.791554221083987 8.954602009968287 8.735545723837118
Zn 7.608126624760141 8.120042812181952 10.389279022828317
Zn 7.6054228759152425 5.673195663606051 9.44692873082047
Zn 5.398655255590376 6.876673084703078 10.514582943958528
