25
Energy = -13.312519 eV
Zn 8.212008199481495 6.407848148458969 0.7606649988938233
Zn 8.939242856312658 7.446575063247301 3.1018451411414034
Zn 8.554905448082003 4.88727534273285 3.007524231214315
Zn 6.350625387282341 6.968697034437062 2.5890454323160954
Zn 6.112864461717726 4.259154750769295 2.7254069764301154
Zn 3.943977617569784 5.716753842550746 3.2338019522992862
Zn 7.185032541495651 8.265911791987891 4.832816599535737
Zn 4.516856618168659 7.66383976800747 4.890691332241498
Zn 9.06617818704931 6.000067988339952 5.3526386974385955
Zn 7.442318287886013 3.393022514044905 5.079649310141143
Zn 6.455575244605821 5.795393088759286 4.961438583657372
Zn 4.654607645015658 3.8176461750332527 4.9365332263957455
Zn 4.98448546491545 5.762471998766005 7.02073200069342
Zn 2.750017473707012 5.692745279352471 5.557938869247432
Zn 5.6542308269023 9.131323483459402 6.705260882719935
Zn 3.1306060983836 3.357072049483134 6.8772936564656515
Zn 5.947549592825643 3.2525897190686948 7.253432422754693
Zn 2.250908613968759 5.435803105283447 8.102256871756293
Zn 8.35344591015872 4.454512373537252 7.3786669670825615
Zn 3.418856106162833 7.752514494224357 7.342664912645203
Zn 7.543090840284107 7.020569444715324 7.234377516218737
Zn 5.826142604444749 7.91269564308322 8.985235054897663
Zn 4.003359533098806 6.405068879199216 9.735532137007032
Zn 6.514924225779536 5.305504949572151 9.09524450758978
Zn 4.1662637263756475 3.873016583561461 9.217381230891592
