28
Energy = -17.78664312 eV
Zn 3.261863693195574 5.691240103455903 5.224578765142285
Zn 4.350113608933264 7.667678439061841 3.919544634923192
Zn 8.853992407338534 4.20715377430237 6.398743858131941
Zn 6.218926578915621 9.456715986897509 3.6911683992522613
Zn 9.085763108804665 8.47315881272083 6.780438471178525
Zn 3.2851255139368596 7.918733103074177 6.428078950775535
Zn 4.696798904070878 3.175684095609775 8.582958172694147
Zn 7.4465174521040565 8.948383862935367 8.587276453078333
Zn 8.868591142739009 6.443732809957511 5.214327537891628
Zn 3.5486529846493813 3.2855674283515324 4.329048257083491
Zn 7.215989218472062 2.936277605467218 7.860280237594446
Zn 8.5787369240127 8.8528804967271 4.331194347180487
Zn 4.297975048232485 5.859214166739648 7.7135141995548135
Zn 5.904520161424024 2.6926262746769236 3.6723421838300156
Zn 4.928115831481633 9.197707107766986 7.87772901109696
Zn 6.10954527166752 7.285337328994267 6.059042688299321
Zn 6.974302114461627 6.9702560228389965 3.5009654862580577
Zn 5.209815815972414 2.237077284463538 6.172220914228942
Zn 6.392217578654058 4.8497508291840745 9.307844967772663
Zn 3.0510933990223412 3.6516299421561595 6.781450674109427
Zn 5.752344059384661 7.272143275164383 9.308547399549122
Zn 6.924878632844149 9.897844095683944 6.184472935475261
Zn 7.772413009124368 4.4783097394524365 3.904338358556405
Zn 6.024718239145482 4.849047582029994 6.04898320712248
Zn 7.845630865121894 6.259669608895748 7.707183585241797
Zn 7.692099769972738 2.212521653320854 5.381519824079764
Zn 4.434338488666447 9.920409848049088 5.404049079982059
Zn 5.144309451456264 5.178637995826117 3.4975466737214984
