26
Energy = -14.03408249 eV
Zn 9.31442243131573 4.9516169517533655 5.800489641520738
Zn 8.831341551861824 5.918287268517527 8.249374032642354
Zn 9.567070599049131 7.633085170443654 6.403298694652227
Zn 6.427033530690224 6.155234188237105 9.436912916367778
Zn 7.294650944106846 7.903505512517297 7.853614879695675
Zn 8.949687183523064 9.325641542154944 4.636081331111198
Zn 6.9830995612406035 3.7662885784545495 4.827941962193598
Zn 7.594109658799821 3.8845848978393325 7.40299061091731
Zn 5.664991429268002 3.7544101196377224 9.070894625825902
Zn 9.190161810418461 6.929087145229956 3.645511321066091
Zn 7.590481591209946 10.302601888059526 6.5278178911428695
Zn 7.219056819630288 6.543266794161778 5.541810612824457
Zn 5.773419543445534 10.184483047586259 8.354707056183607
Zn 5.460659655612589 5.729428402115231 6.999857644192326
Zn 8.843765123771076 4.502640843332176 3.146872312730235
Zn 5.074359315562632 2.9384545359558127 6.448704103922379
Zn 4.370624238270594 8.230136812601042 9.057833686739503
Zn 6.749474291346251 8.56957687488311 3.735828630174551
Zn 3.5477801953420554 5.842305478116624 9.072594977205387
Zn 5.46760758713034 8.533375861197262 6.091538021834575
Zn 3.311986064335971 3.3929121167585863 8.354634140421291
Zn 4.598591131613782 4.83274725517208 4.38956447725048
Zn 6.518170499571096 5.9155799459698315 3.064763501935822
Zn 2.9099345012558193 4.727522825374776 6.303617801688432
Zn 3.3264081009150237 7.2411003429031275 6.528678417918927
Zn 4.464079320825432 7.335092281139739 4.097033387954558
