23
Energy = -13.05541881 eV
Zn 6.893374702244354 4.597938782747448 3.383573061005537
Zn 8.11050069057874 2.827899944801388 4.988623596435473
Zn 7.17348066818602 2.0164130501128703 7.2342521804414535
Zn 5.196463219506045 4.468184053821237 5.318688896432757
Zn 4.972640238044535 3.2397425661848693 7.63284903002563
Zn 8.364620470296735 5.456199782606762 5.305031931969987
Zn 9.333165473748734 3.5239690658043528 7.378901242641969
Zn 7.519596892376191 7.121980726109603 3.4940241716576255
Zn 5.062400470099289 6.57916279335233 3.3235676708169013
Zn 6.019618665051899 6.800502786785608 6.124042984921899
Zn 3.1539938114167696 4.976083877151202 7.1332483267092215
Zn 4.706783909658711 5.441535170237188 9.078247979261677
Zn 3.460189009916987 6.646987543636628 5.328961244391891
Zn 8.36357781987427 8.104716698547096 5.716222308626025
Zn 9.115602286537024 6.281596492263653 7.587772676523489
Zn 6.907601359456476 4.942695374893186 7.6775454738115005
Zn 8.502058156794405 8.621160369334875 8.290238153052952
Zn 3.945571645033877 7.550511532383843 7.756000090305883
Zn 3.71930780913463 8.86470266793542 3.8796313586918454
Zn 6.174056714057973 9.071551076797574 4.539179141085529
Zn 6.295046157271913 9.331944407226672 7.129710931003794
Zn 3.9618157714878066 9.672890143105061 6.269464087064789
Zn 6.424859662539302 7.259526632371931 8.834172398052518
