22
Energy = -12.2956171 eV
Zn 9.25874118586793 11.996939885198799 7.801571535520885
Zn 8.57643069004498 7.807345941083538 5.712668992055138
Zn 7.063910566265013 3.865553289583933 7.73132435720917
Zn 6.819449739900495 7.252081882181872 3.8576046270080875
Zn 6.067715653953392 6.081623132333097 9.121498511535822
Zn 8.450724266537703 5.104959891683666 9.471949108099613
Zn 8.174619788496077 7.456523053389018 8.30468059501157
Zn 5.58094280244669 3.9054595634749267 5.613593669167674
Zn 6.434985056125322 9.419347256574056 5.20364237840944
Zn 4.73001455292985 5.738766609884778 4.106111691120916
Zn 9.045430742316858 5.458077578482501 6.864987337161323
Zn 4.515748946493921 4.359411564147475 7.9427991267119
Zn 3.0302703599931906 5.3752885604606675 5.97946579229005
Zn 6.487390314747156 6.2285260441275545 6.345284325949378
Zn 5.8399841391300145 8.456762738478158 7.675200927592852
Zn 4.386349643942878 7.837125394716632 5.5235011770866915
Zn 8.942439864136254 5.7491404763772005 4.243556652338435
Zn 3.906501616631799 6.8311133868439216 7.8348690743450495
Zn 6.908515982055232 4.606337494914113 3.313098709194505
Zn 0.6915697928743392 4.1346061931920195 5.783353888290027
Zn 8.170732236432347 3.5467903136403582 5.353699989671744
Zn 7.98950346740097 9.816471345328516 7.193235343912246
