24
Energy = -14.03154739
Zn 9.869650578068285 7.103456745082481 7.355121287229364
Zn 7.376486159373367 4.068054538678824 6.058659123302755
Zn 7.221753219606707 7.274129939206187 4.627595313142698
Zn 8.576659731285229 9.00010318245924 6.038394510027046
Zn 6.1451663939582675 5.727684145974594 2.7591624317763257
Zn 9.900451765069437 4.794468282414833 6.08056348188075
Zn 4.66990052497884 7.464083977984656 4.05779101273909
Zn 6.109592603851719 5.7464660884987175 9.364632791976502
Zn 3.4862002602824402 8.664296046951764 6.042895578218211
Zn 2.2213526485931556 6.710542690979381 7.312387021390668
Zn 2.2290091206318414 6.7130916537888865 4.781691195762665
Zn 8.43294947732973 5.1405484561179735 8.232778352007475
Zn 8.47374614788259 5.1160995903211495 3.8897261441591806
Zn 5.449267300845316 5.945547335106688 6.056756086072627
Zn 6.184234371890896 3.420217877023544 3.782689438781582
Zn 9.895752700362156 7.081471039585139 4.777151621247591
Zn 4.640522145189609 7.46004958849655 8.049766631318285
Zn 4.849725743507017 3.4031972672889186 6.057232378381285
Zn 7.1958498403088065 7.315692678611056 7.499725777586277
Zn 3.9087633156212678 4.943299248185568 3.902125691201455
Zn 3.8989370083306247 4.931228683719586 8.181873793692573
Zn 2.4329429043880855 4.402964795158272 6.039687139069941
Zn 5.943575104282059 9.42754092031315 6.010854092541986
Zn 6.181145536646324 3.439399830337327 8.334373708778005
