29
Energy = -17.35489957 eV
Zn 8.887932085013704 8.271762846809159 10.639907568022325
Zn 6.541860609577018 8.319308337998994 11.511735510950428
Zn 10.881144734173088 8.303785779114698 9.125588273884087
Zn 9.59413897421199 6.083019608540173 9.066384627986837
Zn 7.128379459787847 10.01074790510348 9.51010113534922
Zn 4.68635265496652 6.962400046362927 10.321894673906177
Zn 7.19175266336851 6.1007241024061925 10.125347201255797
Zn 9.238165653619735 9.866996549503556 8.02401599232821
Zn 4.667994345937796 9.477953873588422 10.144172290871893
Zn 7.180627922553587 10.994374058947567 6.98642402010777
Zn 9.94688497478033 7.568400589432459 6.763780064744137
Zn 11.601126445144558 4.6265382377132385 7.956230795553306
Zn 5.099055421566316 5.313478972454979 8.513136414930878
Zn 7.441499897201896 7.775176675850159 8.044036820460693
Zn 9.166813633007553 7.0145552013392996 4.315780631517595
Zn 4.844400401278783 7.912813767276014 7.840628167195456
Zn 7.747636709100482 4.909869457928115 7.756305699162197
Zn 4.888756189039779 10.620551127168788 7.925226380450774
Zn 5.472172776711112 9.36482669515918 5.6695086162869215
Zn 8.057693229101853 9.016096456095974 5.690544431625516
Zn 6.970226067016714 8.290163080361406 3.5186142813690586
Zn 10.271526504201516 5.190752615900597 5.824235008259154
Zn 5.63666376889506 4.01100238217609 6.503514815076521
Zn 6.326909598470529 6.63954076667638 6.090598379690338
Zn 8.111686195681635 4.1356154940493175 5.2442959249183
Zn 4.479158375015432 7.702431814986202 3.837919785005069
Zn 5.934733446612909 3.4659441226496956 4.016858203082194
Zn 6.86938422724245 5.792431240795464 3.4889584761553416
Zn 4.269950270339975 5.360975218105936 4.635633375290633
