24
Energy = -13.38555608 eV
Zn 7.851000900730856 6.670435244710897 3.702293737867741
Zn 5.578192740420681 7.124603472187673 2.502396258675574
Zn 6.4881392402396925 9.187614204562237 3.731236620331958
Zn 5.938765944609268 4.800810689873253 3.5595563021875054
Zn 3.6279784315567962 5.985280128776006 4.029356684293735
Zn 8.301355890064936 4.450006404403313 4.795468179251265
Zn 4.109002159186405 3.6621780896025267 5.096102282146195
Zn 5.741274055600976 6.997826929412372 5.398214578595122
Zn 3.856679238494532 8.730965215036417 3.414502535722579
Zn 6.530701927904607 2.5311106190909185 4.588306740904589
Zn 6.192698921473641 4.8085732120662295 6.43756475663499
Zn 3.005755706246875 8.053300989003443 5.705422308530297
Zn 7.298112701033023 8.908105100631072 6.2190117922476835
Zn 8.653073807917432 6.654503156394094 6.198416370386801
Zn 4.886594511754107 9.79515038579373 5.637230467709328
Zn 3.4719826965301848 5.724076844014488 6.647128833554708
Zn 8.284295122276314 4.758200869640906 7.989037012595353
Zn 5.311435330387001 1.6935478778648827 6.652117879029876
Zn 3.984129730037556 3.5043942152833045 7.815734792307592
Zn 7.881815820097317 2.4712167203272473 6.760664637294828
Zn 4.6786711869821485 7.8944998375196995 7.713360391840342
Zn 7.152700284655352 7.132784579219328 8.171901425631459
Zn 6.340328136049342 3.0742709783442876 8.716217942420638
Zn 5.09719927700147 5.648427997491711 8.780641231090204
