27
Energy = -15.27379693 eV
Zn 3.6620023186969672 1.9631852683017847 2.9026775462162617
Zn 4.996988468135674 3.8472541438535717 4.2018367583923855
Zn 4.407216997627722 6.055296655885794 5.566632107124764
Zn 4.080786970220478 3.7101626501777063 6.75921633997508
Zn 4.430278191994435 8.523027938004484 4.477878477676254
Zn 5.816648438708945 6.323606334765959 3.426600560829394
Zn 8.47903216049786 7.7364057608224135 3.211248641856516
Zn 6.551726604440416 3.058449371095778 6.02513574838833
Zn 6.306984751637119 8.907294892468753 2.8693512689526877
Zn 7.526514628735998 4.438041248056114 4.06702585151073
Zn 2.4470122468356097 7.908670347575612 6.0487606210535585
Zn 2.1746518042337972 5.489989780296629 7.062248708214223
Zn 9.687710174067618 5.605461164703579 3.619465644965988
Zn 7.033691955778147 6.619475129485865 5.73760345192567
Zn 10.706226653825386 5.90878252184151 5.869688791672894
Zn 3.150080328131574 7.495604456979905 8.453939953126657
Zn 8.518144022492276 4.662745881359468 6.693387169688772
Zn 6.119609989164094 5.080410219035194 7.634568700080091
Zn 3.7313568367608 4.881924912740109 9.106567790070462
Zn 9.295397691533834 8.205807656040907 5.6989363101862205
Zn 7.428060836153501 8.171979409208854 7.994803305724492
Zn 6.93848142376752 9.284071547428708 5.45403629176443
Zn 5.003314709854954 8.553659799166532 7.022198039475363
Zn 9.69941296089366 6.933032818714327 7.905618786335085
Zn 5.447092578874669 7.143814651682274 9.417294022939942
Zn 7.852451562724968 5.990456740728579 9.402733403010588
Zn 5.835819953207721 4.781292739346526 10.614031471161104
