21
Energy = -10.49832463 eV
Zn 9.165281644963315 5.429410354747963 8.287503057722674
Zn 9.82838873704778 6.560469139643725 6.196544160641896
Zn 7.762238022368205 3.97077112174893 6.686107028160934
Zn 9.949505315559264 7.396540676853111 3.871762631789613
Zn 6.833586839245648 5.090683780695325 9.072247183211863
Zn 7.6461288970345676 7.512551907386927 8.120184037955234
Zn 7.8894634663711205 5.574606794513496 4.584767671712944
Zn 5.155996881530196 3.646813389245934 7.3796460401018384
Zn 5.630350360145863 4.213655279403641 4.755284928612707
Zn 7.807898841480136 7.660725693480181 2.6540807029997584
Zn 4.610018550984296 4.724497671876326 10.065037179190083
Zn 7.583924206783102 8.089951438814927 5.483369003515297
Zn 5.833370273138259 5.933700246306275 2.8728310600768276
Zn 5.954473950102813 6.186052208652567 6.5376484482861965
Zn 4.868451451330594 7.25384693011487 8.731693839461819
Zn 5.613521555291586 8.479226769981492 3.6190369867181715
Zn 5.064216670907705 8.676468904892587 6.086065564573826
Zn 3.260662571305798 4.68989420941968 5.818276702248791
Zn 2.94296599919623 5.211880357702849 8.298133828862557
Zn 3.885651351181157 6.714385478573592 4.373266831157464
Zn 3.0235947336993405 7.240064746978266 6.777020783240144
