26
Energy = -15.30233846 eV
Zn 6.163698422384902 3.750319488811103 8.260501628996499
Zn 6.834177568380079 5.4961830785537975 10.126021367324432
Zn 8.372401686994749 5.298052397258498 8.113599134419632
Zn 4.8742252573349125 6.042973722169092 8.462409269469829
Zn 8.25105116590599 3.0031259477151684 6.935799630767625
Zn 5.58310512308007 7.7626316406903815 10.339352958362323
Zn 7.899493588296801 7.649381960658008 9.17861204154302
Zn 3.772020784027116 8.489596188313156 8.73643085431287
Zn 5.9691007079071285 2.5328362051727247 5.9424749779717985
Zn 9.397937996829892 7.346829096215453 6.868237690161712
Zn 6.084711577239688 9.742311320957041 8.667137350637391
Zn 7.879550490006775 3.599007254752101 4.370508181177383
Zn 9.62056712517588 4.973371051086355 5.826313492352562
Zn 6.74643617913731 9.971424718690548 6.057414193811762
Zn 9.299962846696545 9.673485219817842 5.616699807976712
Zn 3.4878766397517404 7.234824435775401 6.485358080521822
Zn 5.333576652937858 3.9241924470015537 3.9428377434443083
Zn 8.597485906878067 9.759662933054669 7.9933457282326685
Zn 4.424699548286489 4.74871057044808 6.295772702641534
Zn 7.893727562583102 7.994492363852702 4.441925928156099
Zn 8.950424478093002 5.807685363783522 3.5176347845560696
Zn 4.261909415574588 9.731485059204626 6.618824424359746
Zn 3.8935047001255274 6.110772223955531 4.177887865482035
Zn 6.384617453377807 6.154793708646925 3.4976078973687175
Zn 6.634631867270004 6.845590550974846 6.631110284109701
Zn 5.257484353581675 8.22464015029803 4.764561079698262
