23
Energy = -12.63289275 eV
Zn 2.5668172157701994 5.148932637425791 5.038882305898545
Zn 8.326522755490611 5.351807177110314 4.836068136859043
Zn 5.946121162034856 5.59944779405235 8.904735365031405
Zn 3.7752738602470064 5.038299653257147 2.554631825776827
Zn 4.765794749752174 7.939427635701327 8.662281914258994
Zn 5.09237151235585 8.426013829208408 5.788919277371329
Zn 8.435857592881225 5.302834611366718 7.693201606626744
Zn 6.337508747206691 7.329816900219032 3.57502417600536
Zn 9.046446412221872 7.516417632554533 6.4188182535794915
Zn 6.4606537925594 6.333929052056968 6.356152956776531
Zn 6.096406177988132 2.7666462900468924 5.506107092281197
Zn 7.515014042634859 9.174859042626379 5.089435397929202
Zn 8.54868048582914 3.1670645003633706 6.103645307191817
Zn 9.407299357736532 7.45362066765793 9.009636561288621
Zn 4.5532451469354935 4.55095052366288 6.756261310772228
Zn 8.944069795382525 7.562536731437126 3.7359362792554887
Zn 7.05899847936275 7.694358870567235 9.981952933841741
Zn 3.2528281421729295 6.821154278026228 6.935548779754783
Zn 3.731180424876601 7.183011354064909 4.074689425134223
Zn 6.702839046737371 3.357311631903964 7.965679444735652
Zn 1.981414761890278 3.294459518012531 3.3245409624817888
Zn 7.003330555177498 8.769097305471783 7.598208176137581
Zn 5.7663908306066665 4.899024798961 4.256881493599524
