28
Energy = -15.59175325 eV
Zn 7.483912412789377 9.8375944809113 8.383127364986814
Zn 8.742033774121829 7.9118710931488465 9.351825068872474
Zn 9.593141136081146 9.023255502152688 7.2380749609103265
Zn 5.116403217116221 9.766094947107174 7.4916369662773405
Zn 6.184580132260492 7.622226459778399 8.812648737193367
Zn 7.263560860324651 8.722750096557611 6.064253777025721
Zn 3.1081299692870457 9.042083416216235 6.097700899210088
Zn 7.862393003880685 5.588065106127608 9.42867588440327
Zn 3.8874195348768925 7.133109123952279 7.505845240759048
Zn 9.005739984343109 6.503715990548251 7.167931950236861
Zn 9.51779003318325 7.889108840078972 4.956933176157445
Zn 5.12869562093241 8.306524811507966 4.751968453050732
Zn 5.1136417053816725 5.212809619029609 8.463373909820683
Zn 6.10656484927009 6.223342884979836 6.119562114766487
Zn 2.276439787022758 6.864466954348506 4.975281002745202
Zn 6.682581966582606 3.3341576758947857 8.811797209261528
Zn 4.720006752659221 6.16832863546891 3.4512697290766456
Zn 7.828823354573246 4.279958906175526 6.7672684887180194
Zn 6.28882872477781 3.766914739955754 4.83889930425912
Zn 8.503622271814464 5.438992904884825 4.576381772838556
Zn 7.253887628981006 7.378165141966859 3.5913773817216805
Zn 3.523488141752453 4.7455128239281095 6.352816103253732
Zn 2.7129992551396893 4.632858121271471 3.914813762635383
Zn 5.099786181559686 2.572878681099497 6.931178590449547
Zn 6.898185563190468 4.971939233186894 2.496314450625126
Zn 4.747962963161408 3.6310731123443474 2.724066207975474
Zn 3.766069890561898 2.5532448751248498 4.8196676759373505
Zn 5.796253274972781 1.0390678808009104 4.135880026740498
