20
Energy = -9.76504721 eV
Zn 7.256915598068292 8.459994703875251 8.825008916038222
Zn 5.851854795578281 8.877078800845672 6.626599556018455
Zn 4.7032114084553776 8.880192991270517 9.19315418161168
Zn 9.641148639405717 5.636641027449327 6.800431411872138
Zn 8.031295038897111 6.003010948126436 8.763526395416152
Zn 8.148765014681192 7.754698622038886 6.488644082873023
Zn 5.66351701249571 6.554123609011368 9.719728705572056
Zn 6.203153726292993 7.65861356667711 4.338797220073229
Zn 3.2123742706818805 9.472896502622056 7.2689134036403935
Zn 8.080367505206397 3.6615466685104043 7.595305968677489
Zn 3.7021253428815752 8.233166486156172 5.146966239474057
Zn 8.263790290550995 6.058528251657679 4.5791493348336525
Zn 4.125992846835316 6.81894091012917 7.494009054051319
Zn 6.512061671138877 4.0044949059452435 5.407573297468128
Zn 5.757189580466723 4.813147465364674 7.772331380179667
Zn 9.231098303902542 3.536357078337487 5.299441401528763
Zn 4.1089550488366475 4.952232514614322 5.682946283375312
Zn 8.123314352934877 3.730922440458457 3.0710405466645248
Zn 4.0060858372903265 6.301590262900185 3.592909420892031
Zn 6.22165175703207 5.338932392607478 2.9759436109511226
