21
Energy = -12.12978642
Zn 7.2313198291407526 4.390976643888956 4.697804997987021
Zn 3.419120820330386 5.895633844370296 4.759561778502875
Zn 6.786530813744256 3.9523217873807637 7.3525875631129
Zn 4.37151300652537 4.073041281024844 8.202408948579397
Zn 3.372224678543455 6.509365321877639 7.462232109860803
Zn 4.850828210677848 3.7600164288909386 5.493803147901787
Zn 7.226430989427825 6.45673290338514 3.065520889874688
Zn 4.099272547595742 8.26725164990379 5.5717070647924745
Zn 5.1748763256931865 4.873001800366482 3.0776330089655275
Zn 9.191861528519425 4.287999170429753 6.402993675119385
Zn 7.2828395762230995 8.155619736881873 7.424205780257009
Zn 5.830155071243707 6.192685642461938 8.626410276562257
Zn 4.713010412752987 8.532603907486962 8.263840155421958
Zn 5.772167397357091 6.223764357803309 6.008153774832656
Zn 2.486055915381523 4.256203773758557 6.523868066071064
Zn 11.392890985586275 2.8740995404223546 6.234946780918431
Zn 5.753774454678687 10.058634974929149 6.5320184609661975
Zn 8.38735926810227 5.95435521439338 8.133717086721155
Zn 6.647259216513836 8.419827739363305 4.753561773009934
Zn 4.832783811020693 7.435617561198437 3.118972262798631
Zn 8.377097403791538 6.629618982632548 5.493424660593512
