24
Energy = -13.25918857 eV
Zn 7.997896786026519 7.169059969572621 5.996203019606382
Zn 3.6758516450210497 4.49730941843816 5.686716135294263
Zn 7.9685598184484085 4.6279286885994395 5.205037090451609
Zn 4.689499906772075 7.378168740712969 8.753108696710102
Zn 3.4811946304133055 6.749755480367669 3.060074946856473
Zn 5.699414698501439 6.217584971784284 4.65436507543967
Zn 5.81389576737413 3.0869865549441426 4.974049527363331
Zn 5.4011252249787685 8.36644955693157 2.3430697579777897
Zn 5.947201541065594 5.4547822153410745 7.0229532759757625
Zn 7.455336355322176 2.94664455961646 7.042524640077154
Zn 7.465139256362187 7.485245091479304 8.460139243541297
Zn 4.695200996535382 2.8614417434144 7.3551030139163025
Zn 6.302995314296941 5.9076493771042085 10.140494317177172
Zn 4.246786514201146 8.756836121236253 4.6144131109342705
Zn 8.19023363054084 4.951059032843283 8.614368662837958
Zn 3.693672372536573 7.070624342404166 6.437387465219024
Zn 4.193011337711329 4.7931608250390285 9.094994876828821
Zn 4.189609247131104 4.198466007826113 3.2191868169758555
Zn 6.310396734151141 3.2969075620233723 9.321638862334536
Zn 6.995405719116732 8.802320290482138 4.32469415615442
Zn 7.49654405297198 6.8427960924161155 2.610922415042491
Zn 5.857178806741094 8.588208466712018 6.701430343840924
Zn 6.950237215199811 4.259632623296117 2.9069354897230113
Zn 5.366262855372975 5.7736326942089295 1.5428394865142279
