26
Energy = -14.78063691 eV
Zn 8.46072951335425 7.235138976108484 2.5905587923981988
Zn 11.054698827668549 5.705774855487009 6.885818952800362
Zn 9.856551162443981 6.663962309890389 4.699195625395728
Zn 8.90307534117484 7.559518539900952 7.057441255948682
Zn 7.7677430526704665 8.462816951201036 4.870685683849771
Zn 6.990271576866953 9.234103519112509 7.239914423768196
Zn 5.918483241561257 7.949647069871 2.911394543666266
Zn 9.469848188830783 5.864176639272495 8.994677316255288
Zn 5.260305559643752 8.487401436723584 5.4942479882414865
Zn 7.356180920932095 7.590874288859433 9.343560192059265
Zn 6.774366956313938 5.951319218685701 4.661568350233169
Zn 8.506539396950032 4.921006884417938 6.3793725249753175
Zn 4.87453134441677 8.348056026449264 8.26423310336032
Zn 6.368391149004215 6.350067680557632 7.166970509908863
Zn 4.316620833448079 5.996476908551575 2.2932646669068313
Zn 6.972121567790719 3.2398316337111472 5.264826615686908
Zn 2.8176916374163152 6.884621573192165 8.881428595401985
Zn 5.129416779677153 6.490765660055299 10.322195083997594
Zn 6.786158544029987 3.6399227280193913 7.874194607640942
Zn 3.364656965282116 7.9031566571691485 3.832632047235961
Zn 5.004227155722138 4.14257326371581 3.8339469298337048
Zn 4.4512665243686484 4.919622140853628 8.274129233325079
Zn 2.8529266264427937 7.9201554635140825 6.495619233589275
Zn 4.2345471388828875 5.845271588353851 5.73990647505163
Zn 7.226090380130553 5.016447597779505 9.973284352637256
Zn 4.688512829155007 3.294307407393755 6.3186531416278156
