24
Energy = -13.17580083 eV
Zn 4.917844076332778 7.524756494990573 0.02539391841964998
Zn 3.6951369752727006 7.783273270894215 2.4234146981803213
Zn 6.28699594604823 7.839224249951594 2.491341740297281
Zn 4.941499409327756 5.43300432876104 1.7276385154021372
Zn 3.8979906546639898 5.894380223976414 4.202527563408823
Zn 6.705539681238212 5.292520318828146 3.5826174300477684
Zn 4.8578047351923095 3.538747726136759 4.255344128780208
Zn 7.272422811675591 3.1146734653845827 5.090876355539213
Zn 5.874702787857215 5.774778779125191 6.019639423659714
Zn 8.896203475452776 5.179475617880397 4.958415363809984
Zn 7.583794858288148 7.505427816323063 4.7056368274209355
Zn 4.984024419034742 8.151448071989815 5.147293562700415
Zn 5.378089110039407 3.238907615041636 6.9217143353576835
Zn 3.1491806546063636 4.26957827305323 6.151764777348833
Zn 7.757696166640217 4.386877492801481 7.29500782244166
Zn 6.941809537862532 8.783448067318343 6.911451136479219
Zn 8.719618387413062 6.8311372416158544 6.931055100221897
Zn 2.9511589720788765 6.904552063511477 6.349402984275865
Zn 4.635681977331385 8.071043007034861 7.847115262162491
Zn 4.236569266133748 5.431435212786308 8.193570137153351
Zn 6.612414420323029 6.464605592064997 8.419090130690256
Zn 5.892068480715349 2.682876376717538 9.358855338529153
Zn 7.825196797250601 4.365986130608587 9.909171150701937
Zn 5.403155601294401 4.954441765277127 10.498261499044983
