27
Energy = -16.01862686 eV
Zn 5.194510078480823 2.8394331561988926 4.8824695408386765
Zn 4.961564384951539 3.040887430322258 7.367829463941208
Zn 2.9074520666277923 3.775594476214487 6.052329503365048
Zn 3.7666235947836224 5.4758680364687775 7.817718389283122
Zn 2.8866899992995365 6.551867412920002 5.559735033792486
Zn 4.442255743140179 7.963217818440417 7.133296505236509
Zn 7.366809319977322 3.7716274241011987 6.626791294616789
Zn 7.48655457251037 6.99566961600336 9.63071737857378
Zn 5.921321735296834 9.152036532522128 9.030757561974754
Zn 4.603085399324213 5.555350602630349 1.4985908770402563
Zn 9.79531067056984 6.984446328400889 8.412341564774687
Zn 5.554960462772743 8.388582432070514 4.7537589701024645
Zn 8.852363513766447 4.677895102761971 8.718037393281199
Zn 6.0740721241209705 3.907532586707479 2.802356134204721
Zn 5.565994096036082 5.64730715862642 5.463204819616843
Zn 7.929656070284358 4.7608740253794295 4.3141447422453325
Zn 6.429010589344739 6.647946849214051 2.9272723095188216
Zn 9.577370442236775 8.463723033405932 6.2977506399724215
Zn 6.622490728131432 9.697891430058528 6.601854700210431
Zn 4.883326948033382 6.950810475979109 9.64702788913158
Zn 3.758442142409378 7.274494990704082 3.2529439541500333
Zn 9.374983856169754 5.559800557908017 6.259347457079221
Zn 7.012777203684599 6.9482058441179255 6.974231156131199
Zn 8.15642120764915 7.404340699889654 4.57283551591568
Zn 8.39813211640026 9.216135336507113 8.406665863760141
Zn 6.192053703929461 4.976875459680927 8.557821342998112
Zn 3.6300264472928765 4.71584439998974 3.7824292154681123
