26
Energy = -14.63587841 eV
Zn 9.338667636502288 7.667108398909015 7.157206526467593
Zn 6.076849285798178 4.61186137684449 4.490923023509728
Zn 4.005935040372428 2.319414998006257 4.1424264951034235
Zn 6.272979070756116 5.079879511291556 8.92184342801156
Zn 3.9763283261483156 4.252364299647317 2.4549593333630395
Zn 5.004833090525886 8.30482554720278 7.794743825691442
Zn 6.884739791927849 7.349777119855415 3.400899315637459
Zn 2.6877430786388143 4.622072007230283 4.618486384389651
Zn 5.376384562253323 8.470701611197171 5.177561698741153
Zn 8.32214468266266 3.4512124975945007 5.592508043639755
Zn 5.381175057417293 7.192520427817579 10.146657695884596
Zn 6.032562893249338 2.1519732725178056 5.621295854274193
Zn 7.249219334541508 9.291879788211737 6.775399294385002
Zn 8.745978490106722 11.033497330959484 5.185488871575448
Zn 2.116022512812673 4.508944163677969 7.071102794144603
Zn 6.281598867826409 6.294862668719098 6.5097987222563445
Zn 3.766614724399607 5.924362385847694 8.553947719207809
Zn 8.378930952704199 5.887875815466398 4.938331762466121
Zn 5.925296420118109 5.686117388916227 1.724063073178287
Zn 8.82225294536361 8.431308342517335 4.791936042957647
Zn 7.140472572458553 2.9996835277698315 7.758850719932562
Zn 7.550294955612347 7.670660120966728 8.938328922493582
Zn 3.4377145627027788 6.808979073690564 6.121869056680521
Zn 4.305190522112401 6.591251389394402 3.7418364102977524
Zn 4.774873607201168 4.128987619805358 6.842426769752848
Zn 8.56253784279018 5.232701241744692 7.589900317918806
