27
Energy = -15.32615721 eV
Zn 3.7724940852314024 2.7562777565427914 5.557115619050577
Zn 2.367194150224877 4.49287359168962 4.402988699561519
Zn 2.324703965382651 4.383470366097012 6.898605579543524
Zn 4.834140925611201 3.993106831703762 7.52255021191768
Zn 3.317671444786867 6.192805240753211 8.31128248661187
Zn 3.4125037370761486 6.382848945247746 3.049608370235606
Zn 6.316268469899559 2.782845944949791 5.649608823042832
Zn 4.970621593132233 4.4306402739435375 3.9963126557678312
Zn 4.783850642432456 8.041141983241255 9.40025486878912
Zn 3.380046052946651 6.548168070372046 5.681214813692906
Zn 5.92529929609701 5.861546037731156 8.926081072345367
Zn 7.414948722982484 3.985927552447919 8.08715438507587
Zn 6.29830487143443 6.214712961757191 6.3132943521178815
Zn 8.685015077923861 3.718861233363322 5.970317750514146
Zn 7.427198832291269 5.120074251907349 4.240932015138627
Zn 6.079856478881897 6.584434292050822 2.65677613156995
Zn 5.266596824732148 8.110332240758211 4.442424507137601
Zn 4.772136927549165 8.331519047339906 6.926005628603275
Zn 6.727564460801609 9.599026789635229 8.644500611849368
Zn 9.788816595925512 5.172655379215943 8.041272998562006
Zn 8.01065627728011 7.179454120942092 8.358692258291414
Zn 9.171032678908132 6.297942370605177 5.64715798161079
Zn 7.94801228808789 7.878696893556791 3.821876179204277
Zn 7.124722986355753 9.145103163712308 6.000046689328392
Zn 9.046866286377067 9.624120696752039 7.739839976218941
Zn 9.657790210551097 8.834055092491418 5.414922642691436
Zn 10.426470766451565 7.579979911607641 7.5125619366518
