26
Energy = -14.19871178 eV
Zn 7.400442893862289 6.212932371820905 5.105249946735517
Zn 7.4425601309668314 4.2610895009287555 8.943083189144293
Zn 5.089011663892024 5.354480546555345 5.905526374377036
Zn 3.1652427162328736 7.289811714715605 5.978573168217419
Zn 2.4645751424926203 4.688171610291176 5.682493084141439
Zn 7.971072084766481 4.0428288911393455 2.2024420563660354
Zn 7.99473917699222 8.512928604275412 3.7216520781826117
Zn 2.69240842480335 2.677205048906195 7.39178655771789
Zn 5.97379119801774 5.74180389156879 2.7991607887359913
Zn 1.9994958656354693 6.379762291963693 3.804273578644904
Zn 6.232357188355528 3.1340124409345993 3.8267635187759095
Zn 3.2685970157531385 7.668701970164332 8.56169232242101
Zn 5.202027715747124 8.526187606278615 7.160586014855714
Zn 3.760191251290468 6.829117319838792 2.150239221388409
Zn 8.695687294724616 6.366483947881231 2.6583873024520672
Zn 5.461771001022228 6.0294291036895835 8.48802004654976
Zn 8.696979441135205 4.041107338819223 4.650675185086186
Zn 7.068836932392788 9.48016189838353 5.798980322975904
Zn 7.53184053129081 7.094226367974302 7.481001384227552
Zn 5.273993097129483 7.768431395125351 4.415220120926813
Zn 3.929544903985289 4.314663952464992 3.6079725080923626
Zn 3.002156316513019 5.187740296241624 8.137916050209338
Zn 9.033167161636165 4.897099462487057 7.148692013840137
Zn 6.91035198862939 3.3840915177724606 6.39694388978075
Zn 4.39265335018283 2.3405593717264654 5.547988565844117
Zn 5.027829193740013 3.4582952192435026 8.116004391500685
