28
Energy = -15.88496765 eV
Zn 7.326338717005133 5.372218241766083 3.2686938391716795
Zn 9.13145700468847 4.281321900594961 5.177643864378224
Zn 6.909323276288428 3.1044481338201804 4.361824075937994
Zn 5.194931451674708 6.482222120184856 2.122627356276473
Zn 4.849171157756262 4.238745985609583 3.32683872538708
Zn 6.5296161941739035 7.860437972439404 3.7752336989715785
Zn 8.306625606982752 6.759354515399908 5.28409120633044
Zn 7.25617264498402 3.423161258619691 6.917620826336496
Zn 10.357619899035797 6.062956975817008 6.750853291769794
Zn 9.689894024463541 3.787896386322215 7.737966795981259
Zn 5.514752761036179 5.890503164668795 5.416657768012734
Zn 7.031959850679349 6.038823767133502 7.528998792517048
Zn 2.7768861919316117 5.670505903860444 2.5196522269978527
Zn 7.459106295141324 9.210442308241396 5.755224276785467
Zn 4.862045589356406 8.527554967064177 5.79275162608526
Zn 2.7854599433671465 6.897444260777227 5.754915843878439
Zn 7.621203105809248 4.128425124364708 9.426735948100205
Zn 9.303482024434992 6.0513937029683476 9.140801346408532
Zn 4.81840792369265 3.358221741958433 5.972052230355398
Zn 8.908372986898543 8.075396446076951 7.5897003399512855
Zn 5.141305442038585 4.2646908485081045 8.39386781523833
Zn 4.490898406904595 6.779816560958171 7.886682665004468
Zn 3.596348480858944 7.958512982648301 3.5622994281532896
Zn 2.7286478202559934 4.350153587325271 4.76926676213258
Zn 6.335309023684005 8.539932314820568 7.956185220921778
Zn 0.501103953089943 5.743237152132165 3.516487402102462
Zn 0.5411495571618163 5.29277557523794 5.9948810493954054
Zn 2.855937982080113 4.835968179885783 7.371028595599263
