24
Energy = -13.12282372 eV
Zn 8.259950179619068 5.025468588013838 10.69735700539268
Zn 9.446031756276064 6.749921901714737 9.083102576560371
Zn 7.482121553460192 3.451686061125968 6.44932788742934
Zn 6.706705063341677 9.492394210113773 3.6823290588518156
Zn 7.080493756799523 7.578607702585167 10.178630152929545
Zn 6.589455601370073 6.998379540407828 2.823835714542562
Zn 3.930059040832441 5.031994082692822 6.956977354176523
Zn 8.454008855532303 6.765329682122167 6.659380525471883
Zn 6.067445041703365 4.291999813044667 2.7270840630336357
Zn 5.329730837589333 3.845443047663112 5.160781677346386
Zn 8.47638323299741 9.067849538764728 8.629533215890856
Zn 4.420197868462295 8.103697176251906 3.875025156131906
Zn 8.583324271289163 7.733654014587167 4.331079387412305
Zn 4.164769559190878 5.896887444167028 2.4887753759718225
Zn 7.625906107125523 5.283060439559155 4.582982299714501
Zn 5.268441644583657 9.477883309530874 5.862859810605477
Zn 5.66876864325627 6.740951394619568 5.811001474134443
Zn 6.36764971585187 5.561185905088305 8.08880758671726
Zn 8.841430734722797 4.385033594324799 8.315855431263527
Zn 5.944061407846591 8.234667645347248 7.961482807278347
Zn 3.097763734384291 5.848827179275447 4.783440285091507
Zn 7.830426446542277 9.42938610118449 6.144387574034138
Zn 5.794080199101984 5.5290711921221005 10.969437401641315
Zn 4.055128681667346 4.67442849989191 9.382753147181058
