21
Energy = -11.4602886 eV
Zn 4.223058693537173 5.117584792815776 3.381240548031712
Zn 6.756782723318272 5.044908496101349 3.7277564123520412
Zn 5.448586159614471 7.369863325801082 4.081204399466597
Zn 0.8444618325214436 4.403481892044634 3.375291569154636
Zn 5.293746783484138 3.7289517705748465 5.513250830262399
Zn 3.0218578399243134 6.899203596393804 4.985888866733553
Zn 7.988617932143259 7.403583551577008 3.4891359995585653
Zn 7.875260312206493 3.008818701412008 5.036737672427558
Zn 8.983144214271924 5.404075513681919 5.079426541240792
Zn 6.685148552296705 9.355038465032498 5.304995203475184
Zn 8.7362049023682 7.986270862019741 5.84357200825625
Zn 6.316259624440852 6.024783163304986 6.15973139026102
Zn 2.7263143630026616 4.338009796645062 5.303023273049738
Zn 4.711151620679332 8.09840387908162 6.549823218235044
Zn 8.015133601119366 3.6523562707695767 7.496893624968511
Zn 3.9536841007588457 5.650290066658787 7.185589313842926
Zn 8.495537903392705 6.150878461941778 7.515772393883935
Zn 5.5378640822499765 3.8549015449348283 8.076262682774999
Zn 7.000539902806524 8.243462124053059 7.871989222825115
Zn 4.9527718628286825 7.184080412529603 9.108222258319973
Zn 6.907432574212134 5.554612893803522 9.387752152056361
