29
Energy = -16.62395311 eV
Zn 7.916182131988439 5.666534208220515 3.476732266834091
Zn 4.7541277102173956 8.5518570356489 9.913130261840132
Zn 9.192737151574153 3.802993191742847 7.367497409386826
Zn 7.689876569846165 8.863295664420498 6.485990725966235
Zn 7.581871905202851 4.985088938902629 8.965478098595614
Zn 4.49790992044474 3.93607752377788 5.729371213368739
Zn 3.8086848417827377 7.438208167533073 7.722340317900186
Zn 10.837653847917423 5.9436990687617985 3.8319750999728406
Zn 3.799341402562243 7.759614966767758 5.009730908052085
Zn 6.9820047880775515 4.425959985174866 5.961106663469277
Zn 5.700601182715001 5.886573801699969 10.4900387989155
Zn 11.05203114815432 7.586783370374358 5.826239504369681
Zn 5.708575705548053 9.744952027904803 5.107934504423193
Zn 2.6528452031622285 5.200296943844426 7.132474505201953
Zn 3.5642925449931493 6.894245843143386 11.389635875944208
Zn 8.95889048836829 7.922933286813564 4.388180699800555
Zn 9.799274743540364 4.304098393296633 2.1520436666853877
Zn 9.333384596486342 3.8183192664989534 4.784398378421853
Zn 6.971158223296705 7.555257414732397 8.725136424413325
Zn 3.6363077905816525 9.805567707879156 6.548288630448304
Zn 2.3866976761276653 5.560755295691859 9.645794236802276
Zn 5.786310836738778 9.843918519062349 7.922977534725426
Zn 5.117860648728725 4.98867161395231 8.054521169860662
Zn 2.753059979393582 5.485027416440031 4.620049834643624
Zn 5.939834652975813 6.860142775530258 6.304360272030574
Zn 5.345194295260707 5.703623348903313 3.959592850497115
Zn 11.100788372709877 5.110561724551243 6.407563906475142
Zn 8.656631723557389 6.488094530917177 6.872402231519551
Zn 6.511521697468226 7.949214359464295 3.4671842148401293
