26
Energy = -13.80417263 eV
Zn 3.1260238276962453 2.8248678844435835 3.89030135962792
Zn 8.147134553168295 8.57799537935315 9.830301308035594
Zn 9.156792785842349 6.667588503313903 8.258343184806536
Zn 8.400740547505462 5.684669186967359 4.45823359961816
Zn 6.350022887429796 2.612464391933691 6.946762124366914
Zn 5.276669077381294 4.432666926522234 4.786163735227372
Zn 5.21798754217654 1.607538033206309 4.812230009889758
Zn 5.515001878412319 2.7890555736372575 2.511174454097195
Zn 3.734618282085454 3.349982132571187 6.547829523709945
Zn 9.316301833583509 9.236977296314727 7.710848261640638
Zn 4.50878070360309 6.963607784345914 3.6824656982131425
Zn 3.0152464830512518 7.710280587321747 5.715219725537301
Zn 5.461041623018973 6.418989883606427 6.172529169718472
Zn 6.512320937796189 6.895796201415969 8.535121314347297
Zn 4.342254139104018 8.350824568148015 7.983193023609761
Zn 2.7336262405339258 5.238247716531375 4.88712026882005
Zn 3.817509260292009 4.823350697752168 2.340166214801433
Zn 6.611672697093066 9.493001369816943 7.686799663572993
Zn 3.2291849090043967 5.820091523473521 7.524242208901224
Zn 5.3730494644363525 4.537956451134989 8.27098657598818
Zn 6.490819092769425 5.267963911114088 2.6161752744783495
Zn 7.59534640428711 4.883773732675009 6.817974898132378
Zn 7.474707690875711 3.2478289022039397 4.4871925906792
Zn 7.821289860938138 7.6387263368828 6.14499310842866
Zn 5.456399992130321 8.971698570794429 5.4210235827967885
Zn 6.977361177900843 7.615960346636119 3.624513013071275
