27
Energy = -15.80243398 eV
Zn 7.9900319685513805 6.297839991534781 2.8724784476400256
Zn 7.5854401704011645 3.970897942509026 3.9746101735811092
Zn 5.595784749021585 5.475824695650707 3.456146473537283
Zn 9.74327612093003 5.922376468469428 4.752539811404545
Zn 3.51636673592667 6.780923667826863 4.2069371556531365
Zn 6.086653551346181 7.811418912289591 4.458244532764616
Zn 5.036066499794163 3.360652525883716 4.787651934853764
Zn 6.0200766283386615 6.088717746327253 6.408859896631954
Zn 9.362965928219607 3.581907400965035 5.745016220793633
Zn 8.694114574055927 8.230060194120666 4.324852744598634
Zn 2.809012246025366 4.584265723053488 5.058739346972879
Zn 3.0850275841886488 6.669133112732448 6.906204015702637
Zn 10.273997693863537 5.4492826700767125 7.300129167715389
Zn 3.6107681680962624 9.122530960707687 4.835945129262585
Zn 4.1452420259781 4.175994797938784 7.168574845395125
Zn 6.892528267463578 3.452008111003808 6.53834818403833
Zn 9.87396262574396 7.830175640121197 6.775420406366732
Zn 5.750516165810169 10.061220574934643 5.824706837699736
Zn 8.075886215336562 9.49488002672657 6.436140136367763
Zn 8.671663495792822 3.886744862010992 8.387147103541535
Zn 6.2792861580243695 8.276764260695288 7.884825505948355
Zn 3.8648920155267112 5.395341567078086 9.290281769009818
Zn 3.7085891439351633 9.425150345322153 7.307532172621485
Zn 6.259948711550682 4.559960613436062 8.809212456496288
Zn 8.24841491496307 6.5544277101354025 8.632995584502067
Zn 6.051203202961472 6.791639221661051 10.0312694845134
Zn 3.945201666599691 7.873075155966272 9.151110625884629
