21
Energy = -10.68348582 eV
Zn 5.677146189484718 6.1271794044643855 1.8390227281506915
Zn 3.6889419554613685 2.499441038759636 6.991259955657922
Zn 5.884852286132565 3.331382813147061 5.390627710005821
Zn 8.43271312808239 3.9092996128653907 5.653678405575053
Zn 8.019642712639559 7.064153077915295 2.5054648663411037
Zn 7.2099607513859025 4.557496305507958 3.4764455328677744
Zn 5.90689642890449 2.9783433237106935 8.092325578632938
Zn 5.256111074398602 6.155747963226334 4.472115048208565
Zn 8.04445552318488 4.424179195922651 8.194209498489952
Zn 3.565392682342614 4.786665242560779 5.906240740107265
Zn 3.4534622707112437 6.349265322762274 7.987365169811839
Zn 6.133351585734966 5.65008330949842 6.8452022841348485
Zn 5.032169346801506 4.889933594962127 9.563335221254047
Zn 8.290630063933452 6.558556504997312 5.02057553126688
Zn 9.742353340215237 5.902604687550774 7.013494406233639
Zn 3.1138241335290813 7.3036946367861635 5.570663323469112
Zn 6.118789226105713 8.78675191574913 2.3021989666715883
Zn 5.651019550998997 7.444319307067038 8.6664779339238
Zn 6.7104716058264335 8.14216664613066 6.213091710438984
Zn 4.850614898275174 8.892815040499283 4.464389809157518
Zn 4.329723175478244 9.009259392695403 7.090023203781357
