21
Energy = -10.73236504 eV
Zn 8.460908493712209 8.879059005544585 4.059034619711908
Zn 9.058490099584395 5.620988664257709 6.8118969729892385
Zn 10.364705241153732 6.983409433809126 4.85743503658654
Zn 8.426494767357411 5.1263783151779 9.282422228758191
Zn 5.07733407685756 7.924071090376088 7.494644198351095
Zn 2.7913445878594403 6.961095394633327 8.927463605085697
Zn 4.323426392275441 7.196509678339483 10.994576254544931
Zn 3.8245938772043857 5.743043749410163 6.732868007631603
Zn 7.075268104885545 7.403120561254809 6.099673819224985
Zn 4.498709417268007 5.374874962797652 4.224890434897945
Zn 5.11742611976351 3.546650514992981 5.979378550569719
Zn 6.217521129826194 7.342523884632507 3.6522827571492877
Zn 7.070248994722967 5.015027087008482 4.9047800447686365
Zn 4.099442667748033 7.8367900719782035 5.0855150865267085
Zn 9.293121393825736 8.553415324127025 6.559009230475394
Zn 8.55004132261135 6.42747987493188 3.0272675505152704
Zn 6.525386162575386 6.846377708425354 9.74422464718351
Zn 8.755064698083734 7.710186211800379 8.903271116662385
Zn 6.314242116592757 5.260695600164684 7.548661603445801
Zn 4.059968668010844 9.399576178135929 9.523446102255727
Zn 9.63460994261096 4.512260930734916 4.528329676527561
