22
Energy = -12.1757681 eV
Zn 3.607846790316247 2.2452474021895648 5.036686890190354
Zn 2.8083833540975855 3.518945404948549 7.22825097478438
Zn 2.1196675438902663 4.406505596137921 4.922825014289647
Zn 5.4324341126070665 3.0903711143492365 6.613009165260374
Zn 4.784098280393064 4.149627493040636 3.771206754841327
Zn 7.903696662474835 3.015884879914804 6.003445199961327
Zn 4.577400645406812 4.9435697771973475 8.31578945515425
Zn 2.7902552815828225 6.229906851460364 6.720786837052941
Zn 3.371087080257167 6.394533533360167 4.044157577972827
Zn 7.288022931935842 4.867606280721237 4.224954827632212
Zn 7.200119318973425 4.692522175038942 7.919204686217693
Zn 5.30953687055276 5.6475422615555795 5.829716772544627
Zn 9.165422587027425 5.230810784066022 6.149524265598765
Zn 6.2132757948547805 6.814363311899215 9.15782248008186
Zn 5.863085774397922 6.2349413168807635 2.5142671258959854
Zn 4.037933949134084 7.849284001126257 8.378812876981474
Zn 4.682968349379813 8.312727141171447 5.974436303096281
Zn 10.410900183285296 6.697442539660831 4.536620038178348
Zn 8.61714669407208 7.211409647027789 2.8193991985243083
Zn 7.277102131262485 7.123649758901277 6.88394603150324
Zn 6.750600232007574 7.705867077794844 4.527314559798978
Zn 4.60120314736986 8.410792361895494 3.284320576915802
