29
Energy = -18.82536228
Zn 6.038829851431447 6.024224495013987 2.296251024318357
Zn 4.738234583329285 4.232003211346148 3.578777415827357
Zn 2.4034515289772624 7.230575534418066 5.893490141610164
Zn 6.042741251841811 9.601895287184034 6.0676025191501015
Zn 6.064976488623937 2.502581192535752 4.800823209193171
Zn 7.223526094135411 6.154874136056224 5.79035941769566
Zn 3.896111997422484 8.824901309382998 7.3230158552012785
Zn 2.5864949414006895 4.8989608046055775 4.7558949599494
Zn 3.9551508255776846 8.952422740929743 4.760062391221948
Zn 6.033228084648924 8.28194254161713 8.564277458936342
Zn 3.9364484739843544 3.1730875618203007 6.116311023514033
Zn 8.214734713958329 3.197279082342532 6.012647158172489
Zn 7.4093182165248725 4.248132526640492 8.545234710955349
Zn 2.59558780926786 5.02193510394156 7.387612460543259
Zn 3.8634907185654166 6.76195403035273 8.823041187525508
Zn 9.710767908865876 7.264870476143693 6.22817578069592
Zn 3.900128147356222 6.740659361014742 3.5206787608354055
Zn 4.732316544617137 4.2081110852337815 8.5901572066276
Zn 9.553830067127151 4.933909247673395 7.368016293036451
Zn 6.071001407354195 8.28359819698782 3.562680375926538
Zn 8.14193140141131 8.970363363121628 7.367620371899744
Zn 8.223415276766389 6.76090197501037 8.606050587391012
Zn 9.542857338166948 5.051741188876558 4.737345143994761
Zn 7.414142580409955 4.223456207047144 3.539070672716677
Zn 6.097082910366166 2.5017974508039935 7.329188877309549
Zn 4.903608060329836 6.137703365620342 6.337048439593912
Zn 6.092626586436746 6.023951162907021 9.83173038423834
Zn 8.258882018371132 6.787470193777838 3.308660425745737
Zn 8.202538453890853 8.852151448754636 4.8056300273338985
