24
Energy = -13.31264621 eV
Zn 8.201033266839305 5.505846763055474 3.2056407332447643
Zn 6.045561722314098 4.1094860823153025 2.6837768066219514
Zn 6.309913352443928 6.418903421536691 1.598692740296141
Zn 4.425957708643193 6.583755288815874 3.382693229431255
Zn 4.00843963632154 4.2330039651592735 4.312754972045979
Zn 9.645455366044162 4.802751954967586 5.396784338283413
Zn 5.267563531122742 2.1018944286419616 4.193945780243502
Zn 6.728581184235034 7.677846496817542 3.8567885985142203
Zn 7.7750112554732125 3.223375556116438 4.448206307523763
Zn 6.2957744063508 5.329934531419622 5.2210113257556365
Zn 4.436223023600046 8.442944084148728 5.235298760197165
Zn 8.980734426592234 7.231555952407471 5.039364454135339
Zn 3.730483222292038 5.95567404928408 6.061697852256536
Zn 4.781307516488751 3.626393693975216 6.884929374220378
Zn 6.48713335944403 1.7898867376974175 6.326431446715623
Zn 8.760085347251865 6.175754551498817 7.426341162371762
Zn 6.770577023377154 7.664117771534275 6.415546967772247
Zn 2.3599839751567457 8.992092922306423 6.775201085226623
Zn 4.637176775891448 7.806322715705985 7.9079756888222645
Zn 6.107459274952526 5.659421000600324 7.919966384918093
Zn 7.7208694073296185 3.8651264373762606 6.9984389874766055
Zn 3.168991170768065 5.080146495990925 8.72298857724556
Zn 1.3222423244220782 6.540244835992937 7.162889600805067
Zn 2.410475788433564 7.560554328424355 9.19966889166396
