28
Energy = -15.67399055 eV
Zn 3.3680894304991256 7.660049356730427 9.673970606181339
Zn 5.093595465292933 6.033569077617647 10.42213021414937
Zn 7.116947609705307 4.578100395852186 9.884432704125729
Zn 5.787432159367531 3.775797695926915 7.990440685909293
Zn 3.8191199480739133 5.599986715588417 8.022018384383665
Zn 2.1088160255477555 7.649845585062467 7.556853007410553
Zn 4.412030297956516 3.9630285388754745 5.928327061074202
Zn 2.2216750294056786 5.91590721547857 5.801580571034565
Zn 3.425106558302211 4.7794162937013605 3.8103381113797323
Zn 3.7888369690558528 9.516337389995957 8.016897006577535
Zn 8.568440254613934 3.8833351642216787 7.7735820455138205
Zn 5.793195205274204 7.872702658124242 8.48752307022604
Zn 7.859212902003778 6.460589913704158 8.357721368263226
Zn 6.977884933841701 3.364744564111959 5.621672355307139
Zn 9.607242149514992 3.492455485355339 5.522918238286544
Zn 5.917724705462504 9.869448226121126 6.707945746214875
Zn 4.147740521003087 7.994762097415951 5.932828485638224
Zn 5.016150541007393 6.722147907804632 3.9657292975823975
Zn 5.788583580624003 3.835543043385324 3.2681110883449436
Zn 6.157139516799015 6.061589244970798 6.351259668545227
Zn 9.171411750053897 6.023520112262454 6.173852053491358
Zn 8.266428170157297 3.4947161068266013 3.3696378411253547
Zn 7.424683276103781 5.942030545723061 3.7307092865653866
Zn 8.007969702890795 8.351449927813709 6.621354806499561
Zn 8.574220020525537 9.826512437981258 2.7882831740785226
Zn 9.954649619437575 5.308203883136539 3.8095375761145855
Zn 6.688421059249325 8.601325091179087 4.518887005875587
Zn 9.318396400307943 7.758996612138447 4.189322539773418
