27
Energy = -16.07209566 eV
Zn 7.7098583736374895 6.154141155051246 2.7444700377121265
Zn 4.967232926423386 6.419282034467813 3.4655167578102106
Zn 8.228123167551306 3.7982773423959557 3.950261096768245
Zn 9.574921134976082 6.095071126993429 4.85896929654824
Zn 6.053476401003991 4.231415450290323 2.715300823784178
Zn 5.588033851666613 3.2897858163018996 5.038584227125468
Zn 8.985039007995313 8.248998267519527 3.60955584544126
Zn 9.920135347614213 3.8219408375463333 5.936992098085049
Zn 2.3312177733528383 6.657379436051675 4.343834576641486
Zn 6.487046836740051 8.450918033566012 3.8141144251280474
Zn 3.9453201310423367 8.616271016656873 4.5251829656271685
Zn 6.895912805596396 5.814138313062123 5.423572614246366
Zn 3.588969985159782 4.344957888019688 3.913127309597123
Zn 2.856890525889009 7.908997461978284 6.722367126411893
Zn 1.8455094677222577 5.34959773662235 6.533718648084572
Zn 4.5648398941275765 5.708565615729236 6.164141814448893
Zn 5.683619184278676 8.155024638092819 6.409443478504242
Zn 8.386243940381746 8.158530251822876 6.086604725451854
Zn 3.097647166496842 3.094216932097771 6.223254181522149
Zn 8.900429178124734 5.644723172575605 7.4264302765599775
Zn 7.605780537759731 3.112286120123189 6.610734093257963
Zn 2.213207003935224 6.611525535588744 8.82784811356211
Zn 4.707770426972211 7.0794674717736426 8.664944970290865
Zn 7.240234583639203 7.444746649417174 8.298460476728739
Zn 3.5799583416280414 4.479943235121969 8.521938784439275
Zn 5.209234164421414 2.7643167468666134 7.591720855970311
Zn 6.343434715246442 5.05556858765053 8.088997253635425
