26
Energy = -14.17193835 eV
Zn 7.598443696277743 1.9919876603078694 7.334117708446997
Zn 2.3274418343110237 6.967463649802987 4.816071636994858
Zn 6.5427780191222515 7.068163736498088 2.6857233321259977
Zn 1.379430164720291 4.596786284130415 5.3495265254182405
Zn 10.02084981036003 5.206816560020922 4.964086034160608
Zn 4.513987461283804 7.9594558768277155 3.8498217441162494
Zn 5.029030492288437 5.462893899708475 7.740811269789494
Zn 8.996837202566113 6.901380929710692 3.3241920647188388
Zn 3.3878099031048263 3.3422132961066877 4.087296833562352
Zn 5.629507861207037 3.4786593889278286 5.3835597087696465
Zn 3.2702158861169583 3.4099005953881765 6.697376081994166
Zn 7.071765877765103 6.522405337361318 9.17119018970405
Zn 2.621013882453313 7.2617469819695435 2.223359709221111
Zn 1.901999007404229 4.956719675244153 2.805325298420057
Zn 4.383283112404608 7.801245369716781 6.464620351325239
Zn 6.699709936582468 7.781934441236 5.276700989512153
Zn 7.359975604608888 5.550573645371769 6.50712960863325
Zn 7.193780894667678 4.060059485109965 8.767836581493045
Zn 7.909437433329699 8.370263387295758 7.668082374510523
Zn 5.222878902957354 2.55317819638574 7.912976242269729
Zn 4.661526715125253 5.199641664150096 2.821686650603639
Zn 8.479132038314438 3.3081908521752412 5.471322733239664
Zn 7.141147410996779 4.946981578551145 3.899005221356242
Zn 5.478309375362614 8.463969640782755 8.593394559686823
Zn 2.5694446829622337 5.957050674113928 7.147479509764248
Zn 9.335432645681191 7.6054870450810625 5.762476892137323
