22
Energy = -12.33039165 eV
Zn 7.69736085485489 4.612251047595475 3.8749048623331643
Zn 6.61649723355165 6.507901915714341 2.2487189200385247
Zn 5.799715920569492 4.104185070842183 2.343901922821797
Zn 5.684082209242188 8.569314337265093 3.4426679075108564
Zn 4.312852248025608 6.313276154481377 3.5682172775535883
Zn 7.638357473399532 7.1671305374037075 4.556802265895247
Zn 5.7837018341747894 5.693666080947102 5.716362647824904
Zn 4.017901111506597 3.9666081927552588 4.694420088832965
Zn 3.1844883234670682 6.138351835791302 5.9239621334648325
Zn 6.138399105696596 2.411775212008761 4.192288620883674
Zn 3.787205044222766 8.876118322657383 5.069505280246541
Zn 9.160913472750048 5.435646987347998 5.9790920352624655
Zn 6.007923631426844 8.510999390632962 6.137486574986427
Zn 3.1945980356380197 3.673207888980011 7.518055625277353
Zn 4.9522475312490135 2.227930028788297 6.43417621192516
Zn 7.236997452662111 3.5576587673607576 6.266150219421644
Zn 3.608754367260273 8.225541980998337 7.503912613880512
Zn 8.251354954580828 7.510412558847246 7.159914376726272
Zn 5.528600528993451 4.239877801024408 8.14877832874995
Zn 3.353401358071481 5.937746745242806 8.595977231164746
Zn 5.788763751639352 6.839706744146319 8.119645504295047
Zn 7.995653308592085 5.220462150743273 8.244829102479452
