21
Energy = -11.49989992 eV
Zn 5.030606830383771 6.067984104410596 2.7892077348607205
Zn 5.092211566924032 3.452236159579797 3.8946610875488155
Zn 7.018469230568874 4.355011767404645 2.5483312405035536
Zn 3.516825872212232 7.375449054629673 4.59240049645711
Zn 7.496106907975438 6.793908679977357 2.893713385772813
Zn 7.404387371449748 3.8885272127730754 5.17692211591778
Zn 6.032537511403503 8.101662522628924 4.481327605469523
Zn 3.0072915962393125 4.949621631033999 3.9943000952214565
Zn 10.282436976418634 4.89274638549831 5.158567050528921
Zn 3.01441751889683 2.7558584126751673 5.359739609317931
Zn 7.859901600731293 6.415508824998281 5.450822901528259
Zn 4.464440169944521 9.217530772217765 6.212125654795024
Zn 5.345735716238077 5.577020596459158 5.5815679002214
Zn 1.6416741614940187 6.059599774858886 5.968168656871424
Zn 5.326648552947904 3.024403436576722 6.590802684630037
Zn 6.275746411654661 7.6928204801107425 7.249940506753825
Zn 3.3040425223375824 4.478701704936761 7.264080648691196
Zn 7.978986775516728 5.98257995053502 8.01128627600405
Zn 7.456396012723017 3.520960975805637 7.850821801122692
Zn 3.7477095625791073 6.9937975015196825 7.379317932797102
Zn 5.537063306463679 5.237706226471729 8.385530790088039
