22
Energy = -12.12476278 eV
Zn 6.4018800677179755 3.3430029282968787 2.5285865611369682
Zn 7.661204634152329 7.064072314371862 3.004162627378562
Zn 8.148623254598094 2.508348638199189 4.184810576040906
Zn 3.7646621149439348 7.298803944302466 5.132500150974511
Zn 5.5395867095023155 8.356147523926932 3.6774954441634193
Zn 3.3038117612763167 4.740696652507051 4.845636357878305
Zn 5.19558316294886 2.9998336370242193 4.810291713874591
Zn 7.80587814015 9.079834559934698 4.64501295137107
Zn 5.591833951700924 5.609229858738865 3.800445127584515
Zn 8.114470541147355 5.6871603307019125 5.08592420251284
Zn 5.597938992028509 8.837865596324663 6.317929582968407
Zn 5.943560005535121 6.258105305190635 6.305614787132632
Zn 8.019733092925408 7.766306837062895 6.782752466933437
Zn 7.535132444680653 3.574934982270048 6.437227587560256
Zn 2.792192170249901 5.81269046148203 7.097914845039434
Zn 8.939685899220274 5.4892064322614145 7.662888176384707
Zn 3.2902851932914987 8.363878506506193 7.552039976024259
Zn 4.961592915867664 4.018950465503886 7.135722304446417
Zn 6.956910705554601 4.410040753846303 8.812281637218675
Zn 5.220056964341987 8.596730358299732 9.184594653684346
Zn 4.809354141207202 6.01474606377988 8.714271640759984
Zn 7.20710251855651 6.970493231065539 9.082976010529507
