21
Energy = -9.85956324 eV
Zn 8.502411533967111 7.579425020156006 4.048784443191544
Zn 4.018794723641022 6.185940806559606 7.734077667209174
Zn 4.135813578848599 8.054855652114073 4.5883863527177216
Zn 5.700810256104684 4.299231953153827 1.6431028216563877
Zn 6.052917623286814 3.7811838297010514 4.171005616857986
Zn 7.190121831437359 6.316330953952335 9.100578183640618
Zn 5.834839999815678 4.349357839410434 8.03335914999428
Zn 4.748214018202636 5.665177612001571 10.228305074387425
Zn 7.3836733447022205 8.84987225306735 8.518280232962782
Zn 8.234223360865602 5.054123824750412 5.011710657597106
Zn 7.779064594279727 7.145979786623915 6.53626693993458
Zn 4.370183988688819 5.897427308962174 3.24175978872426
Zn 5.144811890651342 8.096657919692849 9.5231143057163
Zn 6.164469785200677 7.959384238412383 3.092267587998697
Zn 2.7747103008965643 8.247560647381844 6.824457844737451
Zn 4.902060297540553 2.710097893475848 6.262375530457306
Zn 8.670866823906021 4.820583620535727 7.592218778121203
Zn 7.6660167651988 5.674970761346253 2.5074610074430423
Zn 7.481641335333898 2.8737281908619656 6.398242152991205
Zn 5.534158473692057 5.872552283926802 5.666753553153749
Zn 5.4552012890040364 8.418873368452937 6.8500711350058
