24
Energy = -12.67794432 eV
Zn 8.22793481057562 10.287186229252686 4.271563304751593
Zn 10.274673675932155 5.760843215054903 8.637338084072288
Zn 9.190620537240344 7.36730957894838 5.310287856500719
Zn 7.091418925230586 7.718971692972669 7.012328869944595
Zn 5.706275939504824 4.300316700753574 9.946912848003173
Zn 5.836749779329473 3.814825461851637 3.6229650150895596
Zn 10.440758963585388 8.033836349591104 7.572005532918939
Zn 8.238365725506652 4.761337239414569 9.877010664364082
Zn 7.090128339233587 2.8589479308376218 8.3653783205037
Zn 5.227201376869584 5.962513162713128 7.674755689599134
Zn 4.398315375942411 8.399880739317922 8.855274980658633
Zn 10.026040629352812 9.804770358667298 5.847663984916169
Zn 6.6442632777426205 9.315602154262873 9.793852263883307
Zn 7.4498120200080535 5.735054440422745 4.504026595780884
Zn 8.269153820719175 5.404858803011151 7.037400216602568
Zn 6.014805555060341 10.540621780798721 5.352789598583072
Zn 8.273447182970688 9.926952931222244 7.801885804995379
Zn 6.0568730224169025 6.7750972083209735 10.05652324854347
Zn 8.462774920396027 7.52383052183545 9.314107564982773
Zn 5.656564649838111 10.49910467082387 7.785232487421833
Zn 6.235241557702279 3.9827931279733573 6.2337677836837635
Zn 4.935685044738551 6.114056690203474 5.011694622135107
Zn 6.54656348930964 8.16282354034363 4.325266445727588
Zn 4.6267088771522324 8.295774405105137 6.297777285388228
