22
Energy = -11.86677213 eV
Zn 7.4485163922587745 9.961267080654833 7.516682398922507
Zn 8.817175069890233 7.82156499424652 4.129651575992124
Zn 9.39867599650798 8.8038968752521 6.391809671981968
Zn 7.721646291040983 10.103744612389955 4.88417358452157
Zn 6.236411769069986 8.094875962763075 3.9514647709524415
Zn 5.413260044450082 9.445110920647592 6.004507096613264
Zn 3.6761674297883404 7.995933502162075 4.63686072619325
Zn 4.9943029857654455 5.801713618176634 3.8646591189702004
Zn 3.6892842231211533 8.016900200469914 7.3315066779341835
Zn 3.7231083344298 5.830665092060936 6.053552372795585
Zn 5.725055685486422 8.545871996386255 8.786616006142435
Zn 7.5279028701087745 5.600026257841629 4.156077861489428
Zn 6.588384916221592 7.159848001564798 6.343179759617958
Zn 8.251521816926951 7.5701445323636545 8.358947778214233
Zn 9.089753007340908 6.242984736670529 6.273383922748772
Zn 7.692146619265439 4.900047394605559 8.191045839599985
Zn 8.409128999493412 3.7974454587565942 5.839214635177579
Zn 9.837461690328793 3.686340649886208 9.628654615766271
Zn 6.701275020960309 6.527507073628285 10.122250837558742
Zn 5.961265980032906 4.561474069574883 6.089044186939993
Zn 5.1466700197970265 5.926133293440755 8.189881086426459
Zn 7.281230280774181 2.1537759973183177 9.262969831670144
