23
Energy = -13.03576282 eV
Zn 6.7588735149822545 6.622341499367663 2.4386544027466956
Zn 5.360208827100868 4.646968487368418 3.219394104249824
Zn 7.896865184851528 5.19890185136493 4.2552014598405465
Zn 6.075552635258092 9.092596633691162 2.8612661541327267
Zn 4.25668568691394 3.166142090770579 5.100026772147274
Zn 7.518127099177534 7.764067215169664 4.7792534613454265
Zn 6.713028497889185 10.288941390885881 5.019289465030422
Zn 4.577430691588128 7.000822753771309 4.040573775662589
Zn 6.892746947521386 2.7460016453873464 4.095948795132822
Zn 2.755983158730765 5.135857747762147 4.291791075841071
Zn 6.9426296619810985 9.937827266524 7.485221260750657
Zn 2.8579377139851543 7.045706296754409 6.088532460941608
Zn 2.5089717404594727 4.662233634489799 6.789885841412309
Zn 5.732775323003702 5.370932092150189 5.863078108833177
Zn 4.745522388127411 3.688261319089803 7.628571434399412
Zn 6.077947563112133 1.7903928817620052 6.303417085481318
Zn 7.940435123839029 3.740450243531468 6.428488093477869
Zn 8.104266618380269 6.319405671331793 6.777787472434473
Zn 5.33523075665765 7.928599730363946 6.334563950282792
Zn 4.352023673736444 6.264704736094961 8.123849844445337
Zn 6.7121732188634775 5.155448330280934 8.72309733541342
Zn 6.920394224972489 2.6113321593716385 8.579271304481917
Zn 6.791131101050141 7.64900567489908 8.599777693699275
