28
Energy = -15.04755343 eV
Zn 8.24101080032621 3.8508607433110225 4.495622554617503
Zn 5.984960718240293 2.40311418547119 4.417312680647947
Zn 4.462009945582902 3.505909656225375 6.343097911384988
Zn 7.640250977849136 8.619159584303842 9.08456475154936
Zn 10.653728083721166 8.307630526138752 5.453150597084365
Zn 6.306697848328784 9.371430373021688 6.971221749632537
Zn 9.093564463040536 9.560248462497954 7.201897025328451
Zn 9.01661966241559 6.905884933014744 7.603446318731934
Zn 4.903041783259687 6.5177746820567695 3.4097016345705278
Zn 2.811565813874168 5.207558128915318 7.536881088583261
Zn 6.644410277867204 6.08547645909211 5.275156114285935
Zn 3.140241031763737 6.5482192101874395 9.590114416105827
Zn 4.573899081089081 8.928370462997245 2.542112925631628
Zn 6.884018336363798 2.7643393363451554 6.781694195270368
Zn 8.762511728639243 4.464906146657606 6.97941540300828
Zn 4.309961001870193 7.602020973099995 7.500634060746068
Zn 6.4991419395374335 9.717673906962853 4.084821868187939
Zn 8.191495415665026 8.247598368987243 5.062407904527184
Zn 5.852126092730599 5.292955908523576 7.686398117236553
Zn 6.372498545033687 4.468040062869158 2.9194207310273206
Zn 2.043075047362923 4.165336857203083 5.353636821373062
Zn 3.0684824404217332 6.507856965075529 5.285224683149047
Zn 7.78390020319743 3.567268300698726 9.112616258976791
Zn 5.516465654696197 7.367135390848296 9.995557221843125
Zn 7.606949054401857 5.99734540004409 9.663840897116087
Zn 3.993292189430256 4.040842147537499 3.753697698159623
Zn 9.664332236917375 5.977931536621894 5.17450766133272
Zn 4.4614640441278555 8.60476726403575 5.188811896669147
