25
Energy = -13.6803865 eV
Zn 2.9633244841407476 8.177807433369425 0.4658140710156868
Zn 3.98216789054305 7.586273051199995 2.746540802576726
Zn 6.435204127891583 6.971696507172838 2.6384082605563464
Zn 4.590045121846405 5.0610158110792485 2.4757312380993644
Zn 4.8291794876876395 8.609283107400662 4.933616506550554
Zn 7.455950475154821 8.030443713377702 5.28808970200737
Zn 8.280107394085029 5.859046893278703 4.066832746163005
Zn 5.788150643495834 6.038177690179744 5.178717999150526
Zn 6.685594240937071 3.5664485185683574 3.9359065493887986
Zn 3.1188702238185466 6.32764574448316 4.795998553155362
Zn 4.2655375279639305 3.8178786306623387 4.682276756061398
Zn 8.169255418887921 4.146645223796094 6.013313146066543
Zn 5.891108845036686 3.2249672403764307 6.657510394831008
Zn 9.418266028641849 6.4415750194468115 6.29897186171262
Zn 4.013699995548607 5.106218734271072 6.991797744729901
Zn 6.875189291212079 5.951952827168453 7.3659036430175595
Zn 3.4401642708333378 7.624696133530249 7.114117191822017
Zn 7.66422131471081 3.3625960137498954 8.59790975495138
Zn 5.850165306031049 8.502359111605761 7.336157544381931
Zn 8.483030866338709 8.6274938989191 7.529844631719684
Zn 5.104166810593097 3.9239689142711733 9.077447011405772
Zn 9.173934773767094 5.589149068036135 8.80141055383057
Zn 4.928238805891124 6.538893492218389 8.97962006322106
Zn 7.0088696388310785 5.188717396906828 10.28484421023603
Zn 7.486578103457068 7.626070912275516 9.644240150692895
