29
Energy = -15.65784809 eV
Zn 12.099156990288876 7.095221852640593 7.567797397804442
Zn 12.000295230149854 5.635122521439722 5.302466865088374
Zn 9.149994766556048 3.926148081063026 8.147723119602851
Zn 9.591984736920951 6.402346281224706 7.704413579838196
Zn 7.963346189134949 2.9448220556335163 10.188995281882876
Zn 5.964930825246255 9.777731901453198 7.243490438609739
Zn 9.61430956920714 4.627807905127327 5.695285786095455
Zn 6.944686516674774 5.86353335655043 8.075766428815593
Zn 7.856707585507648 8.226956415712701 7.371203750911306
Zn 6.033175807932397 3.4208565445674997 8.596040975856546
Zn 7.377289550987688 3.5546774402119397 6.276575865756556
Zn 7.16388905134887 9.273195557110139 5.051144934698998
Zn 8.640302499852508 5.106363615842816 3.489699416482291
Zn 6.807371206739301 7.5968271697558025 3.2118261925134366
Zn 4.935606021628801 7.122251289049224 7.087917595356178
Zn 7.10442309875511 6.371046866633045 5.471907411975826
Zn 2.195592952754051 6.601788933081438 8.630867130975847
Zn 3.5492371028656997 9.497724001238874 6.716136294644339
Zn 4.197905946581512 5.131173065913023 8.688717294171886
Zn 2.0802067254606853 9.092268438845005 8.752185090311354
Zn 4.822675937857111 3.7397454893351814 6.349988536976237
Zn 6.245775123368003 4.106606133527155 3.986042122085265
Zn 4.5795329809368095 8.105584839462978 4.669768782717916
Zn 6.910044882823335 5.542074093872452 1.7347116599073626
Zn 2.815345740330558 5.410342637078184 6.393390108936799
Zn 1.844798986976585 7.75047380090226 6.12035727621223
Zn 4.59489560251529 6.236902852813591 2.5980072493074164
Zn 3.703069974807887 4.417693377862898 4.190706290398005
Zn 2.43812934339673 6.653378536062724 3.9368996501440496
