38
Energy = -25.58943706 eV
Zn 0.7820575201248439 4.357556612334491 6.3526066710612215
Zn 9.784332840562515 5.690238209143059 5.868765980318111
Zn 5.005256484483726 6.881814419561236 5.8575382134891365
Zn 7.999586804881476 4.580106194392863 1.9551212460348255
Zn 9.08633540628458 9.992670545559337 6.126543529309784
Zn 6.36110002417715 2.6454922475924882 8.175790706477159
Zn 8.197541045348888 3.996086970138078 9.540618842148175
Zn 5.791581054468346 4.499787982371782 10.069681325703007
Zn 6.536699060168287 9.813372406455882 6.035570023067364
Zn 7.903461573885816 8.836301277541509 3.939352954642405
Zn 10.318877104173609 8.072600432941641 7.368646055707879
Zn 4.473362685654168 3.9240735494629106 4.057044599000651
Zn 6.530106539654552 5.220670965436511 7.18880806059088
Zn 6.640549852393462 2.682594320577412 2.9978224792220907
Zn 6.471568273643459 2.782639277635279 5.577705326518337
Zn 10.279644908128821 8.073307256569118 4.842239856725029
Zn 8.694400460238679 3.7590082501634736 4.387896374738871
Zn 7.543132535454359 7.237279384416076 6.0169027324808795
Zn 3.9835609748452154 9.899220295219976 5.949857193860477
Zn 4.199842016444629 6.47013244579466 3.2229309129117096
Zn 6.670331065316985 6.992202374309735 2.5120804384827236
Zn 2.715719186224183 7.997346064048793 7.077037449886759
Zn 4.30721704299781 3.9960246155286363 6.598279074172436
Zn 8.942199800343317 6.120227590144042 8.297356816923372
Zn 8.621343490495725 3.649664644660876 6.985563383631494
Zn 6.612892070989862 6.795979662225517 9.331075510930452
Zn 5.204810004585744 8.532585635214659 7.918770040109902
Zn 9.030123525970057 6.3774511891273 3.465002079939259
Zn 6.62234175924151 5.366868551358736 4.598910825235796
Zn 4.222536234355269 6.077934456383916 8.3815857826528
Zn 7.849993896972738 8.724606167743188 8.152757265202606
Zn 3.9555286553027944 3.1649178989717943 9.05910322131431
Zn 2.7265080798510417 8.193189374416958 4.499795100262935
Zn 5.313506574531675 8.76442668701492 3.9274474444625493
Zn 2.7116399489478256 5.697070242896629 5.269406999676484
Zn 1.53708287361913 3.7367909078670576 8.857026109160419
Zn 1.389524186910594 6.187299216283244 8.22996749907043
Zn 5.465758341400383 4.6925155815700625 1.789445777951297
