35
Energy = -20.92990161 eV
Zn 6.381976643422595 9.880394566587439 5.267953070856778
Zn 9.438402244358391 3.206327405198099 3.9224402849353663
Zn 4.361417281454839 3.311668907666635 3.850841922004831
Zn 4.663552051790751 9.110143913152472 7.094137868698011
Zn 6.756771657778344 4.401357190057342 5.934497609408602
Zn 6.875397400344479 3.2093029511617197 3.609595887983336
Zn 2.053379444202804 9.690474078897836 3.8251572262570157
Zn 5.545245067656305 1.7375543535042564 5.459395270604225
Zn 3.1515439806289773 5.528574301934533 3.649926797806798
Zn 10.621882752135855 5.3506329345917605 4.651128471010821
Zn 2.7867939498025827 7.0829995194323825 8.259420756824749
Zn 10.43487740292233 6.021313360516481 8.999874438972883
Zn 4.283972340609606 10.850054089365624 4.295550224975194
Zn 11.587271697051387 5.952755148843276 6.829155026320225
Zn 6.420831464864319 4.6820796954755535 8.530806303624923
Zn 1.5808447387879816 7.3686011315617845 3.1132039598431693
Zn 5.716967746657262 5.693086634972211 3.478753692528762
Zn 1.356353501919068 9.085823902342229 7.68163663198272
Zn 3.7896677450603242 4.582734709925697 6.051712528102982
Zn 2.929602514674642 7.45112930579021 5.662383434565374
Zn 4.860667263143531 2.7587834645696874 7.691943804293182
Zn 3.831976259678818 4.897619661301789 8.648503148427958
Zn 8.289198619578151 5.4930607463655 3.5644340074442304
Zn 2.640959372650685 10.615629063866674 6.182150844509755
Zn 8.143546506974854 1.6791805818033045 5.477874369380836
Zn 8.660416412509983 6.405603842204231 6.283609817538747
Zn 8.860849993022635 4.042802206570908 9.200396449225824
Zn 5.345384309079782 7.102643009135272 8.748160555928942
Zn 5.477131303504034 6.566191505074188 6.120879572297928
Zn 9.347356166963586 3.8134739508686906 6.632187739407711
Zn 4.747258500189233 8.144470146484851 3.937829099533832
Zn 7.2068895414460625 8.458586715627083 7.1487248607531395
Zn 7.377232579564839 2.3064136425892916 7.822592920755634
Zn 7.334096576713228 7.69271023173377 4.39770037668232
Zn 8.032393461750024 6.717931623719697 8.867549519406081
