33
Energy = -19.81324391 eV
Zn 2.1529930812214415 8.174781138804418 8.185341197776868
Zn 3.1910178071822437 5.638136676271396 8.085857316746003
Zn 3.1845427744136856 4.818483452944975 5.633034246919185
Zn 2.465219999204516 7.273109014130566 5.631988830158087
Zn 3.8888359665303 7.456604171243727 10.040360371446106
Zn 5.107751028531355 3.6380578621804065 4.481485963255582
Zn 5.988609212390172 5.067270580065415 2.3409149259216973
Zn 3.794739008066196 6.210181805584794 3.153105915726134
Zn 3.7374165901461796 9.849196949256012 9.146032804202111
Zn 4.983474009951504 3.9152578461554346 7.307023284634764
Zn 3.7735252518575737 9.48446249328569 6.382819621851461
Zn 5.507896132023557 5.396278789100135 9.600379177149787
Zn 5.11536475444553 7.504607552435545 7.620744767702422
Zn 4.078435413595548 8.650036349408323 3.973970389192628
Zn 5.278675952797397 6.3303067318748845 5.387157324260875
Zn 7.262396258060655 2.7241524298692363 3.2865702647994235
Zn 5.993227338397471 9.9349836249078 8.06573167937069
Zn 7.051708760438797 2.8329740558359306 6.226650521908963
Zn 6.346945122761939 7.656509486875703 3.259149680011285
Zn 6.305884309790099 9.014010807015339 5.500591053746277
Zn 7.3943541066344665 5.06433911387118 4.796428597019007
Zn 6.917907214952614 7.705538504533843 9.801075805721316
Zn 7.245948835002977 3.6372088786284382 8.753478507485971
Zn 7.005431932619453 5.884218386376217 7.165420539575359
Zn 9.385410212218385 3.9880944670521226 2.598293656504651
Zn 9.365234707838415 2.8056623821364934 4.805391162762657
Zn 8.424344270153103 6.314864506916911 2.6830955935328564
Zn 8.429934049721744 7.720090342434069 4.947970851704204
Zn 7.94805841717585 8.422779408596805 7.429332213763731
Zn 9.34457322702327 3.974155983454893 7.267976952331696
Zn 8.552713268224274 5.716844439896454 9.504803992363211
Zn 10.015969668416663 5.399101047529804 4.796089994786139
Zn 9.56586477224606 6.550294543215912 7.038423010217316
