33
Energy = -19.22615181 eV
Zn 8.390117237607308 9.225393380291678 9.102664413886426
Zn 9.308220185200272 10.21225096979395 6.583243834247301
Zn 8.878922401714373 7.180689892458258 7.083267835376324
Zn 10.844149540329742 9.05481415415277 8.346223132279784
Zn 8.377136053469687 3.7689315314523686 5.670533200433831
Zn 10.026215308311345 5.760100790774765 5.309625463915575
Zn 7.066212958500978 3.335935767861694 8.01668625512225
Zn 9.517323925221985 6.824966728643539 9.693329302427147
Zn 7.066286451727837 5.973538522730833 8.306394551945376
Zn 8.36097446810582 4.475750742397336 10.34646088053652
Zn 5.77150514870982 4.4759725423664305 10.346415597812054
Zn 7.066262764492908 7.327251381981807 10.530489040218903
Zn 10.76231387448357 8.374535734375865 5.534982504510066
Zn 9.446970521016839 4.617906389264882 7.927344675680575
Zn 8.459223104409313 5.6671080145123796 3.341316980954477
Zn 11.276546775973237 6.580310186687177 7.673597319476322
Zn 7.066421978948751 6.1923744342808975 5.579552932757034
Zn 5.7556723282025795 3.769036015274724 5.670040932336953
Zn 4.615141187391743 6.82485557131913 9.693235043285679
Zn 5.742276570420703 9.224816289849036 9.102464304483949
Zn 7.066343816502574 8.719747315509462 6.836958787410211
Zn 5.2537572769837935 7.180643241746643 7.083189603239656
Zn 5.635731769220431 8.245228173774757 4.229263136682473
Zn 7.06624565009954 11.293133890487185 7.379894430856183
Zn 8.496680612183615 8.245217895397733 4.229216794630913
Zn 7.066313185788684 10.370378038624509 4.854846450788259
Zn 5.673570009100334 5.667081638044455 3.341591718851934
Zn 4.824423376201581 10.211757488640242 6.583072504740174
Zn 3.369828517129395 8.374301092120952 5.535008043180009
Zn 3.288180560586029 9.05477841726348 8.346074611906499
Zn 4.10627369967885 5.760111546867044 5.309601254103339
Zn 2.8559585028579417 6.5802117939751 7.673674156120432
Zn 4.685788065141259 4.617858364714126 7.926728299401444
