35
Energy = -20.32952409 eV
Zn 1.1868853150960725 9.059865112669895 6.360508289495075
Zn 3.3744458492301614 7.825885854281652 5.6690378153935415
Zn 7.60000842630438 7.246883791302351 3.981303975418109
Zn 7.721973857873191 6.192650383568206 10.111131579875833
Zn 2.995112637739053 6.873983293017607 2.5538527429671474
Zn 5.041915710929197 5.791446883762471 7.218225579661081
Zn 4.852736704612788 9.613035774089145 8.85596958376881
Zn 6.617287026592794 1.8238987759647207 5.194482566669155
Zn 3.267312712179517 7.589830434035179 8.188780411173143
Zn 6.8449518680711 10.618583494258699 7.470189380931273
Zn 10.150797610170565 5.708613807256182 9.334370318003215
Zn 5.434091912492222 6.386785923747658 2.9817470523751877
Zn 6.571042175408871 5.059324587034811 5.0764246652843505
Zn 5.430428857129943 8.62488146002158 4.266403935814825
Zn 10.259558736086403 5.271781977280916 6.76989166382256
Zn 1.3315767402420096 8.0760836493198 3.9766006062987262
Zn 5.05891459806617 1.1289271455159307 7.309081071634401
Zn 8.337661413081712 4.2044004101624015 8.467541419440543
Zn 5.9034423769260655 4.484284670949151 9.511988926310654
Zn 10.97519973812901 7.589079174472134 7.7266017370838975
Zn 5.132045987343169 6.877358638912885 9.743304978768338
Zn 7.512838316048445 6.656424010388377 7.143995190686169
Zn 9.04524318671811 9.294864216229115 7.474926471318258
Zn 6.266003468444131 3.378408527127581 7.271329590019804
Zn 8.529123152147854 3.4928830713172676 6.003499871785433
Zn 9.273730319343217 5.31099411321178 4.342888052373231
Zn 2.501353617347157 10.137082008812516 8.134475258476309
Zn 3.957568813114017 5.514821506123302 4.821288326231013
Zn 8.7765054992957 1.8878801448693596 3.8224300104558426
Zn 9.535633924568765 8.140354840315014 9.78957047463558
Zn 10.591908081791757 3.560008509048911 3.063370118957022
Zn 7.086433169675663 8.456308780292396 9.027693282544483
Zn 9.511316419454861 7.5697584177494806 5.6426049963173
Zn 4.686384788184274 10.007386244126534 6.275747496469916
Zn 7.603369627834904 9.473450571579695 5.347907685510855
