36
Energy = -24.2457755 eV
Zn 5.308453584000504 5.753425270395846 5.926258736477579
Zn 7.262357634304659 9.02980717484994 9.176954364252301
Zn 8.07805886782998 9.99879049039384 6.910643402212569
Zn 5.137744384288179 5.622775379081298 3.217035924841168
Zn 7.840095864364208 5.895800934805323 5.999669426099793
Zn 7.364684180671978 3.967692945191915 7.942002018949367
Zn 6.430774263184826 8.092001833071981 6.031447893051191
Zn 9.13476216563376 8.4104792396533 5.176233191977821
Zn 5.525499512834592 10.162347874628411 7.520416810668772
Zn 10.02036699567506 4.111868334347498 4.399044800513275
Zn 9.69072444722292 6.475427622219368 3.6525185200480172
Zn 3.1531305679100488 4.1030116203231035 4.256848332980583
Zn 9.853005163817956 3.81941444898791 6.877746571724787
Zn 3.6272722855188304 6.2652551361087045 7.939926365421837
Zn 9.029649363305541 7.6951080387981134 7.711312741894614
Zn 3.8448564655091206 8.467356883526337 6.564997157735021
Zn 6.565847215572126 11.665246261735023 5.704994876097413
Zn 7.063264361891368 5.080871996147349 10.337610418416293
Zn 4.790177463737796 10.20819447163823 4.643966586020822
Zn 10.515073454606283 6.180725959666381 6.108193185862704
Zn 7.791782121685753 3.156248471754633 5.435892093051544
Zn 4.704537751446271 8.310089045520408 9.135647670001767
Zn 7.346745472487247 9.965362080536174 3.981051571602064
Zn 4.605148595034188 6.034755674652278 10.4239072528791
Zn 5.38598474963404 3.0852048522332987 6.523746684686428
Zn 8.620686653100353 7.1405116466079805 10.305193710788732
Zn 9.420199028217612 5.3350244352142075 8.801233082203764
Zn 6.344652405907707 7.625395375977889 11.164120618411348
Zn 4.355102426275503 7.805193736359161 4.073769511615939
Zn 4.889322288946578 4.146236250664289 8.758052993823501
Zn 2.6478704762190377 6.321594077122672 5.419138775620578
Zn 7.0564551076366175 7.405069236428038 3.592189837309687
Zn 7.67666197951016 4.872537049414262 3.4345936978829745
Zn 2.9160216846641744 3.99610798565951 6.783320985438716
Zn 6.500161868454901 6.534712079803052 8.095434803777009
Zn 5.602993777870172 3.360480715451706 4.075010014629422
