36
Energy = -22.50379819 eV
Zn 10.942553481168115 5.812612938606332 6.7062845103669195
Zn 11.057859014226889 8.119653440996723 5.654369019582386
Zn 9.431012894638046 9.19858060627627 9.533173382997017
Zn 3.9739002197276387 3.842766082978155 8.371189308294639
Zn 8.995949181179327 6.1419511261921915 8.722984588889053
Zn 10.474799201234095 3.8427274178493533 8.371391993249354
Zn 9.391074868061677 3.933290468608366 6.039724336382905
Zn 11.186049728146457 7.823952265752236 8.248385924185882
Zn 7.224338827805003 3.536573555435173 7.439886819882902
Zn 5.970927730387413 3.501539854382221 9.800859526197652
Zn 8.477675435441283 3.50153399523308 9.800881089592943
Zn 7.223974137362375 6.326397400552805 3.733295764392005
Zn 5.452667077576931 6.14192698599618 8.7228660305182
Zn 5.05786138321557 3.9339200224138713 6.039476097477015
Zn 9.577308122362775 6.0494053335024285 4.570764844197286
Zn 7.224446820063104 3.8661871916308774 4.777529513270968
Zn 3.5059684270210587 5.812862060447671 6.70612190447277
Zn 4.8704074916795514 6.049651068382122 4.57003568569521
Zn 3.3906803660137523 8.119886918693913 5.653866029981107
Zn 5.848098755063699 8.424834884544651 4.402774460769422
Zn 10.97322762452316 10.356097376125135 7.924253189196352
Zn 8.500715679925682 8.27971241974538 7.21690712504942
Zn 8.554335471922437 11.305958552113383 7.791777556900963
Zn 7.224316320387647 6.009567159319397 6.705593451180617
Zn 5.947831468044661 8.279716496156537 7.216829952040555
Zn 7.2243230870595205 10.22434676118346 5.729359374028514
Zn 9.771452679065812 10.277036964320002 5.720309807098372
Zn 7.224334904670411 10.591204388988817 9.797434020638873
Zn 8.600276956179167 8.424718821021786 4.402740378036859
Zn 4.677107504890441 10.277296531262563 5.720379602445533
Zn 5.894765249086047 11.306057257903335 7.791700136093595
Zn 3.2625904011069817 7.824310811003586 8.247959485640754
Zn 3.4756628668510987 10.356561149348458 7.924290516743786
Zn 7.224279928018372 5.504368488636162 10.714342149639403
Zn 5.017598981732073 9.198644792335813 9.533151582815862
Zn 7.224295827451518 7.878816581312694 9.771778843420753
