31
Energy = -19.64277153 eV
Zn 9.075058198063566 5.441411262121485 3.884963885615883
Zn 8.076775814840564 3.14714422855466 4.693747018078174
Zn 6.583445970717089 4.868253319590256 3.2107565200371844
Zn 5.627337216649346 2.534156256388313 4.039273405806342
Zn 7.462232314456617 7.310680676750621 3.283263260383343
Zn 7.679681596649857 6.972473409634223 5.968741597030251
Zn 4.910502876213465 7.0014285220916035 3.2802885755189233
Zn 9.371628712171116 4.8708070265026215 6.284104224718845
Zn 8.43353822434698 2.631817014715747 7.185447842129838
Zn 4.220997450686211 4.694579289450308 4.284996853863415
Zn 2.4955912789574772 6.670525346085872 4.1292402943155775
Zn 6.376186543393235 1.5276209978487734 6.202409929639867
Zn 6.459643812573442 4.748352044492839 6.119148416813295
Zn 8.409494375430684 9.32665076464378 4.695556616273661
Zn 6.093029305469584 9.424215130591971 3.7276883050190475
Zn 4.290059177024355 3.031294299581235 6.335742419506435
Zn 6.189385850915304 3.152408490633958 8.33120137339782
Zn 8.306717568795133 4.74486076965235 8.678866091061185
Zn 5.126105795807787 6.818665670784858 6.141347836886809
Zn 2.7455994184699373 5.220963371671483 6.387982238539692
Zn 9.425974288741005 9.217553851200021 6.931386920194734
Zn 9.611481436441235 6.83823787236109 7.8876966071900325
Zn 6.313845712142483 9.313982014038332 6.493151644484697
Zn 1.9879806460149283 7.718909635345833 6.36910662750097
Zn 3.9104640553092636 8.855305993421313 4.854099639290766
Zn 4.101030097634444 4.506256574312164 8.464845203950013
Zn 6.181805174883412 6.126254667027198 8.693759603132047
Zn 3.5429593153647736 6.953479056641828 8.443985231679504
Zn 7.886816313660761 8.450634850934893 8.842908262266612
Zn 5.450872083426813 8.590322991843227 9.069812525729644
Zn 3.7606924358837848 9.278302320661313 7.342739818403683
