33
Energy = -19.00274934 eV
Zn 1.7920995088583112 7.336691500990715 5.698588445852841
Zn 8.94859282636964 4.744328601845654 8.407206499480695
Zn 6.922320305163673 6.11972320660661 1.7228817307426383
Zn 6.876263943865228 3.9910085065629435 4.9840503057752725
Zn 4.275746209005953 8.579513148671532 5.725925689610729
Zn 7.678036119695653 6.995604845419247 9.07745726721521
Zn 3.990276772407794 6.424845559683266 7.311121750010976
Zn 4.657048174060725 3.689360867399777 6.620875820840765
Zn 5.636129277909669 8.08444486771153 3.1630117297754334
Zn 6.363845292358028 9.197872044211287 9.439270803114557
Zn 8.201048118853766 9.286656963784177 7.573865214086034
Zn 3.78584306965959 9.040047961263278 8.44080629254466
Zn 6.952179456804426 9.300053587335958 4.986136547125278
Zn 5.758194241553603 10.032939726224742 7.104723518427499
Zn 6.123743349286245 5.151164640861675 8.13258583272889
Zn 4.389267372325848 5.87355362945313 2.4053681187605944
Zn 12.021252255212001 5.941076716001049 7.7205097400977944
Zn 2.460636321727895 4.786871572346326 6.0229150392737125
Zn 9.150271919878055 2.19282325141332 7.936323671182207
Zn 9.813185677926137 7.205587327797556 7.65842827886207
Zn 5.400325691822346 6.250551217407527 5.146599470213878
Zn 7.85040953561069 6.924842465084953 3.9135499924577353
Zn 6.859167235596942 2.7400774219595707 7.311500611619951
Zn 2.084109495188726 5.508747144106059 3.637984513054874
Zn 6.236631751050739 3.8206702181183103 2.544733503869984
Zn 1.3027476393027677 8.786047405462844 7.829795283125865
Zn 4.13714268428934 3.9249405345512667 4.115082161265432
Zn 11.269337956419525 3.514753857546838 7.474885589463265
Zn 7.842917403822767 5.992438279483813 6.277976852699194
Zn 3.116987750708117 7.841078343545422 3.5811631458420563
Zn 9.36215881384971 8.311334401871596 5.4649919329744305
Zn 5.020373518768783 7.060479604257904 9.564514629722536
Zn 10.837020729994109 2.2738143782643325 9.921888348371489
