39
Energy = -25.08684203 eV
Zn 9.80185851928794 6.769193372784492 4.390537844453427
Zn 8.941662274524193 4.4046218109444535 3.922225174123407
Zn 7.347368717529801 6.308703234104871 3.306325430433918
Zn 10.217166496653432 9.278075953674028 4.800433857551784
Zn 4.050491882847572 4.639475848694042 3.335029048602835
Zn 10.06587164972383 4.936641433033651 6.260529264285508
Zn 6.39511325722399 3.9946968748303218 4.283511550221995
Zn 10.409625930743362 7.448566574245659 6.878649278972948
Zn 8.328170258853369 2.943857121974067 5.87547810321836
Zn 10.39862225870456 5.804475758965885 8.906970247070012
Zn 8.312807210388732 8.707147909661801 3.3290485252703603
Zn 8.712439288230001 4.015630061838532 8.215879902889963
Zn 2.982323736614223 7.105112386241682 3.213765875686983
Zn 7.604328975286482 6.162770279682622 6.001814716967778
Zn 5.007479391864675 5.874131975952645 5.5768596926834
Zn 5.208563364340363 6.648402315628267 2.055430635918749
Zn 6.049790122604399 8.198097319132028 4.558547381145441
Zn 11.032174341332663 9.93159988393487 7.101670750956888
Zn 6.2365192822214395 3.9378453169038914 6.899831465956472
Zn 4.552870091473956 5.281971730668359 10.861487733303074
Zn 7.96968624467002 8.815153363174938 6.327751529663957
Zn 8.083579008990073 7.152433010309712 8.35172222203379
Zn 10.410125531124951 8.324587246939053 9.414183762524685
Zn 8.811896099788473 4.849973611832413 10.790748077775811
Zn 2.183728138846863 5.4891833005390875 5.074294151640535
Zn 9.642992339710439 10.781075403676656 8.925694800273371
Zn 6.598037063633648 4.988711424480134 9.238563454821648
Zn 5.653021345321526 7.230994812899649 7.60655571685634
Zn 3.565429698463417 8.335348690211097 5.388900074676484
Zn 8.978478019134593 7.226948808680804 11.383005668351535
Zn 4.173290101539054 4.813699966310283 8.223515108796047
Zn 5.3637037336789914 9.776046823891082 6.592045162819431
Zn 7.968359801483145 9.227773169114588 10.176480989622634
Zn 2.7439159750051445 6.631788106170085 7.240319224734672
Zn 7.241348436562252 10.640666193589738 8.100151136231956
Zn 6.344735016029781 7.262114617594964 10.525352099951538
Zn 5.385839984972463 9.39725055841987 9.284105694208371
Zn 3.202533505470064 9.088403784098995 7.7944184061928405
Zn 3.7975830510641715 7.350360091109049 9.561696385049418
