32
Energy = -18.85350759 eV
Zn 9.128386409685474 6.716894014385266 9.573199908337866
Zn 7.5621573023104265 2.4874676257031028 8.229498996274994
Zn 9.213476012333789 4.6389355256169065 7.854759435966595
Zn 7.3440869148009265 4.546454487362415 9.636439664284943
Zn 6.926655194351908 6.856505713196031 10.716546593982503
Zn 8.971816710793545 7.074811265098451 7.043300989064084
Zn 6.387690399814097 2.6419252501607358 5.88002760136778
Zn 8.220817798211181 3.0735497962930496 4.111284294176622
Zn 9.33160484938982 5.130586388763273 5.348791794473744
Zn 7.538168112401009 8.590826420264502 8.697355572218653
Zn 8.11703670290493 5.396946130380856 3.1000485312068697
Zn 9.227196984867657 2.5162793463616504 6.355513875225097
Zn 5.217898789952537 3.5827084634655506 7.953244636085081
Zn 5.1038731822197585 8.27134583400663 9.644267478072189
Zn 7.789762131032042 9.205127598736427 6.174776941308751
Zn 6.416479449374215 6.238613493700215 7.547725221381456
Zn 3.097361910005615 9.673309820279327 1.1425182257532456
Zn 4.970818041923845 5.45965691783055 9.728646279911034
Zn 7.2629862663148055 6.88123901390921 5.0454204961196805
Zn 5.5528275090175345 9.587472326036272 7.411772873725078
Zn 4.279680097510834 4.126666159074521 5.582995759585449
Zn 8.056218192286316 6.7857175807942 0.8591739271138181
Zn 6.290949085512811 9.115207326362203 4.144759787957474
Zn 3.4036421098997454 5.402828296551527 7.585480034800807
Zn 2.92523396299548 6.893548885265471 9.586839934709692
Zn 3.8919369202329883 5.771737260174271 3.4983070271963808
Zn 3.346058278015807 8.212446521876004 7.532104614021641
Zn 6.110135607813287 6.95875576148615 2.5170562539514
Zn 5.885002430220905 4.089443558694651 3.5771856312140415
Zn 4.6610782545707945 6.76544138123033 5.790058059745253
Zn 4.039733640977106 9.339629389815629 5.377410757664109
Zn 4.057740690605364 8.296432389471699 3.081998745450506
