36
Energy = -22.79378415 eV
Zn 1.3878810371527048 6.375991835427718 6.356775068166684
Zn 2.4161919830429057 6.4403410715756655 8.733139982630258
Zn 1.815010160661752 4.140892707909171 7.526309591367982
Zn 4.014288118971147 8.525418342725649 9.032678375505622
Zn 3.033922728454589 8.5115034941131 6.580326843691653
Zn 1.7054134619074965 4.240012700329127 4.919258000316227
Zn 4.4529094937781695 6.311259335979527 10.241185723549089
Zn 4.384627696162163 4.993771950041121 7.68597146706789
Zn 3.8547679209504 6.186885188544436 5.228477530090439
Zn 4.298478794681306 6.579016313504113 2.667862493506984
Zn 4.374681787581788 3.2834472223000994 5.819100237974121
Zn 5.392794442898267 7.305103571375492 7.101754325311046
Zn 5.555893703164259 9.742230859918168 5.86119084662015
Zn 6.437312948475646 8.035027805423566 9.810856320138912
Zn 3.9094469845948727 8.878915191057995 4.134554876531644
Zn 3.6672647713909217 4.142979025088184 3.3779761859414665
Zn 6.233572444538673 7.537818636047838 4.526180308669157
Zn 6.583291011703917 5.48839073145366 8.966347288510258
Zn 6.720255223070735 6.85425131658709 1.9377657234526366
Zn 7.427404421373702 8.97217684061723 7.663983078215002
Zn 5.367463852112142 2.248663177248235 3.5906640344514904
Zn 6.690806715197791 3.6603521782444477 7.183651326822325
Zn 8.139321718300126 9.60613380442674 5.224313695592918
Zn 7.638053963127431 6.306595689170069 6.446710748973365
Zn 8.735780265366293 7.081419390933829 8.955872062642761
Zn 8.620070690581644 7.799623048972457 3.4618269880970045
Zn 6.05670803614551 4.404408726665619 2.3075024090999587
Zn 6.192485569036839 4.956045434060723 4.888382380928507
Zn 6.781680844904039 1.5817406515388786 5.68413456346806
Zn 8.910012149787336 4.254939867570722 8.73200397692843
Zn 9.73162308719235 8.08357106934549 6.75797692566746
Zn 7.885129029250649 2.7758511485226776 3.6894973950201453
Zn 10.069987954886171 6.294294684364778 4.973681693905969
Zn 10.468504863254996 5.6667160586775225 7.411031280990552
Zn 8.397976564282827 5.2350270893729345 3.2758277989688676
Zn 8.988907288296028 4.008285051405678 5.71243448860822
