32
Energy = -20.03171684 eV
Zn 8.361757567394733 5.360721621365408 2.5083885999277973
Zn 5.213641977275928 8.759520790205555 6.944408718927928
Zn 7.387236425635567 1.8118760612390772 4.617972323566039
Zn 4.425624015639541 4.349064715699054 7.864351141178445
Zn 7.056920164268293 8.638742460110093 5.172571393085848
Zn 6.436122650056375 6.212509746269719 6.946334082934319
Zn 9.236350626537167 3.7653207805402853 4.372540078702322
Zn 5.067387530799526 2.864058240999596 3.7235692253699435
Zn 6.773444536994912 4.735988453931238 4.944216742571782
Zn 6.942976258167935 3.8644992160868163 8.450968839307265
Zn 7.01070105964297 8.230706636132783 9.015254166925919
Zn 4.713204399588891 6.066242041791894 5.194478445012271
Zn 4.7163320349230835 8.88662001005222 9.854633054386609
Zn 3.748055072605526 6.81758791631878 8.253897345861658
Zn 8.66583610092357 6.696746662185079 4.690582884515438
Zn 3.0449979866601007 4.671841215122454 3.3785461462793718
Zn 2.3382767961853372 7.131188565340388 4.183984276731386
Zn 4.564610959016838 8.620824053154534 4.375896359172354
Zn 8.37151063238687 5.948216169048721 8.974151453860713
Zn 3.4750382487396663 3.4902550961626875 5.656783522659234
Zn 6.5348369832008135 7.147170607515606 3.1995638978052034
Zn 5.8139411958591 5.9791107194390065 9.632371197197738
Zn 2.3887069894906063 5.710686376803378 6.339910494898173
Zn 8.602551521551659 7.756775839474601 7.034633359606726
Zn 4.076949616153422 6.90509006840633 2.380034629501236
Zn 7.40145219615953 3.017965074030676 2.4180215686121906
Zn 5.740434158128771 2.650794962965135 6.451170450727488
Zn 9.606445933676548 5.242242971254802 6.7234685773163285
Zn 8.511988125102032 2.8834225363600154 6.6955661082464175
Zn 5.572370349904748 4.847344586871906 2.064850849909621
Zn 2.653822373919156 9.503264837713756 8.600891066221154
Zn 2.544162733799525 8.4312881877987 6.333676219370295
