36
Energy = -22.61450187 eV
Zn 7.493539242414257 8.879839853604889 3.3707269813382403
Zn 9.542007510321747 7.05079650920863 6.550360665498605
Zn 9.698703494876806 4.455929109068738 4.880070777057224
Zn 8.33808806286444 10.880408398515325 4.822924939576871
Zn 8.69675469155075 8.55495457276503 8.56263431800841
Zn 7.068695853203871 5.030713261588814 10.57500556541256
Zn 7.19456290562957 7.962223095797414 5.7850748142551085
Zn 5.76361723085722 10.346613159143661 4.95658405135014
Zn 9.816153494993886 9.899364831481158 6.701041060473648
Zn 4.8442816345342345 6.703759104152485 5.598613272929791
Zn 3.3701175217881745 9.177590846085632 5.149700778116396
Zn 9.990937566233065 4.464562004440713 7.359240025240114
Zn 9.059793343195105 6.017783804039194 9.055999053553682
Zn 8.371170359994212 3.2331221473539475 11.961539263447875
Zn 4.8555218774623174 8.528114117435665 3.267349000633153
Zn 8.601320373292879 2.258639694156805 3.9747020414554552
Zn 2.956545921199699 5.8650999512022235 7.261439667056372
Zn 4.737471729867693 4.185796803533233 6.4903405222240895
Zn 6.237498493149785 6.465000750352606 3.371647382664342
Zn 6.228251685643456 9.00105106596623 9.360828088397213
Zn 4.104643052638103 9.709717694468527 10.93181604876683
Zn 6.5534767643302585 6.713972230275212 7.903495662294499
Zn 6.190553332099412 2.8275766193078224 4.976561756787016
Zn 7.579174356830069 4.399468671447604 3.1789831146072127
Zn 8.935210079029085 6.639379390543551 3.771415174836825
Zn 8.355451832728688 2.6432035591621585 6.477305399947031
Zn 4.826870080062238 5.059648803295718 8.98412721844404
Zn 7.831765898012598 7.4726787076221886 10.794294625011192
Zn 3.748111711617696 7.6609184717526295 8.932767627090996
Zn 7.1507026089061645 4.104061283288914 8.154801094664391
Zn 4.97784480552701 8.955935646202372 7.078972809274248
Zn 1.6050413046490533 7.656489416323783 6.104264504488809
Zn 7.229662247572091 10.2625953550777 7.181030969396278
Zn 9.96009309461759 8.838968396666461 4.448682960873827
Zn 5.315040177727731 6.891889354302802 10.838043129832709
Zn 7.210557886513115 5.344076694319416 5.754703361907747
