31
Energy = -16.2763902 eV
Zn 2.931653866499891 4.8814190156785715 7.659142888770141
Zn 7.090054630602545 6.439773331524659 9.684979973465007
Zn 5.3271415387953756 3.847440864250892 3.5722060491122902
Zn 4.270887693497174 7.327634995589772 5.347090751078741
Zn 9.680459544631914 7.602259472187781 5.52122152400512
Zn 7.31314476131753 4.4245895074566075 7.758340662548996
Zn 5.097737847214147 5.17513674867868 8.938369279500124
Zn 9.056861571993034 10.16428256654534 5.651434971526502
Zn 6.8758108998690375 7.631473325567475 5.25338269328934
Zn 4.078525877444767 2.487073942359086 7.700803992662854
Zn 8.303654893448053 5.341818847803988 5.579233479368643
Zn 8.591878757097543 6.890809191754044 7.696332059935681
Zn 5.66044756811652 7.522110257770451 7.640878719182228
Zn 9.721755289206266 6.148406104784906 3.3960065532528696
Zn 7.584640453539501 4.8238894717337555 2.9954017703571494
Zn 7.744739333352183 7.96503820128369 11.602268262585318
Zn 5.665893874405821 2.3326861342465564 5.519835699537007
Zn 9.82399988122948 8.750142491860112 3.072047160241735
Zn 3.2436684915402707 5.54508185592749 3.7255774144700076
Zn 10.167884201606533 11.17524009287247 3.589301423519178
Zn 7.614284439854518 7.730439004129768 2.5373391530729354
Zn 3.6295984291344223 3.4503336242403946 10.15712832881856
Zn 1.8620231115726593 6.390503723668872 5.893997425766662
Zn 7.249563754621646 9.474831882454474 7.1463928827125995
Zn 0.9113760780864367 4.473592376381324 4.436269624440674
Zn 3.020669737593957 7.5724560263822225 7.85632079890853
Zn 5.5370571849732455 5.090222001382402 6.0524425728246145
Zn 3.256578445762639 3.4465777524377583 5.405150701202958
Zn 8.344813225984085 9.067518143465604 9.34280584119751
Zn 6.555622224911797 2.023508084343413 7.862789072235592
Zn 5.509928251213132 6.52606682035434 3.127864129526714
