35
Energy = -19.80336308 eV
Zn 7.840643562818933 9.3794314581483 4.609822530014162
Zn 7.392346027470353 8.235801137320644 11.003261701205366
Zn 6.315291292220019 5.966093754753661 10.29305569765428
Zn 3.0967046219211563 8.838739953200921 7.417047638559283
Zn 7.494648187926833 4.546785212308315 4.600613421357151
Zn 7.375001096228098 2.0225839573621696 5.266438742806797
Zn 7.505800673692824 7.985192071394151 2.525084264191586
Zn 10.842113176863691 5.53728030204334 5.699710879241443
Zn 5.227826053771721 8.58376608168965 3.528269226501731
Zn 8.836679781813865 6.8907014268273015 4.746686511239157
Zn 3.564572270086792 6.5358457845263125 3.3424234305873806
Zn 6.537607471939684 6.431360427402689 7.752023073750665
Zn 3.033136817492297 8.306542745830672 4.960790596374911
Zn 5.493212255085047 8.742042043651841 8.784176298173561
Zn 9.077708815268918 0.9150021208808893 7.042337341312648
Zn 5.68006915609525 10.794051845062018 4.956653320361758
Zn 8.254942603233411 9.533726755719035 9.07050413773908
Zn 4.861014486256119 7.988267094313779 11.24370193320862
Zn 6.375491996727753 3.7812334547890263 7.041763964357828
Zn 3.537439111253427 6.206180275222286 7.515787414825269
Zn 8.329453800920314 8.215183481167829 6.8886068366064555
Zn 9.640728153322122 3.1991475886930956 5.76448635310644
Zn 6.704426445765424 10.441140965029922 7.243624287486894
Zn 4.86602537572819 2.234978890321607 5.36628570318316
Zn 8.734502218496754 6.925014752648339 9.203200868080232
Zn 2.806146107520628 8.57473032105325 9.822777287512354
Zn 8.7700512700637 5.144577668517104 7.3462502928133855
Zn 5.427856540335078 8.260747201281779 6.218764096565737
Zn 3.5586915314863172 6.053715093748956 10.115113219952603
Zn 5.251745074118914 5.731607936462526 5.574528302823791
Zn 4.28430165895595 4.07317531573887 3.775379068548925
Zn 8.602050120761435 5.713526246418837 2.1074612415501104
Zn 4.840782864872142 4.209876595944079 8.978397498386883
Zn 6.038505797212388 5.871052641663052 2.9857996954216386
Zn 10.055869961181921 4.241671897825168 3.4705465609037294
