35
Energy = -21.307876 eV
Zn 9.914631811958996 6.455503951288813 5.482562719314267
Zn 7.326077573117518 5.524372405440305 5.718510959124091
Zn 10.758105146474248 6.846070149870776 7.317860307649001
Zn 5.605652662479338 2.997150941330662 4.4490337814118455
Zn 9.545683432315352 4.150120485648288 4.306575923680549
Zn 5.475573637369966 8.913188198005098 8.769007400433361
Zn 7.977365424771932 8.539605979375375 9.406823055310669
Zn 7.493283156182341 10.256079094163107 7.5795953339386415
Zn 4.175289441171485 5.084646347584587 8.31244103194879
Zn 6.258840136959264 6.616590488119052 7.713433607722561
Zn 0.6604477504607356 7.586044442080257 9.744122185398064
Zn 6.645887865637302 8.06457399561375 3.765675426172299
Zn 9.42652646777434 10.404500136810423 5.429891088921107
Zn 3.996652925413877 4.689430427029389 5.511200402226596
Zn 7.094372313679479 11.505844872812071 5.274812139273991
Zn 9.402690934996572 8.321806503692027 3.801617504261269
Zn 5.319254949443967 6.494230359528696 10.267286391335396
Zn 8.30201547538264 6.10446228037285 3.109628096467466
Zn 3.5574781924119754 8.699433002914185 7.042762324247801
Zn 7.948255372545261 2.8568210548979542 5.783497692262731
Zn 3.205541015079175 7.348631923158901 9.25160245183703
Zn 7.737055429643463 6.118457600435154 10.288072193954063
Zn 7.856495089103122 8.079146882300757 6.154142679105005
Zn 10.758105146474248 4.326086782985611 9.176276786806982
Zn 5.758393428659608 5.522616811467361 3.5500430099411657
Zn 10.00460745028022 5.551851911539103 11.225847118492213
Zn 5.854379938080573 3.605099695741161 7.003431277689721
Zn 7.857193086138706 4.307758364233242 8.392274600675863
Zn 4.913115443248795 7.086448441157 5.472317690195242
Zn 9.054048138338954 6.601306318450145 7.931185764778905
Zn 9.99430930180316 4.183202810782838 6.811201626568828
Zn 7.501294040952322 3.588668048954041 2.9397027089195342
Zn 2.4789917055468322 6.341110647956497 6.820901673803544
Zn 5.602113961457203 9.54243785293793 5.856951762748731
Zn 7.988583332954064 10.392882674591371 3.1665519075884876
