37
Energy = -23.84665846 eV
Zn 2.346115572605812 8.059551061766774 8.891655274387592
Zn 1.7372077491142788 5.812493144140392 7.696606814939278
Zn 2.4950839019184556 7.834824204099241 6.287038535949317
Zn 4.27058811406049 9.259260289902569 7.727843641629827
Zn 4.2844552116218155 9.381587793370397 5.1302675634577195
Zn 2.946522249980696 5.749654177967472 9.859896276458995
Zn 2.969297536819674 5.2691659612779755 5.594531610761699
Zn 4.668201193424489 7.684013588952441 9.983078227536202
Zn 6.551911645730672 9.418388850818204 6.4887606500585795
Zn 3.8323159729377303 7.145687897741938 4.004876998131236
Zn 4.673586676932365 6.594153696728062 7.3593357954037275
Zn 6.220462986722463 10.833950887652039 4.184020876053257
Zn 3.8813501525977743 4.031648805120217 8.123321466132802
Zn 5.969140931634255 8.506797557758443 3.1521746143970777
Zn 4.427737762607036 4.631676849529291 3.6758912970108075
Zn 6.847538736553891 8.643184438267502 8.865694606240462
Zn 6.205207217364355 6.945308073223525 5.365739867842416
Zn 5.479665679265804 5.13878458906918 9.879057997611891
Zn 7.060162353067295 6.119051950728991 7.767197666064104
Zn 8.206645231916236 9.098863626100485 4.522731050661715
Zn 5.856905577944102 6.132193578402102 2.3149845369734936
Zn 5.490840199731972 4.192258092744949 5.992180978523205
Zn 6.575754481621009 3.4480025167623207 8.273220363414518
Zn 8.178929008985508 6.834084967076808 3.202510071589018
Zn 8.838032071067607 8.414733752610786 7.092697979028916
Zn 8.065020998670816 4.685330575148619 10.093220596040497
Zn 8.538881999151396 5.994466739219756 5.733956961053677
Zn 7.094625491036865 6.949483332733402 10.702110036172273
Zn 7.078887122229032 4.423751095248563 3.8054778557900537
Zn 9.274438118234603 6.826508337827889 9.145283048003039
Zn 9.380402378858909 4.403245723827702 8.002671526823358
Zn 7.939255635269437 3.2979589329087515 6.127371515646183
Zn 10.378007857830168 7.803463119321364 4.394961227206131
Zn 9.738457547153121 4.764063452554522 3.4314824404488964
Zn 10.807619674964014 6.592886093899085 7.062774698663544
Zn 10.462767414024023 3.7906978037933325 5.733418212451049
Zn 11.703818126144936 5.764665021497646 4.8077977012355175
