35
Energy = -23.943089 eV
Zn 6.209858549631665 8.831145923389977 8.028224730024874
Zn 9.959898269717094 6.434474442396238 6.737019681778938
Zn 7.544683738285211 5.862641197946541 5.562403434933976
Zn 5.581636274327818 7.493002305527978 5.644712836061083
Zn 5.2207349347919685 9.480035639359395 3.247535082015255
Zn 3.068912772917195 6.502431528760209 6.403590277870238
Zn 5.1680580064645145 4.950547482500123 5.612381913706307
Zn 6.063122284549831 3.6243972380882625 8.808632964717317
Zn 3.821633835213398 10.55604476096691 4.969913356243727
Zn 8.302463383268154 7.283217353410814 8.720262489117395
Zn 5.549192117225271 4.362326159429305 3.092706045546482
Zn 5.808085893514979 2.2235624625452006 4.470383467909472
Zn 4.543290007393305 2.5844888596793316 6.739948028135791
Zn 8.493940011524518 4.6888820274464456 8.21726093968264
Zn 6.164328540951138 7.620239522264892 10.338144171190944
Zn 5.294127782884296 6.875430413093807 3.0895535021468032
Zn 9.63807535461725 4.044975368872071 6.001794274763741
Zn 4.928932636562624 5.339685178885905 10.418434105579765
Zn 3.4011609567052843 2.756670543898101 4.047812059580006
Zn 3.7572027093065037 4.685048653092638 8.126453508010616
Zn 3.814629459495871 8.99496601743679 6.909058071480267
Zn 7.467233092803937 8.466691952712308 3.8335424096680026
Zn 7.488486866416078 5.455647837187408 10.4447327375366
Zn 7.9915388868774935 3.584795400333106 3.9755331476022877
Zn 7.138424253288897 3.2348594011499046 6.499586626130157
Zn 7.751974802749645 5.973014829927937 2.9643598496599752
Zn 3.212998183722834 8.029122045389473 4.303155928649898
Zn 10.206004990650838 5.0899886521092155 3.7942340769672067
Zn 6.168685940869232 6.047092335142646 7.6848518644246315
Zn 4.073183175348794 7.263569181620962 8.779267391973987
Zn 3.13424547442727 5.41003913812219 3.8599612293837953
Zn 2.444076203361374 3.961231947495034 5.9794902185944565
Zn 9.760262107301797 7.485779871535103 4.324094100701994
Zn 6.281931181331377 10.091135125314958 5.683744867187454
Zn 8.232377099121999 8.398208980588878 6.372610388643813
