31
Energy = -19.8459249 eV
Zn 3.6043052321911344 3.976304966635489 7.770731050483499
Zn 7.7116291105857915 1.6853154776482375 7.453394699222544
Zn 7.784795490300052 5.673829201854304 8.757325818777183
Zn 8.066297697599405 4.986104640915659 4.712429440433968
Zn 5.048735650192483 5.4098543866992905 1.503090570604824
Zn 2.4388935283772586 5.013101723453344 5.825643644838066
Zn 8.423238075697245 8.118612046649512 8.560759167188072
Zn 5.288726801164033 5.448797353704205 9.31149918453189
Zn 1.4796131436715545 6.310111816921526 3.8748675889650785
Zn 4.944043995615601 5.914341610365729 4.867854489881677
Zn 6.735933634329152 3.301303396641581 9.163103761778515
Zn 9.34410986235792 6.406320776848244 6.7166446413732395
Zn 6.143346332233056 4.704820291114489 6.724656960016196
Zn 6.837607602920616 6.548128013651574 3.1157069192518243
Zn 4.084808683454975 6.630945120522245 7.349013241568874
Zn 4.3567444159126545 3.175127654434847 5.194420311907637
Zn 8.851577756557361 3.899722497035977 6.960468506005492
Zn 7.067583186832933 9.575527832761143 5.136169394962288
Zn 2.9702523662896416 7.837950004135774 5.322370672130558
Zn 4.806251557177965 9.142528121488727 6.656424164042521
Zn 3.531144348104663 7.137455843274348 2.5833339087569445
Zn 5.1551892282503875 8.522039796194148 3.937536310072916
Zn 9.23318921853808 9.085887218127732 6.365208548876576
Zn 8.836088363746613 7.556812979696067 4.394727863953296
Zn 7.010963713880562 10.012884321400273 7.6867776868337
Zn 5.20446918633915 2.0012051148539234 7.351112244337238
Zn 5.8802176293950135 7.928363824011769 8.85020797181012
Zn 3.3122025284432257 4.48363539712295 3.2367711761432925
Zn 6.149153906996814 3.8495546156079623 3.1896676137965887
Zn 6.974273164568304 2.5345592359771696 5.156906780248432
Zn 6.721230851749306 7.125470983725527 6.26779193068086
