36
Energy = -22.89029671 eV
Zn 8.265094501859732 7.37786341810913 6.379530228530963
Zn 8.940744121204508 7.485744775887734 10.141250718178883
Zn 3.5892111682606593 6.809926023786571 7.342071767359348
Zn 7.363010546381737 11.562988016800563 7.907051913533966
Zn 5.862454553974579 4.400251702335706 6.9222980116882145
Zn 9.598045762801883 5.331548710664545 4.818888824576703
Zn 11.160882299138107 4.650419605809331 7.113701047210866
Zn 5.647152083845852 4.9196583767568285 10.555303267313063
Zn 9.813259479825042 4.949843179652806 9.311933588693392
Zn 5.3902644002948135 11.191382144651103 9.287127790703899
Zn 4.914781510408563 9.207088785281556 10.770704279722654
Zn 3.929951662017264 4.527103255119986 8.711714511269866
Zn 3.1796471194526794 6.5476176698671305 4.772955460883283
Zn 10.469057943877328 8.81871498119958 6.00814384498248
Zn 7.3571110551650545 3.904706987088802 9.091577850221471
Zn 3.954974144455211 8.869912381800994 5.634518374213101
Zn 4.314954987759025 6.939687347247703 9.821974591942501
Zn 8.839985882554764 9.244945085553004 8.209000731432432
Zn 7.359122345081482 9.651636750049372 10.20542235997858
Zn 4.654142903646888 4.541956030492661 4.249292351492212
Zn 8.547080420493346 10.495060139836118 5.9974464184943335
Zn 5.1937886141854275 10.900260297927788 6.622676160692901
Zn 6.614700334134614 7.103779085822674 8.31020499545744
Zn 6.536232916189151 7.265793199911875 11.184156608531824
Zn 4.404346104290927 9.037727845227819 8.23300479081748
Zn 6.473184437514677 9.292823360831816 5.074904706017725
Zn 7.132591086954498 4.651005022416217 4.63923513081642
Zn 11.729024545224163 6.537791679540802 5.546786204888634
Zn 10.439067695271108 7.098318251544857 7.99730750550688
Zn 8.775478541112326 9.53142864363879 3.6522227989915352
Zn 3.169870910112027 4.3472986766581 6.2579343923073285
Zn 8.174460685005347 5.232698185931026 11.15713646335889
Zn 5.787465987989105 6.840274062211707 5.724548877095705
Zn 10.353932934399973 7.616201730609711 3.67286093475843
Zn 8.444571718759157 4.801066882784753 7.01049917876728
Zn 7.727246284166376 7.121454285314565 3.8005745497549435
