31
Energy = -18.90170925 eV
Zn 8.222042154372856 6.33092024814887 6.6860160222585865
Zn 2.7582450614343967 5.290081771902824 7.833956581839128
Zn 3.9228314520007856 4.135776345867832 3.203950957680454
Zn 8.112670592878864 4.479504947542408 2.844627879699489
Zn 4.715655655852808 5.163232820938624 9.661679342813429
Zn 7.389724398998178 8.900954714251224 7.178401666996449
Zn 7.7530692317305325 2.4652999577335284 4.513311284289631
Zn 5.178026051207791 2.5045675859269205 5.166537664604697
Zn 9.537432415100266 9.528187752262717 8.402520607735804
Zn 4.8710125852845 8.818654529036573 7.262669228159089
Zn 7.061167687838863 3.894703417537328 6.68422350167408
Zn 3.857336540941639 6.477233228621028 4.6888237360665705
Zn 6.206658999950931 3.042200041656022 9.452447178804094
Zn 3.533624737113135 7.376210990070905 9.036198527813339
Zn 8.785062201757814 7.284172789666524 9.24032480545848
Zn 6.130007465206132 7.411219957435334 9.072077735878775
Zn 6.0966286107193906 5.116019943377868 4.581755796699675
Zn 3.1050576331855795 4.130749045315516 5.5707697834539225
Zn 5.412295086866281 5.998035864674185 6.8677753547790115
Zn 2.6352305333744983 7.687302259492055 6.624634167007097
Zn 6.705591896772649 7.10315607693168 2.503066628407708
Zn 4.799522412619325 8.777661020785521 3.1676080470466492
Zn 5.9332596391201635 4.799893560603336 1.65035721579537
Zn 4.140020784311953 6.517605377415978 2.0809514973763976
Zn 7.490216872527727 5.145974487701339 9.025576242537753
Zn 4.514237025039536 3.3470245452029648 7.5208988274344435
Zn 6.408164956515126 7.736591042534296 5.09940652639673
Zn 9.264836976837358 4.379293712073918 5.1686019702574475
Zn 3.5733815433704983 9.743867272227664 5.114160728370215
Zn 6.012914436154758 2.5064012550336314 2.7228725067493187
Zn 8.657626464848834 6.691055541963466 4.157350089848882
