30
Energy = -17.48562435 eV
Zn 8.68677264776785 9.21306185875779 7.8370498914791265
Zn 10.033770840206024 9.291105161562333 5.641092002270974
Zn 6.3160895374311465 10.312317329221617 7.849661973903599
Zn 7.504105862518156 9.993741664773767 5.639555272645341
Zn 6.940042945932951 8.992083745389094 9.91486581246688
Zn 8.267547680045318 6.973299835058236 8.788437639246142
Zn 9.23097030642547 6.929578360091965 6.420651826839084
Zn 9.5031740705163 7.729965495992663 3.781863232643175
Zn 5.17148996585588 8.911506056024992 6.017557932725554
Zn 4.9652818510147885 8.084561961514416 8.546436536020137
Zn 6.82746645841931 8.075447067914347 4.134070145287353
Zn 6.221708504744668 6.570019984340575 10.410761997263618
Zn 8.065393445126725 6.445275069483904 2.186468421930447
Zn 8.118020073077398 4.738151174933137 9.85342619953159
Zn 8.104793851608674 4.647686118490616 7.144194144974689
Zn 4.100707162450968 7.482982242051385 4.148138491930942
Zn 8.310426217620256 5.323591742380015 4.62020447848358
Zn 3.644598825260691 6.839420611131289 6.677372072415073
Zn 5.5608985913086935 7.034595117764848 2.0839852520245374
Zn 5.74285772293207 4.052629435345361 10.51884198508428
Zn 6.3456976211647556 4.607121760224722 3.0035973126901254
Zn 5.5426576324575 5.599259159822074 8.017849392317116
Zn 2.556557161847079 5.416431092630299 4.844210304235187
Zn 7.09855055020988 2.7392866221836605 8.606167661204854
Zn 5.84511489359057 5.808379732217768 5.37631907017536
Zn 3.7876419669952455 5.296347412183648 2.6471269331918594
Zn 3.305691583851479 4.137087997530692 6.915379640542325
Zn 4.288414669957459 3.4838301515226733 4.394784227924308
Zn 4.577393422986182 2.8470041935371166 8.602442351135322
Zn 5.953312900768566 3.345050025406454 6.351000513806772
