32
Energy = -20.21699363 eV
Zn 3.763971712760639 5.094416205357241 9.119438775691473
Zn 5.6603360760499895 3.4891325153413324 8.21698167376609
Zn 3.6140935935085072 7.628802378592323 9.325006380967755
Zn 3.404176707130712 6.895907746035568 6.907584442900422
Zn 5.685125348963389 6.7243895528662945 10.53257173138399
Zn 3.7246263973638185 4.242896297651126 6.6569017081913975
Zn 4.112587519148565 9.393977200824555 7.449726368289412
Zn 5.637498351383803 4.119186401919306 10.654481707259901
Zn 5.965189105438499 6.313340178332351 7.878639022848056
Zn 3.7331612975203465 8.206371005437951 3.711418130154414
Zn 6.188222163235902 4.50931226971769 5.815357855670659
Zn 3.8857207286681894 5.774648321185213 4.605869989630674
Zn 5.666393145850512 9.153584149716501 9.502871354021504
Zn 3.593481084277769 10.344159283844402 5.208242161938042
Zn 7.789237998082435 5.323477155018753 9.99154777451081
Zn 5.687083288995232 7.524281197834365 5.658237235643305
Zn 8.068298752355007 4.283360587353017 7.654505962949839
Zn 7.7958084245203585 7.861810035689877 9.126140733091455
Zn 8.697376129194467 3.5066014662528975 5.293900721912279
Zn 6.447410183372725 5.733525809911677 3.5967022056034486
Zn 6.74029243707022 9.389870601215936 7.193691388298111
Zn 7.728924359890719 3.5172080169890862 2.9744162851003484
Zn 7.985762274810651 6.59553514679544 6.232339049683194
Zn 5.944706558207196 9.733305420155453 4.20124271448036
Zn 7.773476359602813 7.8992044467057 3.640894981621982
Zn 9.77204686504738 6.189384540904413 8.499331128981746
Zn 9.138804773466346 5.704686823446593 3.800626538089278
Zn 10.381667323264356 5.204627222616129 6.143096671287011
Zn 9.418709156089621 8.753662176157253 7.301760513410044
Zn 8.377555951149127 9.854560418241645 5.2140491353890255
Zn 10.116639019510494 7.823594486714313 4.959400218612362
Zn 11.58215083612772 7.287878450981425 7.022277838437996
