34
Energy = -21.37367748 eV
Zn 10.35511710386495 7.0638219318683015 8.2051143221607
Zn 10.017359796428673 8.614637828315502 6.270665131421113
Zn 9.647978650478018 4.672535917392844 8.268377200889091
Zn 8.353333344386588 6.557348770038916 9.77148190925934
Zn 9.854631098799306 10.283703181371118 4.384372438111669
Zn 8.701065511838701 2.3235310177466433 8.150838889514441
Zn 10.078360852767267 5.979023234972775 5.898248009118552
Zn 9.194968729546472 7.659949392476037 3.9734085481390977
Zn 8.922556699726314 3.5347565924920454 5.935274762674534
Zn 7.300981346865776 4.19841636578535 9.375465664858016
Zn 8.352981797465361 5.290189362628384 4.127453073457239
Zn 8.561398794748705 8.95122324335884 8.463503749826563
Zn 8.085581206768618 10.472141052331297 6.343044243228646
Zn 6.703054767950808 8.698588867506725 10.213622458911088
Zn 7.230178282254333 5.445506100168488 6.840222980623183
Zn 7.425330051179319 7.753732360473924 5.898296713490519
Zn 6.413115252071552 2.9052416094732996 7.271653727787955
Zn 6.7241455644521855 8.389923089138208 3.3100453839944044
Zn 6.14213826772425 5.917881871761584 3.2314903150026364
Zn 6.374302018307486 3.746208094295095 4.737452424056754
Zn 6.034295361954756 7.304620525903076 7.980722055687529
Zn 4.2072272339176235 3.6134309240027354 6.215310898318534
Zn 4.928005681065634 4.767719544533502 8.361122849598699
Zn 5.868768028118529 6.072876363349921 10.379879813633439
Zn 7.5201578653426715 10.740467387245253 3.562354196635756
Zn 6.14420976673319 9.963444331094594 7.928325900848022
Zn 4.101552944615507 9.520538433133877 9.394907228886781
Zn 4.041014404572957 5.04535244204129 4.246131022912932
Zn 5.684326438510732 9.71145547384505 5.342290144540564
Zn 4.489948313555997 7.9871415035484485 11.3139457522419
Zn 4.506773728192673 7.5687876854393625 4.620633118926592
Zn 3.8999715387311675 8.655267612590341 6.9080443942284315
Zn 3.354947782385578 6.0977047037327745 6.570736262992928
Zn 3.5925980428501556 6.917198326217154 9.029622438870753
