32
Energy = -18.95962624 eV
Zn 11.192750002021643 7.204821331851436 12.500927167502107
Zn 6.506984148675069 7.4405424115308785 11.041382972939598
Zn 9.02128188911177 10.100377807814969 8.00865979183469
Zn 8.021385151513472 9.24083810825878 12.083403792968063
Zn 9.402765245021836 6.365303252227381 5.965945806696491
Zn 9.63930236812446 8.187028569010922 10.214133771578544
Zn 8.159143072769151 5.496075471271262 10.11016098182846
Zn 10.490696194893939 5.355471885816359 10.982154207543894
Zn 4.7050989219075054 6.46074542256922 4.294612465737169
Zn 5.404522874057773 8.182359464345815 8.546886115890137
Zn 5.36747757910791 10.597346314414702 5.11153954628799
Zn 6.952069274222058 9.875886775095115 9.856605423949885
Zn 8.151107799212102 8.163460975908713 3.9422682169029133
Zn 9.848840089100992 8.901176609492035 5.705812862672343
Zn 11.10196456749145 7.676632687514348 7.439150546202472
Zn 7.183567966547923 5.768180237385792 4.9030271770937315
Zn 5.741280793340405 8.647660519056611 3.442708460611659
Zn 10.219964138140382 5.48590537183677 8.431863700838727
Zn 6.228204422480039 10.505647301572777 7.555526582597204
Zn 11.546505979496814 9.63706941635973 9.02726767921093
Zn 11.92745101772456 11.359421838880671 10.839302372961823
Zn 6.97622318124456 8.033463828147418 6.297017306516255
Zn 7.917049061899374 10.47401055866749 5.608667075085703
Zn 9.350773273781357 10.926321673914082 10.460111304287723
Zn 5.717885564605907 5.707052508031462 9.202020659539768
Zn 4.3799615631641755 8.524534191890854 6.105684210095035
Zn 5.1091870735101415 6.0790284114368225 6.80556574013516
Zn 8.657564360543283 6.739134404407726 12.397495420105875
Zn 10.715861267457619 9.626486912792751 12.404121722809455
Zn 7.570075357252116 5.134632224535528 7.4041228441958715
Zn 11.978322716725435 7.047602199927247 9.751959271666394
Zn 8.163659429214889 7.596324482863544 8.385614582520668
