36
Energy = -24.26720392 eV
Zn 4.809183169417019 5.239934157411854 5.414034390573235
Zn 6.75190235157575 8.535688341562244 8.682827037564138
Zn 7.575513411581036 9.4837062946231 6.402214590151688
Zn 4.614514424844453 5.103445192899192 2.6968064807779526
Zn 7.339278081231627 5.39259041816202 5.489283919898756
Zn 6.858243109520708 3.469040144494698 7.4359378422063935
Zn 5.9120736866796175 7.585311929006723 5.521371755520964
Zn 8.592881363023174 7.865453562052884 4.669382737256768
Zn 5.011573710871623 9.670244508709022 7.007151412358254
Zn 9.521026515724936 3.602642126604154 3.8922614923878807
Zn 9.190656576929793 5.961142506395332 3.142704160964471
Zn 2.6504952254369414 3.5858410519921775 3.7699022318119217
Zn 9.32242787103803 3.302888331188186 6.371519017724276
Zn 3.137101200008677 5.765972378886491 7.433453578371686
Zn 8.52869157386233 7.1871215639103685 7.217651231712078
Zn 3.3250514412233363 7.966214326458547 6.043053488288342
Zn 6.061462438900232 11.164686626165189 5.2124688755837765
Zn 6.5482676055074736 4.568628143713217 9.817240058959213
Zn 4.274062800794194 9.711724535520185 4.1440604665170975
Zn 10.01914223018825 5.659183909497164 5.606036707335384
Zn 7.270555497077726 2.66019016574237 4.923401510754374
Zn 4.2136783792032055 7.8074501472062705 8.600578443045583
Zn 6.828417513433047 9.441482658519954 3.506225011596078
Zn 4.0977184747837 5.521133255042555 9.920887972055032
Zn 4.871101086376099 2.567480317903003 6.009103236790485
Zn 8.095925893766287 6.631037972356151 9.793583499146628
Zn 8.933514643545879 4.833623306023017 8.305939586898445
Zn 5.828294204389494 7.113708027123476 10.66198914491245
Zn 3.872212790002643 7.3036716632358925 3.550569619522823
Zn 4.380777832778468 3.638467878624506 8.243851184162764
Zn 2.155648403726137 5.823982728845118 4.896417157579431
Zn 6.531569522256768 6.878034632938116 3.0711893432878155
Zn 7.1675225144516626 4.36240823056356 2.9137857293933687
Zn 2.4078286605964023 3.5163926187261456 6.2865775518304225
Zn 5.996187458327101 6.031727796758208 7.586693548986234
Zn 5.096654788206263 2.8389050024201947 3.5510024353540204
