31
Energy = -18.26132972 eV
Zn 10.019585949791988 8.394718036332682 5.619771300738849
Zn 3.671488332020323 6.8233857646692515 4.80174930374808
Zn 6.595457165776457 5.603406312910315 4.852397704322465
Zn 7.9619764683397385 5.613001413223943 8.86623620804302
Zn 6.827924374410675 6.251988450344041 2.267938504681562
Zn 4.852385837362119 2.880113221204824 7.890450402501677
Zn 6.449026868677506 8.902195150783244 2.7502310226028532
Zn 6.006763040104959 8.241276632017563 5.452992181375123
Zn 5.727900770903422 4.335955610330366 9.769964361433228
Zn 10.327515721861774 8.863500561202242 8.088072226323137
Zn 4.412226510532134 4.725115975434548 6.183491562627957
Zn 8.18001999974779 7.5907288017352545 4.100818328558712
Zn 7.750650483773391 8.410204176065 7.345352577559436
Zn 11.340526843889263 6.587873978455883 6.939728648459231
Zn 5.822778857154428 6.545217176073059 7.56300059233797
Zn 4.23735226591312 9.38907342623585 3.9430302388394898
Zn 6.429784829134802 6.612853490874418 10.65650196438457
Zn 10.402845487409481 6.555495292358565 9.333891169858127
Zn 8.79198304946315 5.966889670480452 6.18133409342539
Zn 6.922004472356446 4.104553965120811 6.948937212405027
Zn 3.2573928236599667 4.589356591134606 8.886376700192576
Zn 5.957931988497012 9.05095264918685 10.145530448319962
Zn 3.138601980695104 9.042668247641172 6.385968784482228
Zn 4.740620148910519 4.893653132670447 3.146018615018451
Zn 4.121073654524381 6.962350140183824 9.603340534519338
Zn 2.9732458681103937 6.637080994583632 7.3112416109380876
Zn 13.852529790426265 6.391794755218847 6.31624671061555
Zn 4.372526874496869 7.3191208258269755 2.3178281241159584
Zn 8.416767105105304 8.174239045442286 9.811781745900202
Zn 10.142968848243008 4.429080299307194 7.816198258005559
Zn 5.181731131363066 9.167564091033999 7.796806090795716
