39
Energy = -25.61588289 eV
Zn 6.8751693175563675 4.513051888332759 1.711778216368526
Zn 4.878504133520773 6.08965157255678 1.582434124890413
Zn 7.114745116282261 7.000793809006743 2.471934855757937
Zn 4.671974462480536 3.7630514021177226 2.7782546146274014
Zn 9.46531525403571 7.592440817707838 3.3561955673874118
Zn 2.3833377966720373 3.401889385240415 4.040614438368847
Zn 3.125807918604439 5.850529620456583 3.414494363185723
Zn 8.735614976518109 5.094645073187468 3.3773901525498875
Zn 4.887335216776123 7.945572073954593 3.559454010011919
Zn 7.214843080258583 8.982613541141985 4.142337098862489
Zn 7.108307131397423 3.091619483590713 3.8942554406848138
Zn 5.896642128390086 5.504935776430025 4.480742903504131
Zn 4.86094848240051 2.078956127249039 4.673859634156433
Zn 9.58154386621776 9.49982257504255 4.9542059359432065
Zn 0.9223311487633882 7.765097489841218 4.437637220388416
Zn 10.510821265118492 6.016818783785424 5.072327115546152
Zn 7.769272379269528 6.739234600812645 5.639805615194156
Zn 1.078559245791449 5.357887733884303 5.109371663359885
Zn 2.5586278708227135 1.3493462593242163 5.5255608962931575
Zn 3.3681247268151853 7.35136538588863 5.584468419871956
Zn 10.214316341785631 7.918347511245056 6.840985866014107
Zn 3.9395534058729704 4.626352871057888 5.901496668313306
Zn 1.349131411060424 3.3831193616644555 6.624125364783395
Zn 10.101951691483285 5.458259603672293 7.4994357789097466
Zn 5.511464844845445 8.707438541100148 6.072034464796529
Zn 8.73488594150397 4.066185450106383 5.765396677081442
Zn 5.74449669485329 6.044033211076385 6.996077212813107
Zn 6.479895730564819 3.2176214202763425 6.489480038574894
Zn 4.176498085985209 2.163330120179766 7.242069255742793
Zn 7.926100357313659 9.305902010918562 6.866751834723841
Zn 2.08879071291278 5.887065676702474 7.458943332778588
Zn 8.207673675245072 7.126031651124013 8.330192992278342
Zn 7.8924036214249655 4.516729751109059 8.345177762276418
Zn 3.8083951897013706 7.989402543628654 8.084354982626477
Zn 5.409674849937365 3.837238670378938 8.846361310235116
Zn 2.7310593519255937 3.6041004795106133 8.706854195178526
Zn 6.135518236855515 8.672399322849113 8.711563058441428
Zn 6.265316426098633 6.217442271783701 9.627573676793666
Zn 3.822062881786137 5.8166911009128 9.331018209532708
