38
Energy = -24.69484239 eV
Zn 5.615864834202608 5.025194520976944 2.570838629554529
Zn 3.0832230822289315 5.879618045823441 2.318020512452409
Zn 3.556223448047739 3.433492855957694 3.060937749249299
Zn 7.558899158145232 8.891105802714598 2.1251334869754017
Zn 7.915849905871997 6.429238626995288 2.5802253865948543
Zn 5.264561080182217 7.415305558565133 1.6446221974480422
Zn 8.604242892492849 8.042961206300227 4.5154080917262
Zn 1.4559855973902873 4.16220356146183 4.191846873135333
Zn 7.7987143139085315 4.040987386272937 3.3244838470170373
Zn 5.664681870848076 2.956616227864001 4.363613058126006
Zn 4.171540484889063 5.733110307597253 4.896220009452714
Zn 5.274035339213193 9.749504079640726 2.8088590886167255
Zn 3.45006364230464 8.151826229846485 3.5613535500832176
Zn 6.031439824988254 7.3457462682749535 4.374929441873673
Zn 9.241306555563638 5.461820533277136 4.864301431126708
Zn 7.180290551566614 10.23285429571999 4.389854983786648
Zn 6.549092315356419 5.290032856597725 5.727075444782343
Zn 1.5264288148931684 6.68422263356352 4.268917371562393
Zn 3.429178598630389 3.3743217623663995 5.78755366585276
Zn 8.088523707601617 2.901053419216539 5.649778377565352
Zn 4.765271974562803 9.473768887979706 5.502311860473748
Zn 8.540041062794396 6.879157008721838 6.9007150088334654
Zn 5.201886000346514 7.289817257032499 7.162267191175046
Zn 9.367709924580929 4.449776675270442 7.32947857373377
Zn 7.115787790012467 9.058475569569199 6.621281384913749
Zn 2.8430846326812023 7.852382263531597 6.256585203861189
Zn 3.9538758592702963 5.046453289713492 7.849476605651098
Zn 7.184935250820869 7.780838269160714 8.873517453179266
Zn 1.860213877163596 5.380019511573301 6.474131318842877
Zn 7.983309445533352 2.3910073853050884 8.140846397836606
Zn 6.718912634097903 5.016861600065999 8.209809372005711
Zn 9.21955900978222 6.254083158650042 9.689369796100577
Zn 5.672754481453881 2.9681509948554705 6.9662650901783625
Zn 4.9855616067943185 6.789957654357353 9.751105453663053
Zn 8.938951119593565 3.816896406061938 10.091090822840275
Zn 4.797274445256794 4.348336374909417 10.342859498286263
Zn 6.615212068326238 2.6876079804104376 10.265358377824693
Zn 7.067732852721717 5.538777350853785 10.856689874807886
