31
Energy = -17.30440305 eV
Zn 3.821518469905879 3.3269981121497514 6.1101841307543845
Zn 4.303478505329746 3.924325963942946 3.474648375730384
Zn 8.04504678063875 6.815458902471338 8.403579033322378
Zn 7.153279345145296 7.110938767926184 2.844947454348464
Zn 9.111912187815314 9.94336485909089 10.744855034280535
Zn 6.959066307007254 6.473515139777744 11.002039328500999
Zn 6.081732189710511 8.795476363892123 4.473635972594703
Zn 6.431025728097156 8.93225158415885 10.09299204236292
Zn 6.702959582613875 4.615367741405119 8.975757172503718
Zn 5.160712254870831 6.7628503538233575 9.235422993927319
Zn 9.929331096621919 9.584580627976928 6.501305599946985
Zn 3.6023945816200835 8.501753981216487 4.794078837429352
Zn 7.184173271184325 3.994335884020179 11.64581640357848
Zn 5.149013188174696 6.3376490917956465 4.282112332319361
Zn 6.222050922857221 8.469642423431708 7.192516265176246
Zn 7.4134565808586155 6.388319190341188 5.9588104319811075
Zn 7.598579776729327 10.345762873311275 5.86058060839002
Zn 5.725091341144387 2.1873388857478337 4.725127815156782
Zn 8.045749038757306 9.97274760267203 8.340594027324693
Zn 9.270573068231856 7.356608499061166 10.936332937743936
Zn 8.765347119138468 8.286127260333709 4.51306892632886
Zn 10.773211588055682 6.003982007453512 4.477464258403651
Zn 1.72169184244363 7.395060118240857 6.154046119493748
Zn 7.091362646194266 4.446921029557191 4.240754797053221
Zn 9.930179243296012 7.003795741771782 6.6212497667729915
Zn 10.271604676740608 8.330571439704435 8.79925165010009
Zn 4.957980019290006 5.6752447384436495 6.919315159170821
Zn 6.629646302313211 3.6280975294743776 6.694759294864027
Zn 9.000744884786332 5.448788495609252 2.8463528104521885
Zn 3.672515929603527 8.033835840007033 7.607347249153572
Zn 2.8260015301998913 5.465722516393332 5.009193574072926
