30
Energy = -18.09891476 eV
Zn 3.3199029305612813 5.915495764744868 2.6659789466004162
Zn 5.913392371766385 5.938539752294364 2.443926831478449
Zn 4.208437486266964 8.501983623895388 2.7674274207093412
Zn 4.676549372568057 3.8129200808401715 3.505810656533747
Zn 8.083825636491579 6.472921616543896 3.5928645161056703
Zn 7.33727633200782 4.105251859503461 3.9888900197321333
Zn 2.418467257586039 7.594596700200209 4.415186180589455
Zn 8.628263987698059 8.196597494272188 5.378765562228351
Zn 5.99535622061485 2.047554147845986 5.024091476664489
Zn 2.755066438658848 5.140021737464372 5.264794580478885
Zn 6.644862331685285 8.635980134520102 3.612523659564239
Zn 5.173487447474327 6.754887552470834 4.778049930676458
Zn 3.6085181891585827 2.754830657694989 5.807450653272589
Zn 4.122034410303406 9.380039310313112 5.311753467414894
Zn 9.502763369320842 7.244236477894768 7.630914646327653
Zn 7.8906941249376805 9.157582058765485 8.089085557297599
Zn 6.703839737685067 9.981629266026982 5.846775291598387
Zn 5.835528264362289 4.7291929012107765 6.053452927616936
Zn 6.664836753832812 6.948367211667621 6.751397115555534
Zn 8.772409068581313 5.419048496536973 5.798607787525998
Zn 3.3700215182860167 7.169034278880195 6.81305688916371
Zn 7.938884633293513 2.9706842706938295 6.533861277621539
Zn 5.56808499322984 2.265236322938349 7.581569990561359
Zn 3.7522783040583487 4.61419793187827 7.681797179450381
Zn 5.188592467879404 8.90568514980595 7.685257321400971
Zn 7.377128605643483 6.8077048654453876 9.298505140474589
Zn 6.190152993365002 4.449910726290597 8.818981039405669
Zn 4.796689767801121 6.6432428083257165 8.83580810395371
Zn 8.763226972105489 4.740153253340326 8.330839180883059
Zn 9.63224456726056 3.5352901021781236 10.52539320359773
