38
Energy = -24.94173141 eV
Zn 7.728727334359115 6.642531898443775 2.2055993701334207
Zn 9.053404471094325 8.440564696221525 3.647593170733582
Zn 5.449249145916581 5.478609761706992 2.871447390693128
Zn 7.388340384720331 9.415593035169042 2.0941216617512475
Zn 8.977238624542267 6.0778725822352895 4.520960820397553
Zn 5.336732059726845 7.8917150964158616 2.0511441964305126
Zn 4.739432406810329 3.530044362783294 4.363866461700626
Zn 7.657724306108483 3.9772431923996567 2.984441422921203
Zn 2.9823087291067205 5.445748758255082 3.7663319357901437
Zn 6.459197987266436 7.390224959933049 4.568634496691934
Zn 8.95098268360194 5.682031399208242 7.154547326116358
Zn 8.875802017527905 8.1416139492878 6.269749447942968
Zn 5.355126461246753 10.050071920932274 3.4868002124370143
Zn 9.081065959574934 3.604584167678222 5.074188683972926
Zn 7.386321680240095 9.890278225594889 5.061471850423816
Zn 6.696729664979875 4.982353662345537 5.3239887476719945
Zn 7.012295690691705 2.1575753926620194 5.334739567811656
Zn 2.596327776145675 4.146516506979918 5.954811735752681
Zn 3.685775122308074 7.863463262709874 4.113832913718506
Zn 4.520707000610149 6.106384908173517 6.022891435667482
Zn 8.618407205069012 3.1579782351847734 7.509785035326422
Zn 4.818123372366239 2.4347430982328198 6.6383437882726595
Zn 6.309161234482291 4.471570834878642 7.744275851239959
Zn 1.3473916420465215 6.394138316414784 5.5657885738045785
Zn 8.84384161172218 7.863298129277665 8.834015903897898
Zn 6.560844866978617 7.013196524844501 7.1471456818725425
Zn 5.108752870038815 9.125081117993803 6.033566861089229
Zn 3.8334802752429327 4.198586736271222 8.223828049298607
Zn 2.7041837064361145 8.371058855552768 6.4791011887386105
Zn 6.9883612637739345 1.1930477773013712 7.884408356994356
Zn 7.690176627108767 5.728366231398127 9.592398113549734
Zn 7.130433185531008 9.593410544077518 7.825082376973734
Zn 2.647410292623697 6.418658888652873 7.997381421814921
Zn 7.248997659570007 3.0220632122221005 9.911925559050232
Zn 4.993227018978481 1.936752336958723 9.327648509477177
Zn 5.059458301112109 6.245227509996353 9.291969599915408
Zn 4.582887124743893 8.59332864894836 8.46155352861192
Zn 6.650069359009366 8.265056751914454 10.031584307600777
