34
Energy = -21.46228 eV
Zn 5.201813827236368 10.934486121905675 9.024975566036863
Zn 7.900795092547881 9.307859480318285 9.12243880879497
Zn 4.487349629267866 9.931222100167814 6.7503022696328605
Zn 12.241111472318806 7.587777697931316 12.067467019120787
Zn 10.371536023408638 9.27625641007245 6.563777151523501
Zn 5.784063027345585 10.47779813657529 4.620286492172519
Zn 7.729062085972888 4.460542900962386 8.474034008426596
Zn 5.929586135144368 5.660183259861502 7.0259656919905265
Zn 5.320813924204856 8.690701037546635 10.189067915395162
Zn 10.726791078223448 9.806406508276229 8.984695615471358
Zn 9.090196033467489 11.322041049940855 7.612836672397785
Zn 6.718148392912901 10.752886675995613 11.131945782477356
Zn 4.575666280145748 7.691712493399445 7.968094093972557
Zn 8.598591235347593 5.5336208834045255 10.541478505570891
Zn 7.04074943764954 8.624288341769239 6.902108619939994
Zn 9.052257758412145 7.620892660290145 5.24429568425683
Zn 4.905034380813573 7.906518503989179 5.309184389317428
Zn 7.266903757485049 12.554721957855099 9.19212410551156
Zn 11.55905442411221 7.326658207530041 8.15190101407334
Zn 6.617571146107985 11.430261170830546 6.9203077360883665
Zn 9.704359000788038 7.810747745038885 10.638895752267048
Zn 13.070466101598338 8.713719807674916 9.877148247691421
Zn 8.807308403889563 9.718250718577165 12.096852755719956
Zn 10.272798936293556 5.015935424516073 8.319973570347113
Zn 9.292999826750409 11.521067795265898 10.341029062338295
Zn 7.1351028637511815 8.65262546798123 3.61473419012921
Zn 8.623444132580506 5.22211110285641 6.21015618443631
Zn 6.850372773844831 6.385702391764145 4.776190273112921
Zn 6.26877727900915 6.404193886082604 9.494228259184379
Zn 11.383889181413744 5.833029518853256 10.426941774400985
Zn 8.958048555103002 7.301815979185793 7.9255667046020255
Zn 7.236530687345541 7.707438444808775 11.528259989625909
Zn 8.4231588753325 10.342161372710667 5.211110657028686
Zn 11.326113446171627 9.942662838334883 11.571417496836363
