37
Energy = -25.0736196 eV
Zn 10.13002297114894 8.253594609685237 4.897064667053226
Zn 3.7284126087490854 6.50406639362724 8.581336219193673
Zn 6.234974295456982 5.466838928685646 4.7327423003308775
Zn 4.797781124578898 8.87271872485882 3.949503936792141
Zn 6.3635727484380835 3.0635369653011737 5.972050338820521
Zn 9.75930153328322 5.948073545657804 6.258601582130355
Zn 7.442431545143389 7.1860953511467525 6.177849961356708
Zn 6.932983378872636 2.9531073757876154 3.2776255606048394
Zn 3.8602982951384983 4.051367559295155 7.599226723245204
Zn 7.512036873343149 8.857320451153232 4.046206880832834
Zn 6.193241400439798 6.989227725391857 9.522268447228432
Zn 4.843308666001184 8.828859378407335 8.168657331795158
Zn 5.019029533730448 4.57491730233316 2.3887419598173394
Zn 2.61333210265841 5.997780591570687 6.171215917728693
Zn 8.54471631745113 4.159138547261952 4.873550740382669
Zn 3.679615756392804 0.6766820448976318 5.166221770441674
Zn 6.084238883812848 5.412890065084921 7.360988267678085
Zn 7.44135806512167 4.62107107223925 10.023537717051234
Zn 6.176225485308145 7.08564788633664 2.650411805097614
Zn 3.9782970612341253 4.161407044480094 4.972431646620777
Zn 2.3033629162377096 8.313390382894625 7.368878265238614
Zn 8.6866657023733 9.915559668123143 6.170542399131093
Zn 10.08480415495488 8.260876223916325 7.552362172158932
Zn 8.60649180192185 6.448712541598902 8.643101142722536
Zn 4.888178156301085 4.669700024594931 10.000357729461005
Zn 4.908864987562448 7.242856557003241 6.04116764472141
Zn 4.5613111080937 1.4372390786030662 7.342098895054219
Zn 8.667234849739431 6.5373146565830185 3.7007437923946362
Zn 3.714723385355013 6.4484633289307185 3.638997970950268
Zn 8.318830662668129 4.075027145014608 7.523710478281756
Zn 3.577610527614516 10.064410259362656 6.025531399345068
Zn 4.558644560958603 2.139800353054634 3.3525798051231557
Zn 2.2772349176191478 8.271384022549645 4.754688702962594
Zn 7.530165895047219 8.861950194093707 8.296939044878904
Zn 6.13363170155024 9.738225735360498 6.099491910633774
Zn 6.18924612171534 2.8385247696013653 8.686795281653866
Zn 7.586311436380523 5.000715027909449 1.940271123484377
