33
Energy = -20.25068009 eV
Zn 5.475610104279922 9.501580965267904 9.040119097703903
Zn 9.32116832012589 3.5780801291565956 5.165207881560522
Zn 8.00840602918487 9.961882351380076 9.953836364878637
Zn 6.527274698530656 8.15221136343074 10.996115475985711
Zn 9.850391438531432 6.417641257735021 8.916688819159166
Zn 9.62965976388037 6.463723043192458 13.270120288591173
Zn 4.85810197794175 6.981181520231804 9.419435215858497
Zn 7.2413579591682256 4.918506576203941 4.041396546943658
Zn 5.378065118460402 6.998635530404804 4.156885006930243
Zn 8.597801341848774 4.357562927993795 7.924428040062861
Zn 7.774305802524043 8.13394758091445 7.980224078610565
Zn 10.438235944339164 5.424855467080801 6.482198239718688
Zn 7.723352155970005 7.3473155155752226 3.2522969161785276
Zn 6.071343623268745 5.0444481658946625 7.871252407508728
Zn 7.877282963739251 6.448230846203347 6.131871000240952
Zn 9.777549193168788 5.830596477297727 4.002974486739883
Zn 3.1646235271586445 6.53955480940237 5.74434984343656
Zn 9.045923935463259 7.769527099651487 11.0839358762785
Zn 2.585437803330125 7.08168657326217 8.259377181848114
Zn 9.005006666855557 10.088583599534845 5.857969305411355
Zn 4.8369014982991585 9.970293563334947 6.588567293417468
Zn 6.870336627624524 8.88251604060393 5.228547819050172
Zn 10.419446249190184 8.931985340702433 9.296614684888299
Zn 5.526998059557057 7.355229636494324 6.878295683185196
Zn 9.596869148618296 10.983728256365954 8.154513018202879
Zn 10.101056251324113 7.94445938899566 6.795121750365285
Zn 9.860554636558486 8.338493649945478 4.206191149769991
Zn 2.561786629068764 8.96800184980585 6.316388062330933
Zn 7.02785551704236 3.355185142248119 6.1017922540507366
Zn 2.502816980701616 3.8188718205495302 5.435183506540323
Zn 7.437487418330011 6.057619206058119 9.745056862559405
Zn 5.053219410108376 4.819468882157533 5.482378515832668
Zn 7.0959726736369095 10.776594890753938 7.46286679398967
