34
Energy = -21.07007941 eV
Zn 8.625434476819839 5.609147079482183 2.926809001829209
Zn 6.7475858194175995 6.49128239941476 10.466390345565612
Zn 7.321750832127459 8.586114231068384 5.967470081282956
Zn 8.505303895565671 8.122296903401379 3.4631062711052585
Zn 3.2755113404921015 3.4499323341377286 5.686998225842398
Zn 9.857119237150748 9.109541468592328 5.403610596637482
Zn 5.386709598582439 3.118502527165517 7.409645530892193
Zn 10.134355719129431 6.50430598356636 4.752612125204874
Zn 9.405919635218726 5.06871555744817 6.910794464044653
Zn 5.431223732060536 8.945308650009071 10.201125254538114
Zn 7.193439720409057 6.00312258010602 5.587080482136988
Zn 6.493127865198934 9.971695112841848 8.129119367967647
Zn 2.881585301685783 3.6098690657697143 8.128095507147442
Zn 4.982795928910862 4.7491367889035345 9.487321644825887
Zn 4.115050976954778 5.857753796897999 6.667311107414855
Zn 4.980072595457792 7.647568838807948 5.019133253790757
Zn 6.263656179701225 9.308088965046338 3.3231164222840888
Zn 10.618306903111032 7.4320758538958795 7.091982086786933
Zn 5.447590355432104 2.50100163102974 4.867626413296416
Zn 4.020147144338478 8.231669875907793 7.995833300259544
Zn 7.92555825027741 8.87373701802073 9.977365515271885
Zn 7.342323544839027 4.509687899205632 8.46764317775312
Zn 4.142560141715845 6.956022917512084 10.706134909630137
Zn 9.549910905231119 3.892357814603616 4.58443937237757
Zn 4.822346412962019 9.92183733649436 6.169798959942313
Zn 6.245065608609316 6.964864054861666 7.760950396971388
Zn 4.847425394628406 5.019517294709963 4.294460016513049
Zn 7.667146756027051 3.1928952428688206 6.146069699376982
Zn 8.732503948074429 6.766150636384129 8.67128300774024
Zn 6.315120742177368 6.723752784952438 2.934426808613732
Zn 9.081994628372223 9.43631059924457 7.798554062841525
Zn 2.7625319654377933 5.970341710598303 8.934888147761372
Zn 7.076839558923141 3.802909235037414 3.548433979873184
Zn 5.661195361010418 11.511696288062646 4.3795809385303635
