30
Energy = -15.82463989 eV
Zn 9.751702608266747 7.1945092841901515 7.339928011746826
Zn 7.577972803805544 7.995616221666947 8.478636566142042
Zn 5.218639726214419 8.679356395215676 9.238753462972138
Zn 8.155477470536361 5.455877893224698 8.405428291696218
Zn 6.137055867589845 6.308789864048762 9.826520814489369
Zn 8.431671478561723 9.135738470252308 6.320678021466295
Zn 9.208131811292528 4.9819630653844404 6.039074697773744
Zn 9.629347486896483 7.201672000251875 4.775943364940882
Zn 5.915431978516684 9.46398285285326 6.895763454951702
Zn 3.6846182838544794 7.021706830219958 10.423535443137405
Zn 7.535177502121492 3.3103110971230367 7.149558577831791
Zn 6.474745694347137 3.7647580503614146 9.445520184092803
Zn 9.230565962202716 9.636536891662123 3.9267800316801824
Zn 8.273634448853436 2.9646716645537965 4.69168419829959
Zn 4.095444377418589 4.6946460454972145 9.32104453484142
Zn 6.701639278018182 9.410495279243406 4.42801583639531
Zn 8.5233879355284 5.229538865480455 3.4995894721223606
Zn 8.049207942964129 7.692872087610562 2.741844671067703
Zn 4.91214212798047 2.950453447779289 7.537296051242388
Zn 6.003955419201204 2.0104284253764755 5.4166170761796115
Zn 2.356751700739648 6.4190089525232645 8.31680593974715
Zn 3.579070956865293 8.388645295160108 7.290731276175492
Zn 6.162513025938147 3.898759280806947 3.5647304096874275
Zn 4.393412109974733 8.3518544667267 4.887687608219555
Zn 5.4718464732878 8.125505852228626 2.573488563781391
Zn 2.6237984838433053 4.143989588779664 7.222880330484256
Zn 6.485542262247735 5.82771438120529 1.9532524901090749
Zn 4.171878746980067 3.925966168222418 5.215681229659375
Zn 3.1348242448935126 6.2813432827437214 5.836085093231985
Zn 4.5528944346991365 5.955153237131711 3.7005015504098746
