34
Energy = -19.93817054 eV
Zn 9.712719425266393 4.3939175565810435 9.347672322721857
Zn 7.68360541355857 9.957705640560047 2.6380993171129488
Zn 3.857984670806628 1.4334007339462589 7.5938108408753795
Zn 10.188779882581729 7.238775547934273 5.282525784343809
Zn 5.749620955017693 6.2530752214289 6.091264749682339
Zn 7.133721245797002 5.7504424509275935 8.369473726954489
Zn 3.7166296694354615 4.5739086264267605 3.7567041190317467
Zn 8.127821771171163 7.620873153246068 6.960966505496759
Zn 5.898009068957589 8.546164122999398 4.250634833941222
Zn 5.392496150394359 6.059589539762585 2.673055513495807
Zn 2.026220386553685 3.1926504281324863 5.02044136201204
Zn 5.222486307412561 2.1792972229919596 9.807779539109069
Zn 6.440000931942361 9.992715045670023 6.636844185450189
Zn 4.19023101931889 8.580482504143081 6.475415641487561
Zn 3.7154478220346387 7.104167130392182 4.393486056598359
Zn 3.6466954391339037 7.161135651917616 8.573766853009882
Zn 9.441569620572897 8.078113760115848 2.9868874821690783
Zn 6.919939204499472 11.3196122715633 4.5463576915917026
Zn 1.898722025574409 5.3218092708636675 8.706138500773791
Zn 10.362463450847853 5.774563815650912 7.36229895735811
Zn 6.897401795233827 3.2752582782287547 6.952069445388562
Zn 7.650628945845463 6.472437895146526 4.051415320804683
Zn 8.738820258975052 9.465073227136347 5.131761785412973
Zn 8.45065780474599 4.963748679274903 5.913032085975306
Zn 4.769984485476712 4.712779026327262 8.339024143549048
Zn 6.337915822338679 4.263905802039556 4.384578883904412
Zn 2.802072989985609 3.018897966210266 9.341735949932703
Zn 5.944367566734723 8.102938061630836 8.347887669252358
Zn 3.0172264697623072 5.507820981584126 6.336774091373309
Zn 9.197700191060472 7.150031146667204 0.42937642226340245
Zn 7.366829540007898 3.396850986741155 9.426292951408122
Zn 1.166707113953901 3.279312251795284 7.326704380362924
Zn 4.517749005867493 3.2496718329179477 5.9696383180666555
Zn 6.971660962296108 7.716143371491156 1.7372714387411328
