32
Energy = -18.09234793 eV
Zn 7.873586599724428 4.796377824578463 2.093586978785063
Zn 8.75043464319075 3.949718973686131 4.395283090631879
Zn 5.509815206804149 5.043873896084974 1.3570467967563957
Zn 6.058938509846411 4.206751586687201 4.097430433849409
Zn 9.52319570542871 6.201723848168962 3.354433793742554
Zn 3.391759270382808 6.641525502247083 1.22507927469552
Zn 9.117808607258883 4.672135916659681 6.961520443639063
Zn 3.651556981963849 4.784896350642666 3.1905538622926004
Zn 7.2565812394971205 2.9270973035130954 6.135473035293836
Zn 6.287518655034344 6.823305841957228 3.1789705876486316
Zn 4.6336969684602165 3.7079242760358015 6.2922906409633
Zn 7.620798370386914 6.4102214364254335 5.635470223782451
Zn 5.943139773315012 2.4618515364896845 8.33638117281945
Zn 8.27568691635172 8.287515381517224 3.8674794670222368
Zn 2.525903784918132 5.316498517547031 5.348519005070597
Zn 3.478558872057144 2.95407986317388 8.623658583538079
Zn 4.9248145717427345 6.363409920235891 6.053951798768974
Zn 3.6855858062688927 7.3386888025060095 3.826390698317671
Zn 5.05925161904511 4.338448048481939 10.006545093344355
Zn 6.645500792882648 5.040924954909296 7.849879720699121
Zn 8.628744967277724 6.888441392047339 8.121896733364139
Zn 2.717568077234485 5.203420646318784 7.845455705257216
Zn 5.610977160365845 8.776584354581837 4.669101042998786
Zn 4.59237334922816 6.651143772115824 8.762088014256403
Zn 6.440460783473725 4.767346242755665 12.214081725384657
Zn 6.819534363685598 6.350963615951171 10.112144313108972
Zn 8.138129868881913 9.759756541298458 5.8598178633816
Zn 6.1716469795681705 8.186135615017543 7.276923479615055
Zn 9.350244269774523 9.450240010955318 8.131908182525505
Zn 7.261808091834166 8.758463058621064 9.588373734746083
Zn 7.15930620136295 10.973116400179098 8.208542406147764
Zn 5.687207262115883 10.759552837972116 6.171856366915195
