33
Energy = -21.65731123 eV
Zn 8.369108514719132 5.036728181447079 3.817936651320396
Zn 3.392058979622894 3.6864884777777527 5.643806665691728
Zn 10.471245023953536 5.927296229556261 5.087005683887678
Zn 6.497489338718978 7.952134230223261 6.382204787792874
Zn 2.7092705333757445 5.659551683071886 7.153821612690322
Zn 5.384272286253749 5.746700291536608 6.790354268820556
Zn 4.46171653681382 9.925958104685723 7.453461612926977
Zn 3.6271832867103515 5.8978647424034705 4.483136107640433
Zn 3.644108258909179 3.3444881782435463 8.116597861453243
Zn 8.67308368364688 7.5955232232883265 3.97489474397563
Zn 5.099932883496745 10.288622707362858 4.988585673417175
Zn 8.129132516740425 3.378788888149679 7.688320572575818
Zn 7.929097166175543 3.054413449680457 5.254550153327159
Zn 10.250334196044184 3.7236671609969427 6.221029219066624
Zn 6.307947137756051 6.598275835350703 9.32868604567818
Zn 9.485740093090037 7.848150693851314 6.435768262657918
Zn 7.835399044102092 5.8068316094157115 6.522473201226266
Zn 6.590254597781736 11.123568833935561 6.904650087950967
Zn 8.705913983105132 7.592696548431028 8.92187427511979
Zn 3.7287717371172167 7.8747759028477065 6.175098883979863
Zn 8.594041251939665 9.87238730562661 7.754334754490656
Zn 8.095702218072091 9.811102371287234 5.2616446448997145
Zn 6.066512266110749 3.9734416216722943 9.119809255961197
Zn 3.98593173125363 7.77987408151643 8.743677009071748
Zn 6.654735202322573 9.082265196428608 3.3564198788613475
Zn 6.409046899261649 9.106949590074883 8.921063123946684
Zn 6.2344588130161105 6.542844106325138 4.062023002630157
Zn 8.459128572862578 5.135948175816679 9.393045371751734
Zn 5.735564070209942 3.035397515812574 6.664832837116525
Zn 5.702327409789959 4.093509785141584 4.275513551406891
Zn 4.280611356263208 8.265957554612491 3.6921298790080472
Zn 3.9308606634708187 5.411886063594666 9.489565258780901
Zn 10.453940998265091 5.720832910805679 7.816606311845096
