35
Energy = -19.54627666 eV
Zn 8.011162093202437 10.546613416291096 6.774294312371852
Zn 5.108451142492807 8.261341402724712 6.0598327090243895
Zn 5.525099450354592 6.192804208894672 9.84383728199839
Zn 8.358050685952943 10.460921706506083 9.226552711887349
Zn 3.399198557864779 7.386488468894498 10.421970328234348
Zn 3.736276776634824 4.486545780219096 3.5070527709960206
Zn 11.264680621403537 8.415506492338828 11.559895320387152
Zn 5.669535031601911 4.220231780069602 2.0275804546891836
Zn 10.454459439197617 3.9938963801433083 4.088780547184541
Zn 8.765882911200809 8.352155906197787 10.544073601979324
Zn 8.844335820610365 6.218324900821219 6.690220183345853
Zn 6.704257193354652 3.912935809525937 9.68195714849748
Zn 7.6283813412467305 8.114026459686754 8.060761160619201
Zn 4.560784374865734 3.8066730281720558 8.420287855174855
Zn 3.5909036570506068 10.179338770223518 7.251062580572847
Zn 3.6222336267718154 6.290723803977957 7.776904416972921
Zn 6.891158748742268 6.453876676084877 2.1529515374032533
Zn 2.144811025621706 8.832734268949148 8.891147733021734
Zn 2.1668942512023133 8.219521416913418 6.408353685371728
Zn 8.112041222523274 6.04702807918753 9.821097890066262
Zn 5.182698607797552 8.625518343643712 8.760407448299484
Zn 8.730450070298323 4.144325691719928 8.157875087827628
Zn 10.90457814459444 5.877048757430905 2.5221413715776095
Zn 5.671444147080682 11.165184420894457 6.293894970995772
Zn 6.155105810735002 3.616816887552983 4.851760799163734
Zn 8.935276922650461 6.634546636040935 4.192366080409198
Zn 6.680714262676039 2.684285119982724 7.272752898270198
Zn 4.051697586240511 4.286621233282206 6.0454955221013025
Zn 9.100608647153727 7.531398794041178 1.6792248186025245
Zn 6.161799966102086 6.347399658183165 4.710746288946639
Zn 6.29989518401467 5.67483453348711 7.157750687820853
Zn 8.552093516138092 3.6530707215048257 5.701432678795467
Zn 8.005676750928975 4.252242524669293 3.097102621834956
Zn 3.386450175071881 6.55601131913443 4.9754538477145624
Zn 7.6534655050246885 8.468241629483854 5.423505503430664
