35
Energy = -19.71055302 eV
Zn 10.66723438519194 3.4818406170591687 7.019460457147616
Zn 10.811028245812286 5.913297845350697 6.376645870710964
Zn 10.03527681861592 8.154194979623586 5.707369435791737
Zn 8.690556931051244 7.492287827191237 7.79330033915364
Zn 8.963261919462848 5.001393617003546 8.259072178885724
Zn 8.881856490743246 4.200844282257817 5.296129164891076
Zn 7.558964069940614 9.107819617246994 6.179113408709022
Zn 9.177345842178019 6.452257666460777 4.064563578703627
Zn 8.236686453886827 2.6304708689105945 7.47486524622245
Zn 6.468025014154278 8.930435998906743 8.535317567628896
Zn 8.510221678395679 8.933318633941598 3.818271715333458
Zn 6.754340677755831 6.441635848167642 9.213836226677701
Zn 6.969433213738437 3.809626677269785 9.36342012049783
Zn 4.1132031576348025 10.059103179273237 8.902079231967248
Zn 9.156508685191843 1.3104373982566955 5.1935474142985525
Zn 4.433841310951148 7.478762215147046 8.607055567706775
Zn 5.234819879310011 10.119975614646757 6.462215255116964
Zn 5.545768364912259 2.684555407694937 7.574411988449294
Zn 3.0052510264586725 3.270490884452584 7.6240124743800415
Zn 5.936895843397534 9.341503022861932 4.117253970608961
Zn 6.846363146419264 2.5158419177916653 5.275757056898474
Zn 6.903780228589486 7.280766986912423 2.913100424393266
Zn 2.7825978179621105 10.829305346514431 6.888624914666091
Zn 7.570589191321366 4.585512405818475 3.1621162992146084
Zn 2.1864697690569326 8.502029652899587 7.452036953445361
Zn 4.744776101474713 4.868162653607206 8.729124312527055
Zn 3.323414661684097 9.364692530585959 4.843295017686494
Zn 5.510717601473778 3.1120391180074156 3.2118937830136187
Zn 4.165706361470093 2.884780660040041 5.412807931769904
Zn 4.259551875787807 7.4529263656608995 3.488236520668909
Zn 2.827871105165392 5.946798177968658 7.432288563766558
Zn 5.34132975456905 5.448977495383306 2.27607956002962
Zn 2.2644335276695697 7.028779142042522 5.151428075894345
Zn 3.701072153477588 5.028973959808693 4.145676226000266
Zn 1.8072494086434965 4.452521322223031 5.689629102338604
