39
Energy = -26.3830473 eV
Zn 4.89276161753257 6.360339656968025 2.9432440208171164
Zn 4.287580131221177 9.718118187893896 5.639116496661015
Zn 6.9962782297359825 5.285750128794377 2.0118125628452725
Zn 3.45072370839036 7.505625147259167 4.715019239968953
Zn 5.137105213399672 10.060470541539514 7.976944754105158
Zn 7.2284747878723135 7.769485211711732 2.0329369933559223
Zn 1.8414813475363254 6.2837188316783985 6.355603346386598
Zn 3.4660864355859733 4.892920804928109 4.874725954026338
Zn 5.7559164183889315 4.092362216157287 4.092195202257227
Zn 5.614941161070107 8.772965836015917 3.7377331352022
Zn 8.294971080918435 3.9004505525894837 3.6472606507690757
Zn 6.711231655199365 10.441517707687717 5.6140683657026225
Zn 3.0351983118984083 8.377497950332467 7.306908334843387
Zn 6.782922662001932 6.624073222106999 5.053366015370729
Zn 9.013805482550447 6.359216490431531 3.6896616912946207
Zn 4.97049414534568 6.440345548039769 6.727639424746125
Zn 2.7425204208629403 6.230055775350788 8.821659101698947
Zn 2.7945901266661446 4.150545913696482 7.396600994643618
Zn 8.257471978710674 8.879136459030404 4.182961449961263
Zn 9.000545494035967 9.687934787279366 6.59265054615835
Zn 9.572695845441006 4.605327845393085 5.775153065408609
Zn 7.4500280832862265 3.019328820534538 5.872965724722302
Zn 7.4155288158797585 5.45843279790778 7.295479230764484
Zn 5.179628634668945 4.92725209433937 8.877757612529521
Zn 7.405666837807953 11.202885700724767 7.967844507991947
Zn 4.93365082201273 7.6704226293327205 9.13197518815767
Zn 9.357370293871309 7.161177220323996 6.243922986558661
Zn 4.9857373042278486 3.3454524326013924 6.518628669865403
Zn 9.327596970081766 3.029181573896643 7.773367889989411
Zn 7.001963955276934 8.07736729281634 7.281710636841895
Zn 6.7745558568620945 2.9027783435627654 8.365942639424434
Zn 9.44193467113566 10.08941512237542 9.060018844594794
Zn 7.272535709915837 6.593396091833167 9.714667793473751
Zn 10.321822730466298 5.389235515063331 8.158667815952027
Zn 6.943103946712424 9.375315959753003 9.748932633161509
Zn 8.345083292554651 4.2279027277992505 9.794508429746394
Zn 10.54429921323156 7.870347940865827 8.770411866391965
Zn 9.79106985183803 6.110198701739487 10.628066439244524
Zn 9.009400867053971 8.432410331793566 10.975577799549201
