31
Energy = -18.54756291 eV
Zn 7.429172459649998 8.264431223636379 6.416374212554345
Zn 6.161756734264564 10.606925782202884 6.2485066474900774
Zn 9.332599614944032 8.376121273615801 4.392976919671464
Zn 6.758850562329155 8.976426787742225 3.958749089014924
Zn 8.743655159987973 10.49568646614783 5.749483688948136
Zn 10.11414068631131 8.496273116787702 6.970539128280624
Zn 5.2192657213798475 9.506263016721027 8.387485127859792
Zn 7.832899781940413 6.520828333547127 3.3649767677935065
Zn 5.413639675388609 6.869913764456406 6.868866724130912
Zn 4.4074340745917775 8.983666332397684 5.237129564201645
Zn 6.174369133911668 4.411312980382398 3.9638902337611404
Zn 5.215426168677961 6.827786490255327 3.8405334099791926
Zn 3.1470732812639612 8.283636795030718 7.438574238065805
Zn 3.1283748235970448 6.644893566898867 5.354932603135735
Zn 4.400817173123461 4.394957337460215 5.830781097639238
Zn 7.839375455984361 10.077157401436363 8.34666931782138
Zn 6.764406247935929 8.31428192694698 10.163407087670523
Zn 9.341048073873694 8.281276583707719 9.441763083876193
Zn 7.43812797607369 6.577381527625951 8.28027887966799
Zn 6.169521152829643 5.572994471432964 10.405883532472041
Zn 10.1344022083314 6.040011247417864 8.171994734191909
Zn 7.428843583965694 5.778869340338998 5.899278669739784
Zn 8.772233940277633 6.007206984430641 10.4982396275519
Zn 7.821130249179901 3.977797846962196 8.893141807496818
Zn 4.398937622099597 7.220185574001171 9.541443773429581
Zn 10.13271684939425 6.155368930706439 5.46199941053714
Zn 5.215928066844753 4.271563262854449 8.390394724411859
Zn 3.133686311834487 5.675971878083966 7.804945945396252
Zn 8.74892305673599 4.086870546387675 4.302354806907154
Zn 9.342756085766414 3.951283575813228 6.811530304023216
Zn 6.76019995793756 3.274367413074081 6.484586564821767
