30
Energy = -18.11711959 eV
Zn 8.246638520735317 4.457935647018148 7.742643261175839
Zn 9.175609039356939 6.643316708621806 6.628390021493788
Zn 8.362765892227605 6.730451108574426 9.159771750684714
Zn 8.907821304550808 7.520487293658441 4.191623703030882
Zn 7.600753951963045 9.207774685544141 9.758693222355076
Zn 7.320841152135456 3.1364490738084476 5.7603581348325665
Zn 6.044719432463625 7.367992299398604 10.159570810733394
Zn 6.275250837013925 4.91074569504056 9.315201847487232
Zn 6.388148162790884 2.6111080458994236 8.21237850814902
Zn 4.7696664348556235 6.650638911098378 8.05237315739566
Zn 6.888523819703855 8.003121616886913 6.8922305526036265
Zn 6.604281656816529 3.9107325572537373 3.236803401940605
Zn 4.202520047829233 4.066887474664002 7.944146862424107
Zn 6.349968988227206 5.677885400220542 6.142449626852872
Zn 9.451844548327477 8.836927009543183 8.058833198857672
Zn 5.276955276010643 9.339377020983092 8.522349941337316
Zn 4.568752622987313 3.472649591265085 5.4647924017822165
Zn 7.656776015583007 11.01311761209467 8.03955818566634
Zn 3.325991525602088 5.751660111994437 6.023800324754527
Zn 5.632639311618057 1.0237778586517072 6.434577929264148
Zn 3.3319782889383402 8.316734197956103 6.814204127327165
Zn 7.14900727076095 11.278001773089397 5.64326445852561
Zn 8.5860941871871 5.027355653577767 4.588980046136813
Zn 9.09749702629569 9.565112003297916 5.697374067173556
Zn 4.41666629269705 5.282654883923445 3.676513943800206
Zn 4.6963002546154025 7.638202844434487 4.717469306362011
Zn 5.0101119421272395 9.997993957449733 6.017586440999957
Zn 5.783968387507031 1.6202845747269707 3.970076163593758
Zn 6.650710754662026 6.477859507946001 3.4238553726194336
Zn 6.870384158406235 9.07604120385407 4.329289718808415
