33
Energy = -20.94497211 eV
Zn 10.262596461648707 6.252528735339584 6.043437396176377
Zn 9.517554547931155 6.8159851695974325 8.397633580911277
Zn 9.7192882062207 8.670442656358542 6.521932592844692
Zn 8.814643265245977 4.759717154053118 4.528035499308067
Zn 7.6279191126635215 8.570739455842535 7.974463619656294
Zn 8.954845468377561 4.408614293605886 7.280063145147791
Zn 7.764954293889635 2.710120405865292 5.6047478508017905
Zn 8.803391901514681 7.397614806617468 4.242102593815128
Zn 7.701949077086612 3.1758656529317975 2.7577282689214146
Zn 7.281590484803902 6.446997065788486 6.30788369348374
Zn 7.177777326027533 6.18309469721023 9.192474882910993
Zn 7.502350309955812 9.390499022352646 5.489990325511829
Zn 6.05908136292163 4.733596994715159 4.791054453158352
Zn 5.285196469496476 7.919041048638914 8.39624622405332
Zn 5.819711120621675 1.90854675803004 3.9227355960015107
Zn 7.502076031027789 5.716663214999742 2.533461942557824
Zn 4.647744398914165 5.572121743060256 9.148891314080425
Zn 6.413762520814811 4.176884005576568 7.610890755091589
Zn 5.449304311343878 1.9532658235309144 6.37544290624805
Zn 5.020041950038582 6.206402742067531 2.2644860271636738
Zn 4.0758564797390235 3.280637095662774 8.0353929853995
Zn 6.1862372569029676 7.6186614896378195 4.040775409613481
Zn 5.228379006644265 3.6714633266969434 2.2367071288326987
Zn 4.977178669166034 8.960560347648599 6.06782967778822
Zn 4.759369454269507 6.159315343878391 6.3216703296784615
Zn 3.6747028857613167 3.653167939709887 5.496242718622942
Zn 2.8347667100350478 7.403302355277841 8.077017286927106
Zn 2.23901338251817 4.962409404987297 8.123151948323228
Zn 3.634971674314102 7.505793800486933 4.08448790810801
Zn 3.2363614421350655 4.913751784588551 3.449636656235162
Zn 2.330888835476328 8.658682500893452 5.988541767177543
Zn 2.1431479622714127 5.946739566743588 5.695795689427071
Zn 10.262596461648707 6.5787718688511845 4.979191172979235
