39
Energy = -25.82003928 eV
Zn 3.3663743840416895 4.9060600654863595 4.288066725837867
Zn 3.1213989055388 6.559415296556343 6.366055121105884
Zn 5.371528080470851 5.0016174168839065 2.7442052383009665
Zn 4.272576407394124 7.330756936682721 4.2825767347429515
Zn 2.2353021971727447 5.374058162234024 8.453403583162293
Zn 7.003145006979216 6.517152170707607 1.0692449539627853
Zn 5.141837996934793 3.21596024770786 5.093524198383701
Zn 8.4709317861116 4.646391537915712 2.015411194594006
Zn 3.0300627051876634 3.733307957512717 6.571497851593569
Zn 4.60805508126289 8.746577176531817 6.521740473918261
Zn 3.6066560065299003 7.63554512889706 8.68603407957741
Zn 7.496177356773681 3.8212031623465856 4.191444096510478
Zn 6.045079296266621 5.675741649935252 5.687574701250727
Zn 5.852345479845419 9.378923448557481 4.2679146393263245
Zn 3.967526312622166 5.495686282349349 10.300787960964565
Zn 9.401761878901626 7.003330417043356 1.9072859385172194
Zn 6.716123313478202 6.9717706627314255 3.585187725075048
Zn 3.123381940343518 3.1042168316608656 9.160285340763732
Zn 7.708704408698166 8.968768910580089 2.277562295929048
Zn 7.2137994429352075 2.841598836911538 6.529528351916534
Zn 5.10268342228257 4.9241811729583365 7.830552805941478
Zn 5.088801208554174 2.242122536239873 7.799590820228576
Zn 9.152145424105049 5.840376526091787 4.322382419783657
Zn 8.126710118918453 10.519635322215052 4.289991446294566
Zn 7.490034721557834 7.796646215010904 5.85190232142404
Zn 9.856823786310136 8.313035259645499 4.1291324125873174
Zn 6.835440729316488 10.271399667879653 6.7198329776797125
Zn 5.466744374586452 3.288405429081537 10.189317777333859
Zn 8.576294297343313 4.989134087003018 6.705308527635692
Zn 5.7739651894803945 9.455999194367719 8.847081216633192
Zn 5.0689677451843576 7.792178043317907 10.716990922264278
Zn 6.393188210028186 6.9879504687842715 7.966756454350287
Zn 7.651675598419386 3.9055598646908267 8.846122618055096
Zn 9.948858262032337 7.252348304975868 6.678436838735142
Zn 9.530543852491075 9.803330943761141 6.195012754260718
Zn 8.434881720130118 8.97209924860817 8.340872808897748
Zn 6.594916069070939 5.600018882263249 10.489632102421997
Zn 7.520434289138771 7.976890252763851 10.428559200333552
Zn 8.889279390071817 6.395762677619514 8.908348766216324
