32
Energy = -20.538339 eV
Zn 7.195931671473051 6.3361529134967585 2.056168704732948
Zn 5.087421367174339 5.52350291443196 4.525724371072752
Zn 6.5008221073926435 8.510519156473844 3.3598134006111797
Zn 4.148666674885905 2.8335714408457604 3.5481458275623368
Zn 5.744007059528671 7.013832307997024 6.442067979371086
Zn 7.9274418256589305 5.7443473182883045 8.344502372306629
Zn 8.293844082085231 8.841217632453699 5.262240906121446
Zn 6.57991207758237 2.7786068424779313 4.516041155000176
Zn 3.8840088012963134 6.964446642440737 8.458790466688967
Zn 2.4094600555739145 6.516830536967487 3.5310904917180643
Zn 5.94323228114479 4.174726826679163 2.336132652209488
Zn 7.085579272353961 1.7192648886893065 6.795868655258955
Zn 4.2180106956334695 8.165299578497185 4.419911353780461
Zn 3.1635781287272398 4.630493351419182 2.088469481908287
Zn 2.681583551980592 4.284596200154231 5.039495069377091
Zn 3.5401244751747667 9.06513528221191 6.773771860558812
Zn 8.42453425453414 4.299738202105903 3.676847250539103
Zn 7.736022522645055 3.1972324635107308 8.699837032587794
Zn 2.8053432414848105 6.62192640102143 6.127695445484651
Zn 7.741682219198333 8.338018920323067 7.657000566499378
Zn 5.274153198780086 2.454844143263309 8.484206371836875
Zn 4.515678237200372 2.452442953473615 6.047500742383226
Zn 5.341727105395836 9.53416807902739 8.437704319680334
Zn 8.852339758699715 3.6868363884922513 6.304928014089044
Zn 5.917946519795435 9.685309147520009 5.8603708634786775
Zn 6.321910768380972 4.610615731978575 6.480468634210834
Zn 5.617912903703703 4.89377174504694 9.195714585373537
Zn 9.325809588259585 6.391397882077098 6.354992193093226
Zn 6.204897660428664 7.369192798721051 9.427615326145931
Zn 7.624535246498596 6.463108741884521 4.571146759226421
Zn 4.649438369863615 6.790603593364507 2.1340382368490296
Zn 3.6660944453724134 4.531899142572329 7.465349078150934
