36
Energy = -23.44525229 eV
Zn 2.031198018708325 6.423156714720731 6.619303075394512
Zn 6.198021558631006 4.138278572297676 7.1673320115229515
Zn 4.096224414814813 2.512167191284736 7.990348443293128
Zn 4.672739068488697 5.685541443687501 5.782750240399393
Zn 6.080097730795122 1.0594317876729276 7.034738792374596
Zn 6.279200951698765 1.8747053840075332 9.462261626262219
Zn 8.507103586194365 6.404912103791326 8.620749896834704
Zn 4.741365768940987 2.5066463438400572 5.4217199279055945
Zn 8.130572343914238 8.766284573923556 5.546745327469354
Zn 6.220821910916 4.114183667906387 3.844546612296188
Zn 8.748422446421364 4.687785647373767 4.469848967168842
Zn 8.261586865180714 2.087143191768523 7.875487584085319
Zn 5.6152786197465 7.746235949087542 4.592166469346415
Zn 7.26202912494442 6.270865269330164 2.928953348164265
Zn 9.493647722133026 7.10854316966234 3.9716007870968024
Zn 7.734824187866904 4.092528391006436 9.47695167244496
Zn 7.896271641449702 8.844092801792813 2.8716615979680418
Zn 3.5642644618960824 5.185990670423121 8.292520190020202
Zn 2.9948893704088477 8.470395160656432 5.445811572989658
Zn 4.096720734196533 10.395297513988265 4.08387179422004
Zn 3.2549062166417624 8.37495854837723 2.826824377223289
Zn 7.160494555873858 6.232515638640228 6.050787410584093
Zn 6.654920412406258 10.60492952988226 4.091589444438766
Zn 9.862084109069574 6.724950679024472 6.417578577070254
Zn 7.639691565266288 2.5912244635827086 5.4272709244049695
Zn 4.635422661197591 6.0614218522102545 2.671988710713745
Zn 5.419868525761521 9.869194317150514 6.2654495434968425
Zn 5.107357140629143 4.005169730509615 9.954210020859431
Zn 5.9033854766884755 6.280847484097259 8.90292918834066
Zn 2.3832267379018277 6.2754803113486775 4.090923130465932
Zn 6.838665567562042 8.308285970924988 7.725167747028813
Zn 9.120154292502217 4.340645415126737 7.012666547555895
Zn 2.515033615387562 3.875551014999996 6.2247822988394175
Zn 5.569815243328489 8.790298413043 2.0051405790178882
Zn 4.274400912866592 7.777714244127268 7.546533803200722
Zn 3.5944054367552365 4.071739835918656 3.845900756687117
