38
Energy = -25.32535081 eV
Zn 5.519208431760908 4.756435149110197 9.58460964077753
Zn 6.332945777917259 7.076459846260316 8.817692542527132
Zn 7.821316628921542 4.0171696010598925 8.933254717731366
Zn 6.502699016632652 9.776296222591668 8.588637490098257
Zn 3.6452194716541846 6.403064013769136 9.193505996220518
Zn 5.604785421531509 2.9380835506776797 7.794099249897582
Zn 3.1793875187030225 3.8960902705906832 8.994377875094367
Zn 8.22080660404258 8.370330657170276 7.389773726891877
Zn 7.990017467814576 5.858859003434826 7.0788383680202145
Zn 5.077407226297493 5.484913372302564 6.890017802772333
Zn 4.129247363020619 8.872982715327835 8.714730424810314
Zn 7.088496958478144 10.172534954981026 6.046412149633232
Zn 7.629332030455754 1.654771386090098 6.726909542446173
Zn 9.556960560749834 3.5478712168568087 7.24506050555714
Zn 2.408017114197335 7.577691830893163 7.274849982470237
Zn 5.276971209679965 7.983523319046475 6.2927682315638815
Zn 4.7982985369280655 10.951039916675565 7.203025347280654
Zn 2.3211191669786384 5.075367513175212 6.8481357738508954
Zn 3.174568702932181 2.653186119026358 6.8146941193741775
Zn 2.8178272272129834 9.710953154146024 6.083756284483078
Zn 5.123064973040314 1.7030271741771366 5.415250893635064
Zn 8.938242025566426 7.560539768331384 5.128120739240907
Zn 9.406216562702584 2.4190543564538 5.014629963385212
Zn 6.7569600344842415 4.02220560362641 5.580805071808151
Zn 3.2962607528027497 6.708257242840397 5.000132738922821
Zn 3.8900219088588983 4.1208106463387955 4.812973611783059
Zn 9.478621228859694 5.026380875561683 5.002675522834693
Zn 4.872940882837451 10.414478182858673 4.706718445435855
Zn 7.260463949715218 1.3324181442546026 4.0879726850848455
Zn 6.277442115352921 6.3172093809975065 4.677168038616408
Zn 4.417777584080476 8.319654821638668 3.374599694512785
Zn 7.0002482146705525 8.805416688399465 3.8815231823364993
Zn 5.576005240741595 3.066100395465014 3.145652957315133
Zn 8.160011636325342 3.641882831588912 3.1664777081015067
Zn 8.333066705852845 6.313653445813382 2.982842919881999
Zn 4.308668346405222 5.740532021940781 2.7797992097396147
Zn 6.235468371713345 7.505535112071904 1.7962570689258055
Zn 6.5240748475818044 5.010017889167109 1.763641101417461
