36
Energy = -21.13111218 eV
Zn 7.178731248912463 8.090235877703154 3.8365637199239724
Zn 3.7685592588378585 5.906669577328745 4.76354787854996
Zn 10.775652738450269 4.527236851307946 5.6025835917448505
Zn 8.398310715250368 10.075735442500498 5.245908742223055
Zn 4.618437062171151 2.857712570848345 7.586034041872987
Zn 5.507200483128606 7.266877838188803 6.342660166373376
Zn 7.402740272030888 8.239648407115133 7.746444911914594
Zn 6.03568170401482 5.7470951107302914 3.503425362750199
Zn 3.9422214031242677 5.322531194935494 7.6474578644129
Zn 9.010723599112714 9.800255882831697 10.299898418384714
Zn 10.775652738450269 6.511359240702127 4.785331241942047
Zn 1.8420540240509418 5.379101298365574 6.303333496830676
Zn 10.739964142218051 5.922045466744562 7.302969656373081
Zn 7.889315391449207 7.374895119471008 10.287691744656517
Zn 6.875866218232862 11.278532778199134 7.006458536065634
Zn 3.680754033546305 7.707886902554919 8.419431884052525
Zn 4.540373511836017 8.045582678896162 3.684679542172879
Zn 7.6047522410188195 3.73338624208365 4.21430294383713
Zn 4.940979029024327 9.717847981888303 7.570142867197567
Zn 9.054727097693052 10.332696102305738 7.877978334131424
Zn 7.934794372296592 6.283248714268786 6.179273726020062
Zn 5.76058602308087 4.617635131826162 5.867558762195646
Zn 10.42390772681147 3.4571011096856448 7.780335958472377
Zn 10.066081836252327 7.810641798032325 8.990549443062303
Zn 9.862841679202216 8.302742035001026 6.451295276550086
Zn 6.523908262871857 3.7235618036613456 8.939049569176134
Zn 7.93988358121451 3.5527654240721254 6.8105769567600465
Zn 8.63055255763013 5.990986398144694 3.4378756746283097
Zn 5.868937631868725 6.200211103136065 9.180940750931942
Zn 6.865193528950731 8.78953937187662 12.139481286574048
Zn 9.923433219375825 4.161396531564482 5.295440412680826
Zn 5.750023137994599 8.86927378783225 9.762302592633533
Zn 7.89239163423747 11.276133968258588 12.196456552221798
Zn 9.712512839600976 8.506305349277303 3.695016815599173
Zn 5.71395840105365 9.795848368830303 5.199057110006852
Zn 8.536115265946638 5.455158006106763 8.677825633351631
