34
Energy = -20.77477179 eV
Zn 5.3702612619668715 6.8387218059945125 4.853401055202667
Zn 9.67901092998782 5.431261144268228 10.724229586761728
Zn 11.069315280416468 9.549684151906666 10.476569599653436
Zn 5.893133659841128 9.387736399169066 10.313752727103715
Zn 5.00150703861164 4.649319392802458 6.01441694707204
Zn 7.557383106566285 9.529738326914057 7.3500308245966
Zn 9.760353656089803 7.818676845046158 11.867934020865034
Zn 8.12747316548156 7.889073144501218 9.310656925225441
Zn 13.350976317228165 10.606162732126617 7.101908059906067
Zn 9.7223306649249 11.533228429114041 9.410891183894652
Zn 4.696802560504868 9.103650167096236 5.760742376619206
Zn 5.07858020374028 10.12585541613344 8.020188269438476
Zn 7.7296972451399055 6.018363271181795 5.568829349968325
Zn 7.765429548307191 6.254824121852861 12.24798897508616
Zn 7.159291131311674 11.444094040534377 9.251400954745824
Zn 9.664205104052481 7.663932005909719 5.819300157430816
Zn 4.090697206411867 7.903174582144439 8.966738356778679
Zn 9.19304466517725 6.052648232016228 7.787119185124416
Zn 9.18697788928759 10.285893359898669 5.3068534910936505
Zn 4.977240484076629 5.368012960646161 8.677706117915292
Zn 10.051496916714537 9.181431807920669 8.033527681999095
Zn 5.913273844916679 6.892097535723086 10.589936246828813
Zn 7.419234138499419 4.867790089965377 9.796005617005834
Zn 8.403099397516227 12.125595715401369 7.083543088465935
Zn 7.104647071258058 4.290272820324898 7.397809251502888
Zn 12.317792519220436 11.439571783606041 9.271958278632217
Zn 8.38212083510614 9.89462480292703 11.027212512361764
Zn 10.891650684256893 11.54717557693327 6.876463840075404
Zn 12.653356759973345 8.228109262902038 7.868816090923714
Zn 11.704953074567985 9.271593156764547 5.659251238602273
Zn 3.6083276450629134 6.7192913592679915 6.835162666065573
Zn 6.393346434215376 7.2966857576349335 7.545184830450738
Zn 11.058633925479466 7.090821508131334 9.444740977544251
Zn 7.260706200514746 8.597065572680753 4.8976977778376405
