38
Energy = -24.4958876 eV
Zn 5.107459250976907 8.79616826083565 9.802760433980193
Zn 7.639725547236717 8.475956564751979 9.524708684186422
Zn 6.038434807134009 6.571121670810963 10.539986641614489
Zn 8.588316191564683 6.253114418367578 10.201720846338103
Zn 6.153169471420638 10.441931036244789 8.127778335698567
Zn 3.853522942911711 6.706276962300763 8.934430013155769
Zn 4.098418661990609 8.837452711962186 7.458800862389572
Zn 9.153062108773334 7.095311152767297 7.66008935826284
Zn 6.927697311306639 4.73913177714647 7.113323825390081
Zn 4.744676279020155 4.409708668473206 9.765713887648005
Zn 6.266598648417995 7.185628954127458 7.0900748380674985
Zn 8.34203365574998 9.529860368713075 7.300163880496616
Zn 7.203066471246219 4.169213482419739 10.441009065021301
Zn 9.156225856744756 4.544582711402323 8.463448330904532
Zn 6.238783979067187 9.653094945725758 5.641894278907686
Zn 1.736467245293214 4.737568635573257 5.580570089273627
Zn 3.2498741692732716 4.466117201464222 7.753003819452059
Zn 2.554686465215423 6.939161213909344 6.749491044472794
Zn 6.157225656801273 2.4877746043184294 8.808817224038393
Zn 2.208080965704923 6.766138746016816 4.197690425014418
Zn 8.351484725960404 8.038702667705227 5.282278106589633
Zn 5.9154070567352335 2.5337306595229587 6.289798549204386
Zn 4.71984599000986 5.588356619510566 5.707518791094711
Zn 9.523892871406137 5.094910405963324 5.993806426935029
Zn 4.188849088330668 8.238320813134818 4.944832361443975
Zn 3.5736674331598635 3.1189112062480033 5.562514692467948
Zn 3.001952817345598 4.423354978857407 3.2663534856694016
Zn 6.977316777373421 5.907480910903233 4.5563315661824575
Zn 10.206885816833807 6.828078524359247 4.195096921815125
Zn 7.885312875427617 3.3752803582089737 4.791961303433121
Zn 5.441046725799861 3.6294017413745103 3.8287353192606663
Zn 6.39138873592039 8.249467071469647 3.4621972082496923
Zn 4.164217828151921 6.850923533924491 2.6627218885669346
Zn 4.805135723733641 4.63489314229494 1.4893467277728254
Zn 9.47680364568892 4.629812818328356 3.277074410071725
Zn 6.27186088919895 6.6951859001743 1.263098732232374
Zn 7.293427904769126 4.390392747922808 2.069972042824133
Zn 8.510678128974671 7.089090043659516 2.324736310321349
