33
Energy = -20.21690484 eV
Zn 4.621297291944775 8.213582108528424 4.824997775569198
Zn 5.603583415716085 6.802196423792526 9.110829234498766
Zn 7.04700188242827 10.604399860166254 7.575709528411645
Zn 5.7409435223329925 7.210914365535366 2.6609959996386983
Zn 6.035382627422855 4.4341980210763525 12.191441317556066
Zn 3.6552993973324357 5.031778510677421 8.829991462369566
Zn 4.024727947872041 5.78371812916404 11.240104200493715
Zn 6.4999329245371245 6.057831087423967 6.587040060656091
Zn 3.8443995494351344 6.752412287335743 6.857821047542679
Zn 10.455112787441271 7.553139933566197 6.948262813755785
Zn 7.1848282070883664 4.717447189560755 9.825706975763593
Zn 9.127081289290073 9.522116987296476 3.97173667091751
Zn 5.784300492445175 3.825528872869959 7.811058957477102
Zn 7.661264208948351 8.096914637585616 8.077600216627129
Zn 7.849639606542346 3.3432836667338925 5.389328108685462
Zn 7.744595421187494 11.28468852171001 5.14053457468406
Zn 5.430166352603178 3.2742177735230333 4.938383150103851
Zn 7.464991398129589 5.660259421827445 4.096804387217606
Zn 6.487103789071252 9.574920900972616 3.4055071288547074
Zn 3.579590578109861 4.232502674971432 6.364721102008064
Zn 4.698279238670294 5.666915679872677 4.4424831858268945
Zn 5.3758008614670825 10.52382874728742 5.605990919740795
Zn 8.191963558362048 7.687036432732575 2.501609666834648
Zn 9.300796696477903 9.770207710379344 6.618328526533447
Zn 9.194055097139023 5.89891872864687 8.659928741213502
Zn 5.179891027047103 8.809327321914635 7.471812129455224
Zn 8.43098297602502 3.603971396878533 7.833268853218304
Zn 9.210623907915306 5.426567231278662 6.111429705761125
Zn 8.104751243910455 7.379861326319742 10.594618114563499
Zn 10.491864710206103 7.97944488806716 9.577830943426576
Zn 6.085936291194763 7.1165397943881805 12.067702371687458
Zn 7.368862530773019 8.065985938908979 5.512707410195233
Zn 9.881413863446394 7.15656532918553 4.423670137568227
