36
Energy = -21.43945027 eV
Zn 4.35958100257798 2.722012925159982 3.159787462775552
Zn 5.7555582358289055 2.7949675454184537 8.25602256287224
Zn 9.699458532830358 9.414055102577395 4.707862437652438
Zn 10.031576258929212 10.148500021954476 9.379755462194401
Zn 3.487212588118827 8.37564500905822 7.81701566955144
Zn 5.645524850436782 6.845521236910245 3.148007195418797
Zn 7.575551968126045 9.608984409872376 6.251049592385405
Zn 3.449709332813836 3.5500706476192954 7.415839963147316
Zn 4.955771241348479 4.819511038930983 9.766699445728516
Zn 7.251340527696504 5.43256940993743 4.575013248573055
Zn 8.241700078678178 6.753215394828816 9.569072405004794
Zn 11.08347247651459 6.644254394097019 6.813572077427181
Zn 2.6720797545045976 3.0432108792315713 4.964640325672342
Zn 3.219158436400987 7.782251360359435 3.443505428402809
Zn 3.458778957928105 9.538969720270572 5.512303434295963
Zn 7.680855456026723 9.088310150636753 8.854009418744802
Zn 7.661242892784184 3.9780515253804354 6.821079285836714
Zn 5.60078916639924 7.855659222574254 5.902697806486061
Zn 6.802666793422446 3.169385701857238 3.3020712076166556
Zn 4.170932562426315 5.395775608801881 4.613358758305723
Zn 7.424443115414885 4.262225527034134 9.534819331361138
Zn 5.632826263319532 7.319393225084104 9.067063834455755
Zn 7.8615295739731454 6.922978475123561 6.868510518000162
Zn 9.551396118756836 5.101729912138826 8.23130773028693
Zn 7.515830007613288 8.355048678558555 3.9066999988186066
Zn 5.460007581388307 3.1364858617839153 5.681828998251293
Zn 5.1936656069972615 9.514218989360176 3.705311894368747
Zn 2.3727851102671313 7.11076585758636 5.867994552032021
Zn 1.4199911510539394 4.834921348508695 6.222403619019173
Zn 9.910665213423108 4.558104065662202 5.712499841528458
Zn 5.563771823348894 5.600182980503528 6.980330813582768
Zn 3.0806984593570497 5.96555856542705 8.357450908077583
Zn 5.512500445307679 9.747172629433072 7.874255297108476
Zn 10.014751000634035 8.85177867875113 7.187100749555939
Zn 9.507243491964774 6.830714630070841 4.57427556801581
Zn 9.202855954037314 2.942997120406682 3.9115871185060973
