30
Energy = -18.22184205 eV
Zn 4.398970426849706 2.9945239293789485 2.618292933847863
Zn 6.91825659344869 2.8277089601317136 2.612425524691907
Zn 4.565224312782881 7.252610521547627 2.8629530373416094
Zn 7.102987814022012 7.40864858621748 3.119518487284061
Zn 3.1175390730430523 5.021835715772583 3.6362628458341324
Zn 5.54147373312188 1.3065645672215642 4.087696543236488
Zn 8.985479987084176 6.929477867290613 4.718073046402207
Zn 2.9676200998371303 7.311887786270402 4.804945116287968
Zn 3.5099743198325046 2.7633157157995982 5.094154736953384
Zn 8.418336294496891 4.717339994906117 3.6189412779099968
Zn 5.4577953156552255 9.269975107362809 4.119053287692767
Zn 5.8215302181884985 5.07018215867789 3.4901666536788563
Zn 7.8965534730524976 9.165006441075064 5.071749333106809
Zn 5.799783158241055 6.69520337506291 5.532913787755507
Zn 7.78368672771995 2.5512603590486784 5.05774369203667
Zn 3.5640450827374557 9.63309058326523 5.764132735764393
Zn 5.759508719207736 4.273859269183885 5.931805652915333
Zn 3.2483453776372713 5.203010734523294 6.254204559936135
Zn 7.919961843189596 7.409726749267867 7.111420662212995
Zn 1.3202940809103794 10.98715947955033 6.050359161176383
Zn 8.391082888482812 4.9754526845954015 6.226330318313494
Zn 5.947854427929429 9.059596557395597 6.768097614761875
Zn 3.8750130398312237 7.5331157587782185 7.287952728645744
Zn 5.56910271149588 1.7344499458187048 6.56380111890204
Zn 7.838549623147772 2.750200791301762 7.63574307286345
Zn 3.48787273186168 2.9578023389300028 7.725448639238221
Zn 4.519432056182674 5.2720152222019925 8.529124478072953
Zn 7.073147476700002 5.139860539856851 8.425516384886159
Zn 5.942904446166682 7.3887179533519 8.79798750293473
Zn 5.684745448759226 2.8234718078311194 8.91025656693085
