39
Energy = -25.40453508 eV
Zn 6.635286042336258 4.06574703374428 9.9951043490123
Zn 4.656796926296838 4.127513059851098 8.20991402908606
Zn 3.0362944316093445 4.403942888743847 6.259645983183233
Zn 6.274628212774076 5.622232646811355 11.971402646041005
Zn 4.392499287222515 5.868139451868684 10.348040402486486
Zn 7.009985217681876 3.1954705927159632 7.609786965738332
Zn 3.059389388009211 6.267875328063353 8.219610942737773
Zn 5.544288564365137 3.6471610590861427 5.570915640570961
Zn 9.002440249887856 4.527990021862306 8.9554687514141
Zn 8.194850708655368 2.957651425601451 5.211440201343188
Zn 9.534822893119172 2.586336994558469 7.3572245668142715
Zn 2.18732265767563 5.516611437531852 4.115911735163904
Zn 8.128553205963094 6.485354044372625 10.325762748457723
Zn 6.492040154869988 6.119268741013451 8.187593039556761
Zn 4.978576625383352 6.275118925871917 6.140331980162194
Zn 4.644599217803363 5.186238028393045 3.5956189937757346
Zn 1.6971672680194314 6.838485707845189 6.159661131854813
Zn 6.1171750255553405 8.005029885575038 11.19132763243933
Zn 4.677453571737053 8.224864891149837 9.126931891307327
Zn 6.881859842870537 3.82175768735253 3.1978325661546783
Zn 6.12334414789621 5.7674443777365445 1.5439851871788988
Zn 7.214660403437089 5.859400505873169 5.019736535800565
Zn 9.679180310591121 4.98428499425443 6.3789353596466505
Zn 8.504168073652112 5.011915445080029 1.472824092391796
Zn 3.648688330332888 8.50215435849205 6.790281188252905
Zn 3.5574858500112017 7.722094834687575 4.311151776892921
Zn 9.134989885467322 7.002693740421766 7.863323025988722
Zn 5.908409593212817 7.702931040627826 3.1690025020082397
Zn 7.485156777892211 8.730887411309709 9.089690943873658
Zn 6.92735990096034 7.941291346015163 6.476103906939454
Zn 8.470036893027949 7.254766355685001 2.5597180956638454
Zn 9.443240276624122 4.829355919569905 3.8316829355692783
Zn 5.595707341904082 10.066223887426334 7.491590573534568
Zn 5.3736674448249 9.486347185990642 4.933579803288332
Zn 9.544903162332895 7.235135263184591 5.107571538582282
Zn 7.972945104647633 9.171492982476213 4.163167760050114
Zn 9.235179366819803 9.330214891045015 6.532029788210684
Zn 7.97658825555239 10.97388753422614 8.014774492366959
Zn 7.3082354139091406 11.147069914190377 5.619423039762107
