31
Energy = -19.01502342 eV
Zn 2.5151698972624077 6.40692655618272 8.362941641795233
Zn 4.086505576310216 6.622064763030609 10.301122081277917
Zn 3.4633768370316846 5.026465293970524 6.3305764741277155
Zn 3.3985637612827766 6.1917860647610565 3.9656459448647987
Zn 4.110416338787694 4.312088326989709 8.923197332556406
Zn 3.7197586685251407 8.998570367296683 4.081218639601442
Zn 5.024362686259212 3.8536486459800527 4.587324413133023
Zn 4.365468068078917 8.49226798263665 8.498740387316824
Zn 3.3037097296330122 7.60724079683907 6.214993080831605
Zn 5.692168349695843 6.273880274443798 7.47537000542878
Zn 4.654559050121456 7.622569416050169 2.2059743536370937
Zn 6.4116146430643415 7.719833524898052 10.044933185312702
Zn 6.24099133553261 5.194588809744117 9.987574701271766
Zn 5.064136167468324 3.006490494527211 6.977584311723902
Zn 7.070395415912938 4.472560768556047 6.077312944856827
Zn 5.90359725687667 6.707145789468289 5.049936143600731
Zn 5.317198123826819 9.24404240030813 6.141003216189221
Zn 5.399954756571343 5.162606001847852 2.5094195612736105
Zn 7.191567508969702 3.4572684271591916 8.443141015753243
Zn 7.180856429893303 8.789422442391121 7.907286722366111
Zn 8.434328305095828 6.312507582755425 9.003514724403413
Zn 7.1538744100339215 6.990573397192847 2.5671743499192803
Zn 8.164926160388658 6.842144220035382 6.484522426200309
Zn 6.3426386811622 9.171000217572237 3.5689540062841036
Zn 9.120034792380043 2.787120247952011 5.26191540639554
Zn 9.51697053767139 4.2082209844163705 7.541737026798664
Zn 7.932287192452329 9.269842664880123 5.523331225985891
Zn 7.8228554674794815 4.665338417766972 3.609953882679711
Zn 10.77607429270841 6.513620548929597 7.483874604824861
Zn 10.097253481710865 5.208006398136496 5.20392598518179
Zn 9.083929453737047 7.359377399896203 4.1299435829256765
