39
Energy = -25.62928501 eV
Zn 7.7704457890712195 8.102932408333805 9.224850736260489
Zn 6.2995010089350405 7.404932848865471 11.946078204986849
Zn 8.074638041007754 6.03439282540676 10.7228513893227
Zn 9.33778115056482 5.553221978668265 8.604527960713225
Zn 9.509726210870292 7.936605750463272 7.383739247805067
Zn 9.467830718622432 5.617445622525476 5.901211927778628
Zn 5.443057943489903 8.476094709911553 8.11932354998147
Zn 5.14759355866797 9.239944736223157 10.740733511007134
Zn 9.309675317862965 8.121463310094294 4.8918723376798825
Zn 3.386136029441236 6.76015061480761 8.108548644603207
Zn 7.089164209498016 4.176241884221052 9.108919146498666
Zn 5.571124008090037 6.3138281666550515 9.563852344907216
Zn 7.043913347534384 8.836489242299843 6.158342859730096
Zn 8.506666352111903 3.656822327411858 4.313787153932944
Zn 8.609562853921442 3.4886425230245854 7.128631481754358
Zn 9.342733958865164 8.239188284450995 2.3712481839699127
Zn 7.08768803520812 6.270374342768521 7.279536035445293
Zn 4.796818113712074 10.86239782527745 6.378531134555025
Zn 4.558116459163179 10.86058218135905 8.869825100387027
Zn 4.673237142432632 4.507978140196144 7.895268278464421
Zn 6.171062512442374 2.316130401328405 7.599677157107694
Zn 7.173060370097595 6.515694074124563 4.665435946203341
Zn 3.176572353087106 8.83421540244624 6.584834844082069
Zn 7.0335862361980706 8.912259416571912 3.440575319704944
Zn 7.749724762895454 1.5723406101011639 5.596085039143989
Zn 9.233310978728804 5.76689450557887 3.100081469196062
Zn 6.300212244003496 4.370693743298193 5.776214332191815
Zn 4.97353551344177 6.741269929142916 5.923467776725556
Zn 4.711214629625139 9.0877854377844 4.478009329724665
Zn 7.375964196231795 7.007011348428706 1.423926086558869
Zn 1.3909842579330713 7.1371540160736195 6.154798672719577
Zn 2.804776760799056 5.046581472318906 6.019537216324418
Zn 6.7619488039296165 4.795012649558124 2.5972362072779873
Zn 4.05423092246583 2.8986887650283792 5.773601580920025
Zn 5.401345252229942 0.832825782701918 5.497483503663394
Zn 5.17092390714443 7.1016182359681626 2.8301023354997237
Zn 6.03569262761015 2.6119861814513587 3.714839180434248
Zn 4.391949903852725 4.801467257510974 3.840635251528929
Zn 2.949573686454477 7.0868584400979575 4.151380484740208
