30
Energy = -17.41880365 eV
Zn 4.130468464291254 6.4445102639360075 0.9716407315095213
Zn 7.146974401279609 5.627679892818332 1.9198240567007363
Zn 4.265370981155179 3.964000522787247 1.672799880634154
Zn 5.917242487463963 7.922077508686675 1.8901392423674768
Zn 2.5427392657577257 5.476036107962122 2.8578522625933913
Zn 6.382410250089582 3.309242126032081 2.86847709556518
Zn 3.4135805235877905 7.842870524715897 3.5321940165506196
Zn 5.177994066079494 5.774204003549053 3.6387747054342445
Zn 7.497563534216311 7.365285633882636 3.9562042830620756
Zn 8.131417150110053 4.77517699283382 4.27491645632753
Zn 5.530084166862931 9.20967673923763 4.039785424388165
Zn 3.6591589876030044 3.5082736667413834 4.2406477525682575
Zn 2.8899458893292547 5.90704180539913 5.391036768569282
Zn 6.009713350200824 3.6384799345067647 5.460537557654474
Zn 5.758743906411123 6.222500110750313 5.911427304362991
Zn 4.036295746310415 8.224713609289863 6.00857687678331
Zn 8.580395468718146 6.458330165804235 6.2157683037888845
Zn 6.855437504980909 8.642834962042476 6.207467186207838
Zn 8.297297454978256 3.8307185690582117 6.723781373273658
Zn 3.767520518281878 3.8834160765445427 6.820345624611394
Zn 5.999903513106721 2.7002369446080907 7.9182902850377515
Zn 3.733849173858853 6.370127255373485 7.871727721154108
Zn 6.488636567738027 5.376146778975597 8.055204821120077
Zn 5.277774201713871 8.46913104383273 8.334778851926712
Zn 9.080697594030466 5.519006052010478 8.669919253891518
Zn 7.72843035200788 7.7247169643131635 8.402941094569922
Zn 7.97825735704251 3.227301522704242 9.401828542732995
Zn 4.469038680617497 4.247121479710356 9.324089285924842
Zn 5.332973795660875 6.597283563742609 10.089888515255012
Zn 7.440328738222925 5.2621032698585 10.84937881714189
