39
Energy = -25.17460631 eV
Zn 8.155226682718174 11.378276997534133 8.735120397211091
Zn 9.866446117968861 9.873739073109412 7.624426694404327
Zn 7.349644357926599 10.209733284498274 6.595505113993858
Zn 3.7700466504046073 10.555452543636688 9.099451488549429
Zn 6.210227815046883 9.664495396814408 9.21127711016331
Zn 4.918581442143941 9.506482808988313 6.881259957341782
Zn 8.575128429521083 9.332139749885387 10.207754135006008
Zn 9.000721473292339 8.549168755633573 5.457913564576304
Zn 6.444010297784056 7.928536332505184 5.437064463595194
Zn 10.743663609353689 8.248614955303063 9.404405583376633
Zn 2.55474295769006 8.593154449019723 8.122481439906123
Zn 8.043495455134291 7.821720903576401 7.950458143471919
Zn 4.2370385628917955 8.567841725267131 10.661003293477641
Zn 2.9179738157576223 8.662099524811246 5.546757291620695
Zn 6.50836823005932 7.332616316314515 10.347909166281589
Zn 11.211516005905919 7.766066165638816 6.933522463350094
Zn 9.063853312980525 6.914903243774818 10.843663820107002
Zn 4.444748370492323 8.920338201255804 3.4860848805661964
Zn 11.036189200247788 7.225876113981781 4.474529295079518
Zn 5.272627308511531 5.01528087757015 10.144710752217385
Zn 6.699280383272035 8.333492436522276 2.5936755919705052
Zn 3.2919106898700563 6.5406333275997 9.567717048724457
Zn 5.662340862787838 6.922777229766371 7.757523325263646
Zn 9.878526682837407 5.978886466476364 8.41305216337447
Zn 11.041004474887622 5.229564060392186 6.260457009185032
Zn 8.180030004110176 6.026907641349033 6.123305763848519
Zn 10.548028730218725 5.00745825788074 3.5566108171218445
Zn 3.9067973182448497 6.56969617128819 4.497128932764389
Zn 8.653051599838296 6.963974333030886 3.3614040329883283
Zn 7.762927093469441 5.145058607703612 9.556754733845569
Zn 3.1615320897470656 6.363830224281328 6.968077190398058
Zn 3.7566437974648834 4.213900664580999 8.316319211957483
Zn 8.89756098777023 3.66165480219742 7.657816030330809
Zn 6.299756619857882 3.6250648363216214 8.05804636443041
Zn 9.75138993780461 3.2797896672068148 5.329467702038151
Zn 6.178731668284707 5.699358241777873 3.8198070139550673
Zn 8.177044465935673 4.334886549763856 3.512799465260249
Zn 4.935213577069021 4.740720684676581 6.031850368243178
Zn 7.10121788856571 3.503047345933486 5.660127147872206
