33
Energy = -17.95020089 eV
Zn 8.202523796331372 9.654593739627034 8.272789699748937
Zn 7.895303675629163 9.39528122354243 5.787232820895661
Zn 9.507120464731495 3.948257348144915 6.274431082916543
Zn 7.181751121408155 1.8573362452126903 5.342357976622421
Zn 5.060491175101618 5.375284863595427 8.114007498075946
Zn 1.7560053190213576 7.755415526099993 5.120267294855628
Zn 5.197914970533897 7.066070341051972 11.318980346102075
Zn 2.2139194073139414 6.7063369178017425 7.382546642907344
Zn 4.178696594439736 7.772579765979467 13.702659860157198
Zn 9.284830794382561 2.8058429382466263 3.9626294481783964
Zn 4.0617654581479625 5.798349415241119 5.774658114277455
Zn 8.685950346197112 5.104013554538044 8.358834825491563
Zn 5.899552399650957 10.06808453471928 7.321206764174415
Zn 5.781764006196405 5.848206958066647 3.7290153084215043
Zn 4.407346853173551 10.865180155415748 5.4569149908502785
Zn 8.520932245657702 5.430289891875044 4.414022898535603
Zn 3.589877521614044 8.837217596210337 7.061730232326969
Zn 3.4970222134515994 6.928968781525803 3.3925080165274464
Zn 6.14452198196459 4.283995849072741 6.020091799045383
Zn 6.152373678288033 7.870727182600477 8.686856281809797
Zn 7.661199204424896 2.6531622983787377 7.649010978568413
Zn 3.717549080078321 7.311650609538298 9.30343235472168
Zn 3.2190476442603453 9.411818775128157 3.829406210118557
Zn 7.431714543263497 6.646985958435712 6.585559906692353
Zn 8.566769876986339 6.818570403053812 1.7592422269293184
Zn 5.454382903810021 8.111850920357044 5.227749349764262
Zn 10.59523694417502 2.5445582481095927 1.7633777893681921
Zn 6.832395639575534 3.5858583692419783 3.4704182174776284
Zn 7.310571399233221 6.012011884114608 10.556389115697737
Zn 8.938229570699225 7.493751524725772 9.148561969333624
Zn 6.492499243195294 3.8427084150634476 9.507157052727162
Zn 8.638879623561158 4.287985850516621 1.6210574115137406
Zn 7.644804572886768 7.779202959651436 3.936558645411247
