36
Energy = -14.84190713 eV
Zn 3.1343899457143847 9.086070184928255 10.165796282546832
Zn 1.8999969167004593 7.017391064530026 9.323862683705968
Zn 3.3192165593591154 2.8579501227925586 7.018462405255617
Zn 4.92835865593123 1.8089593537913287 5.387922887232979
Zn 9.409894162641313 1.4502496291621858 6.601752859359477
Zn 12.494620321463243 3.948922920609066 8.34499188792733
Zn 11.854739376838182 8.41480556099041 10.062500347609403
Zn 10.142721431986798 10.18238211144907 10.58663371809786
Zn 5.266832654794335 10.41357431532761 9.788139066486744
Zn 2.491515903937551 8.866938208837434 7.638562094620423
Zn 2.362178167980049 2.276364518761847 4.657368737721635
Zn 7.428780319808127 2.2631179289845695 5.0681546864285645
Zn 9.955279756037438 2.604813688154021 4.3246135322647286
Zn 11.501439359227795 3.0000917400066345 6.252161240498298
Zn 12.213662749879992 5.49602756287766 6.198008369241729
Zn 10.72577468706129 9.680709825936718 8.060263536243928
Zn 9.799980198274268 12.107502902156568 8.942880842124572
Zn 2.999985855559087 11.27164657901264 8.70740394245286
Zn 7.75751667512695 10.578904887775547 9.819773736478835
Zn 1.263331583185848 6.641254476108392 4.205603675805176
Zn 5.1543805400469624 11.658458577968691 7.252278622056772
Zn 1.8696538585625788 4.442772945041433 3.10968923622933
Zn 2.561090266789616 4.88495248274538 5.592575527070581
Zn 3.693695391325093 2.8485404941312673 2.503114726218188
Zn 6.022254466099802 2.1166459263648134 2.862091956389219
Zn 9.793223572752954 11.488145948737568 6.40063929175526
Zn 7.5848400676284005 12.06105477710265 7.491787365449117
Zn 8.443782012921334 1.2470573342099953 2.7615630442059604
Zn 3.0572045955934453 10.854308643479506 6.100237006543298
Zn 11.341757375244768 9.687265944695104 5.461205928536538
Zn 1.6591283199418547 8.921246768475205 5.1754397722440935
Zn 0.9358749947663125 6.776685114806893 6.805542969704332
Zn 2.1571803654254817 4.798594545966163 8.19982920261955
Zn 12.854793040838802 7.670379561025676 5.061108712741695
Zn 12.633079383057217 7.744949558003771 7.612797852416298
Zn 12.49006473634013 6.033156964407374 9.65832493428599
