30
Energy = -19.25943676 eV
Zn 9.864767872157037 5.489627181647933 7.1900742404087135
Zn 10.073407154704661 7.611967649833102 8.797914115215423
Zn 9.045172179803826 5.902391810615297 4.767870274654092
Zn 9.801850347289637 7.954508949116956 6.258015134313704
Zn 8.788506086053893 8.347136624313054 3.9726336144304675
Zn 8.614394726364507 3.655269589995103 5.9945883356586505
Zn 9.0861098177863 5.4903857692595395 9.695635671210526
Zn 7.707660486250065 3.800968556412671 8.356069120480539
Zn 7.676034952856913 7.814609898429025 10.001224932414528
Zn 7.319800904802539 6.768109463790608 7.602626294071878
Zn 8.541401354987595 9.56173661799274 8.249335603266887
Zn 6.21603843608748 8.940609666685194 4.15874695900621
Zn 7.953945167855282 9.842417661464014 5.830660286809009
Zn 7.1487796703932345 6.684325486943696 3.081815932318896
Zn 6.092909823276692 3.4001805695030534 6.37510209856067
Zn 6.650857199929535 5.432756258446614 10.39893818509949
Zn 7.0965485650065245 4.266535615061666 4.078791097370075
Zn 6.071498106799936 9.563008811171295 8.883080090308953
Zn 6.114662565305714 6.377696555987646 5.632795012629775
Zn 5.393762902791825 4.986350049197709 2.0703956011400377
Zn 5.546335904204627 10.060260605688987 6.454619116657076
Zn 4.503786779165709 6.985197520200006 3.5469987422741314
Zn 5.10323394995822 7.370023446996037 9.833170184727402
Zn 5.1992884188205455 4.130360310562606 8.802024149057724
Zn 3.639195358322591 4.116963751879094 6.8250800967117735
Zn 4.01234148729779 8.38334272281054 7.680774666016394
Zn 4.503481752467293 4.492799746156549 4.506661844252104
Zn 3.767864598356526 8.842107751605063 5.147011237786741
Zn 3.4812006417503767 6.035576252134988 8.439544994778535
Zn 3.1812264161174686 6.490554104296364 5.89792733987559
