35
Energy = -22.27223561 eV
Zn 3.1997377299692027 6.074551682517639 1.6962755514084633
Zn 7.714011075098368 5.919099242822622 2.7200005310093167
Zn 5.3166367421883 4.769659497830105 2.34133224551421
Zn 7.255405877144066 3.220627350454351 2.677520689074051
Zn 5.6323663070735925 7.3917012218873825 2.0553125305297875
Zn 3.064908310899092 4.426373685232234 3.9449551257888227
Zn 1.6337847933601046 6.7000432281925715 3.5993271125751862
Zn 9.279162757302252 4.1659687544296755 3.952488671002876
Zn 2.9763868218440894 8.516820528939963 2.369774837834107
Zn 7.065334049454508 7.91311432331833 4.348938039201639
Zn 9.104065283345172 6.458217258764726 5.041691919631593
Zn 4.8323108045784045 9.2925993617082 3.8290503137338887
Zn 5.160238240691575 2.926740997839412 4.352321902347828
Zn 4.556270942164974 6.550484669381718 4.38932243564698
Zn 6.592142076506467 5.148917356079571 5.011927025021637
Zn 7.750647168770983 2.452371085446521 5.097715679923444
Zn 2.096446887895182 6.006753074742655 6.027758367293751
Zn 9.183743899081986 4.079196072918076 6.590692907991452
Zn 7.968399432278938 8.137867645749319 6.769051025388961
Zn 2.8108113778025112 8.45132397646405 5.346043487270542
Zn 5.9584008834097855 2.716924000539603 6.863118702757975
Zn 4.902749234242471 5.8930186867959975 6.769281576192357
Zn 5.433333495476888 8.570581866237864 6.267449628512625
Zn 3.5418826739469096 3.6227174167480345 6.377344921277823
Zn 7.248239248491453 5.5989877076306716 7.364137883101417
Zn 2.555684496028612 5.172492505415411 8.3516312217505
Zn 10.099870832321127 6.474998339688034 7.417870229437076
Zn 3.378678751504535 7.762854997314256 7.792752686130215
Zn 6.075775771116561 7.950786336973793 8.70809528751067
Zn 7.639586156028454 3.308108035943471 8.838344276401104
Zn 8.5904284994775 7.5037444365841175 9.31810148856984
Zn 4.923578535806052 3.9645834218750897 8.814230321525267
Zn 4.370165248364633 6.3001796639668965 9.725763940653238
Zn 6.840807530179785 5.633147538983751 9.976876646424676
Zn 9.356892400318989 5.033328364748051 9.362385125731496
