30
Energy = -19.28718251 eV
Zn 9.011898397760048 7.667804478890351 6.273349373412026
Zn 7.04415512383095 9.071149603188148 7.221057310773866
Zn 5.218165701298915 9.198241712203076 5.336202335413097
Zn 3.862414267692423 7.806099995690188 3.7371367978738634
Zn 6.277474543808033 7.83126821176828 2.9350578098288165
Zn 4.438648786937087 5.380293953585552 2.917004485195203
Zn 9.533130954019683 5.658638819891575 7.845349696975449
Zn 6.0660409603285235 6.078223857619391 4.896509070185136
Zn 3.167678079736272 7.803309666101438 6.250732476991365
Zn 8.010239105213351 3.089359811260494 4.6580995790097575
Zn 3.7703287636514355 3.7617820311550143 5.287091431584633
Zn 6.009403724694235 6.017030597820852 7.225157543246731
Zn 5.667565669390755 3.293565907456275 3.6956139463149817
Zn 3.963216130026834 3.1859719141807146 7.815014224478367
Zn 7.47795722017492 5.0208788703083815 2.92669203005099
Zn 6.083179229489189 6.096787371425613 0.8885154973851083
Zn 8.671012565592536 7.114801578089839 3.7497110843764636
Zn 4.6182849585618335 9.23514377356679 7.8477624347030845
Zn 4.714498832221594 5.145877607732562 9.430293883358743
Zn 8.415229783411501 7.6978198884982465 8.830155748596932
Zn 2.9068666656290967 5.3839331095774225 7.174555869162034
Zn 9.19262060422183 5.225334138019975 5.327440464022562
Zn 5.969364108367614 2.690447534774695 6.231718042573986
Zn 7.448634908296756 5.340614526881928 9.427426545008457
Zn 8.177312025852597 3.647156630525737 7.193366739477992
Zn 7.665617819098406 9.246207045242375 4.710316708336916
Zn 6.284476208850747 3.162305215661926 8.807328502432382
Zn 3.4159481528520557 7.2405400759762495 8.814506518278593
Zn 5.943158478872689 7.588334832700697 9.432257750769683
Zn 2.512494429348901 5.858093439437743 4.651592299414053
