35
Energy = -21.97280457 eV
Zn 7.316142142784759 7.422963814272581 10.968013033644857
Zn 8.845285974072135 6.375649679569791 8.93549366112301
Zn 6.485443076471109 5.251584541072507 10.077485092799495
Zn 8.66208851640592 9.036926102596077 9.649121118911188
Zn 4.731156409028466 7.113740927491763 10.583169257697437
Zn 10.092458901608643 4.16746444220043 8.130319434822951
Zn 7.923478812487795 3.427549728506191 9.157720918808513
Zn 3.567309694138483 5.380681183334635 9.170044437028805
Zn 5.353681028594096 3.4501599425733303 8.534722785287666
Zn 5.972795205342082 9.163891438842413 9.516052245572432
Zn 8.91980179663233 8.454149510177801 7.196816666912583
Zn 6.458207362007584 7.078345375992532 7.9662769490858825
Zn 7.544565219274096 10.852862177784177 8.34026645831654
Zn 9.436521081726102 3.1715436073802583 5.873146563863105
Zn 7.070897414471149 2.3565267123783156 7.008757611863209
Zn 3.783096413104296 7.890556716207991 8.279400902216048
Zn 9.52264185663995 6.006628203485352 6.3332463482169725
Zn 7.108282105340695 11.706188004955473 6.102066233342253
Zn 8.702825069707442 9.78938188671986 4.994946505909689
Zn 8.884358719819783 7.40766166242783 4.143140076185681
Zn 6.845485979906725 7.9288796831290265 5.624253002083857
Zn 5.44619369639402 9.633344709918171 6.983819894150674
Zn 6.94127456903043 5.262916599921538 6.252036004353745
Zn 7.301479995685924 2.6914007872874053 4.553692477021003
Zn 3.092697793893254 3.676613075325166 7.212227607204523
Zn 3.423885293400526 8.189749182200876 5.770114951225214
Zn 4.381987866331443 5.9270433907956175 6.513739662553605
Zn 5.036341461335813 3.3650244806527887 5.611987376015857
Zn 6.933978467754701 11.1391673897909 3.6890071884056663
Zn 8.59683919229735 4.882551372379002 4.039852921671859
Zn 5.10154104041869 9.486831303698196 4.292963776181734
Zn 7.19118945860947 8.886768071094666 2.6980562671794086
Zn 4.993114659458011 6.853194009246755 4.017420243259865
Zn 5.990102094357228 4.51657003759173 3.4673884797228296
Zn 7.051168839745546 6.484304178978789 2.353111404900831
