33
Energy = -18.61661724 eV
Zn 6.967262272708178 3.4192819246733537 2.8132559674660915
Zn 7.8794583215819705 6.5935086077826845 10.771061785567825
Zn 3.9626385414690506 7.636492287074874 7.490574133298644
Zn 5.3375961830743215 3.44775061570863 6.254316330301029
Zn 10.418499057511342 5.991673986808904 7.380339370788878
Zn 10.300431475808665 6.877724129071429 4.766759120669549
Zn 4.1027595051225925 5.761084326973814 5.796493653337294
Zn 5.038736541480147 2.322271435859933 3.9865560907461477
Zn 10.06736445116643 8.549023047520077 6.87609650977028
Zn 7.678159107682327 4.71324119184063 6.230641424482864
Zn 7.7062778933567175 7.403862050615687 4.202016470920818
Zn 5.481905214400194 8.066414031464594 5.420511083387505
Zn 4.079682170077626 8.79688667727356 9.912020099509512
Zn 8.617909349499389 5.03890882816543 3.727074522122836
Zn 3.7242451023181187 12.13904827824864 7.341410129816483
Zn 9.578902338290762 9.337016983699423 4.547513251188613
Zn 8.441883906189751 5.010850947878127 8.874901734131829
Zn 5.985285461120212 5.515591541566787 4.1436249454288285
Zn 3.074567273575942 11.088518868608734 9.564575131230095
Zn 5.379600183631327 10.935808217571836 5.737360713022475
Zn 5.313078834103273 9.732295527887645 7.887968445984663
Zn 7.399851404700975 1.9890963589403503 6.734844091669587
Zn 7.488343782456336 7.2816813876973105 7.000617646171015
Zn 4.235689887823508 6.235022358682294 9.682760016930379
Zn 7.122713580380309 9.910350984922635 4.357653982260681
Zn 10.409195371776933 4.417352054442647 5.39950866584824
Zn 6.989668557975017 8.667677934683827 9.416607631552196
Zn 5.8942938610322315 5.4266602351448086 7.96127366780787
Zn 9.42315701545932 7.671628282590309 9.099427236269575
Zn 7.855052386420794 9.935450169755436 7.000496575479258
Zn 5.600408074097765 7.32415890519029 11.490887196743799
Zn 2.9535492818246794 3.675371458299119 4.740201049029662
Zn 9.582644208086274 3.1791069595579384 7.48146192326734
