38
Energy = -24.28547875 eV
Zn 2.3754483976341816 4.943941293172762 2.8495993255991543
Zn 6.862697598803894 4.424923811149763 2.580354046130837
Zn 4.692994377522672 6.140365647754342 2.218811118398552
Zn 4.316967063831654 3.4541233978290884 2.4962766153933633
Zn 7.118566341410097 7.1454780510113975 2.637709618086134
Zn 8.92317400203546 5.558493447445195 3.6130690844411317
Zn 6.025138934806801 2.3830595184717343 4.191555469218896
Zn 8.828102282078412 8.098602148284412 4.4538782325512
Zn 3.505527271834242 7.0925908594457905 4.417614126181385
Zn 5.066554178020536 8.700108021673548 3.222229627977496
Zn 1.3198127384128846 5.759353818566774 4.994663332685532
Zn 8.589043124630077 3.0038165211736554 3.9566273669261434
Zn 7.279784224750901 9.851042846689236 3.218918658799519
Zn 7.448475789763132 4.82681788457171 5.6271718978187595
Zn 9.787975479481895 6.190120381226654 5.955510699770662
Zn 3.128277489189651 3.9339288042720106 5.4497842280728666
Zn 5.24175023395057 5.0501413441692815 4.560604907733034
Zn 7.298593580133421 10.112604724462958 5.705786170181444
Zn 4.682368951357712 9.04324533783742 5.8885479468855815
Zn 6.474936903797925 7.255055043721142 5.29147439842479
Zn 9.775609714182087 3.696155973193245 6.495929476901804
Zn 2.3149294777869067 7.593103871656534 6.6847798682722654
Zn 7.816967161144615 2.002427031092401 6.149583159375296
Zn 4.5074441638390335 6.1194638440837785 6.769182731918513
Zn 1.4195113124520622 5.347841826681762 7.4754403815594
Zn 5.527170167435414 3.3309766417976774 6.730669548327062
Zn 8.818826582686235 8.333904518119603 7.062413115592225
Zn 6.899134321011764 6.280175934935284 7.580733332183112
Zn 6.416544849059106 8.906097309324672 7.86758004999467
Zn 3.9923577491495177 8.388403167972958 8.381590366849546
Zn 9.538572728154119 5.653414723342275 8.43577670443804
Zn 7.690713855565408 3.631830335257917 8.232356886753411
Zn 3.339930987784448 3.859118101656821 8.01361218250283
Zn 3.2225503494420025 6.155929493516115 9.282120705649607
Zn 5.448012469825158 4.670413607897112 9.178338661478406
Zn 8.30553346819706 7.790035474072957 9.564047624507824
Zn 5.653269513393835 7.1609498804710086 9.908445998395944
Zn 7.6974326804764095 5.4626458770316235 10.20791284905503
