33
Energy = -21.01274644 eV
Zn 5.699166921308332 4.753057713409394 9.923520208492775
Zn 4.72781264684481 7.0836513921379645 2.7754800310565435
Zn 5.198156166268763 8.723660067865143 7.371942788285925
Zn 6.11834605315615 2.79670836545179 8.339590283898122
Zn 3.2520409753021187 5.860751338214568 4.6298399644544945
Zn 3.7776642106098617 2.4133515254790816 7.194798609601605
Zn 2.5704021854152375 4.6827439010730085 6.858677569221503
Zn 3.022853599548078 7.271569575660429 6.692218885150794
Zn 2.6498678046729487 9.433271002720668 8.173281230403974
Zn 3.5827923096804284 3.1689078359373632 4.740447845634751
Zn 7.811309856381398 4.106668418463926 2.263319840136586
Zn 7.807053823366882 8.791421350896764 6.857872259760472
Zn 5.708012082549569 4.777241402788461 4.364227526868641
Zn 5.745548797883157 2.5064720322640373 3.0239340838698134
Zn 7.958600338338802 4.696972620349522 8.765402220360537
Zn 6.213640085185847 6.8724894038210165 5.559056156067189
Zn 3.389219141657838 2.9611817972374217 2.1915847994753537
Zn 8.797060453594087 6.3320598669665715 6.843416236030821
Zn 5.430331944287776 4.766214169044386 1.6142038451426817
Zn 6.646821925895661 6.877177538857966 8.342935075112866
Zn 8.616742046575624 7.83728841046196 4.656702927234183
Zn 2.9142911726575402 5.377433326015837 2.096903319471076
Zn 6.482273982929645 8.890119661134355 3.445235779931511
Zn 7.919906848686589 3.8738057115356916 6.381164045997947
Zn 6.285591472558143 10.288082883771661 5.493142879429021
Zn 7.945465174001382 2.5352650207300744 4.284997636628311
Zn 5.884929604606767 2.189451162956627 5.75630087515091
Zn 8.831424453054996 5.192373064987316 4.370001633785749
Zn 7.239644511356609 6.574609836409968 2.7676324899582223
Zn 4.155870706766042 6.443416228416333 8.804786986972026
Zn 4.265925462172003 8.578298765419133 4.830068387630011
Zn 5.360626139010413 4.905762912233039 6.852209217630929
Zn 3.448680590592562 3.8965951842052147 9.193177848071349
