34
Energy = -21.95850657 eV
Zn 4.947482495766369 7.0247255292750905 3.269446602325502
Zn 3.329499891735048 5.322246273542112 4.156174796770797
Zn 3.1077316153171353 8.165831441473554 4.9351796481851355
Zn 7.179697514585087 8.266268181452904 3.4215810577236883
Zn 9.52634702412296 7.15702942025479 3.077886816930847
Zn 5.426617607169671 6.775251548367168 5.866389954540694
Zn 5.333185148175321 4.074008515669383 5.079945317990042
Zn 9.412795083194714 9.488126238102861 4.08834606568602
Zn 2.323922569622644 6.228520528008723 6.299904338420448
Zn 7.213486346708811 5.652825382536259 3.6929639047659846
Zn 2.6550685071290467 3.6320566926217075 6.024212982620541
Zn 4.316903164220316 5.320551322043747 7.697947494878727
Zn 7.283314870470227 10.219794052898447 5.2691023884261705
Zn 5.064699362058644 9.496380989431879 4.116123552310128
Zn 3.4085610914408124 7.9045409093084205 7.870579069198313
Zn 10.577995274281628 7.521731261880649 5.677661946589671
Zn 7.862871061668237 7.411695045949323 5.923357760762804
Zn 3.603652011768409 2.6441271989724457 8.052782263306566
Zn 9.796633178652025 5.271135239789754 4.62563702543286
Zn 5.217175521254653 6.355573433792286 9.882466213620248
Zn 9.725720591603393 9.86124442676141 6.514554482799617
Zn 6.23310717950005 2.8330271256338464 7.281149076006831
Zn 5.1908371654375385 9.45712305887527 6.65961354419915
Zn 7.813488689618086 4.186605474091569 5.797801741585938
Zn 7.5915521692824 9.385419581958615 7.916736143643018
Zn 6.910592637028353 6.019460815429534 7.775093522269241
Zn 5.414942455262577 8.74549247445236 9.109738186245803
Zn 5.552835585216763 3.796542773007538 9.516455424211625
Zn 9.6104827329612 5.499042747811485 7.196258972915275
Zn 8.138560761268181 3.8357409884634732 8.681332579462252
Zn 9.745508037375254 7.888022184166492 8.183553701892935
Zn 7.682142112268588 7.638432513112033 9.877677775966639
Zn 7.3238216213755125 5.152378486681421 10.836329955415131
Zn 9.477851802828548 5.809306409096355 9.702542797315338
