36
Energy = -22.00137747 eV
Zn 4.278080525218434 5.407600963727 4.197149935167299
Zn 9.641429037195381 6.348561303495889 4.295956061225424
Zn 5.583714412741844 11.844670949350451 8.823690060067683
Zn 11.23514294708586 7.89256245856004 5.767558924498134
Zn 2.7983627929274273 6.880374262438799 5.779321282516031
Zn 5.813596647468607 7.53774351864194 9.76562532930106
Zn 10.367141918969518 3.1498651061939644 5.319667758648169
Zn 9.741186423159311 9.576721618648497 7.04077590948535
Zn 4.636569413951387 4.9563224794585174 9.281174347590202
Zn 9.905101892726282 7.038693949823514 7.826629436210231
Zn 11.198931838068127 5.397995095709516 6.166122143707344
Zn 3.360647661861802 9.141452923428846 6.804572881226893
Zn 5.9265679605835375 9.909574415894717 6.828855779904529
Zn 3.854047396937969 4.713004268773049 6.733869459824582
Zn 8.013406031700262 10.982817495036425 5.624628096860301
Zn 5.779186092286445 3.647692572631265 5.372098094113031
Zn 7.917981918735974 11.027039367833666 8.150409613874311
Zn 7.096734182354933 5.559565133920147 4.336223793226
Zn 8.051336861980065 7.5368027360285135 2.7135127956992053
Zn 6.493488450114825 5.425139144656018 11.195560210421807
Zn 6.172937563536057 3.0755945557506625 10.006320268681847
Zn 6.906863695847994 3.6217933109159453 7.693754589900853
Zn 6.541014479434241 10.037546731428941 10.33678905715857
Zn 7.996060553157382 2.453531838706821 5.409722129140544
Zn 3.5934212762943583 7.052013306392053 8.336141479924356
Zn 7.743308844532877 7.757770049684087 6.14477859668
Zn 4.313854086462745 9.60773962487702 9.092206671605398
Zn 8.566461249708953 5.197794619006318 6.566058367489855
Zn 7.513224441191567 2.9606777032192615 12.237509748123054
Zn 9.373421466451148 9.048383640009076 4.442356653733136
Zn 8.268406842542086 8.5692593797024 9.07352855117566
Zn 6.720171291890434 9.426270310231011 4.069178487630881
Zn 7.885036761230516 5.917694441747585 9.037796075162003
Zn 6.01687292276 6.209651557152207 7.245497245837589
Zn 5.192841351433451 7.859526059737793 5.425649946923094
Zn 5.5733761084257125 7.300480448156113 2.9292375582334804
