30
Energy = -18.78030728 eV
Zn 7.513826489280996 7.1378730640754045 2.1891777388498044
Zn 9.210984482447406 8.131282679234399 3.768074854067321
Zn 6.8095412455554625 4.749045573770771 2.5937480903188566
Zn 4.986983222553666 6.794646941754203 2.736259040233492
Zn 8.87389792170065 5.4494765689739655 4.002473432378852
Zn 6.614545743466955 8.974800425766219 3.7723923818385816
Zn 4.9630742042461655 4.5539498589270835 4.2780302761947135
Zn 7.268097319068283 3.3830038892637244 4.734173119810481
Zn 4.106214364635544 8.704609826731904 4.289582792964435
Zn 8.240419568776188 9.220832211524522 5.8340973167119445
Zn 9.583527123371013 6.937884865573571 6.0691716092376025
Zn 9.401362254187514 4.047457777432654 6.220899092810956
Zn 6.767941578502402 6.667956525381809 5.112759748664404
Zn 2.941704259681757 6.347248842404541 4.393499168069306
Zn 6.936727910777294 4.844938579098563 6.827489739237974
Zn 5.758071256060634 8.894524457806364 6.345369394047983
Zn 2.896217497626115 4.023360900757304 5.692149630767729
Zn 4.853895660852464 6.216474547710738 6.555373831259041
Zn 3.262142403923312 8.357180847258883 6.698490917125976
Zn 9.660128430761821 5.797589353544317 8.37127734208877
Zn 7.756317352357428 7.749028869964967 7.8406768099372535
Zn 5.212474879142845 2.9344773368816504 6.322841174545896
Zn 8.488164519602442 3.565527618200401 8.641048855672796
Zn 7.386187956894463 5.9458807877709585 9.575732432663212
Zn 5.366202690815164 7.991788761763341 8.72458323924107
Zn 1.836792318109343 6.103786290802216 6.765901515677671
Zn 5.935121113470839 3.393735065300283 8.851387301590348
Zn 2.913731996426195 7.011183995429186 8.856924724848684
Zn 4.892081068265511 5.698359427745597 9.84021675493028
Zn 3.569572899592086 4.378043841301291 8.10214740636553
