31
Energy = -16.39874382 eV
Zn 9.432365914774334 6.054828139650016 10.187830563020214
Zn 8.786359328570985 8.468515043917385 9.406438940700854
Zn 10.29064772600987 9.22423187805501 7.491732785203593
Zn 10.38418283377578 6.744262357172069 7.81616206649196
Zn 10.297024492924423 11.254888404527895 6.056575932303593
Zn 9.803022317150647 4.34805157596978 8.403330222010304
Zn 9.188334802330273 7.674017323664392 5.660420282288144
Zn 9.07327726347651 5.112476769118996 6.014903774399715
Zn 7.0604250062449045 6.815111354699268 10.637814992479498
Zn 8.140634546991038 10.55116700496603 4.831447767862896
Zn 7.963781686736323 3.070681500194965 7.293632942147528
Zn 7.978165658253318 6.178939974577205 3.9176845968238942
Zn 7.305043940234419 4.673093961869192 9.254309917271767
Zn 7.594344766469642 9.177324810422814 7.071765527417302
Zn 6.389737195426781 4.501724131781726 2.6472138513265335
Zn 5.181342721409471 6.313495511719171 8.915034637338119
Zn 6.970402795693709 3.7961563948446497 4.9505468695744
Zn 6.205961712702492 8.715809096270206 9.173644605323625
Zn 5.451967334288716 4.239371579964921 7.390965646901569
Zn 4.481431691871489 4.9675097658135545 4.351481144444394
Zn 6.670324594791611 8.47507347633239 4.6819338159112585
Zn 5.205605584082852 8.232735517220581 6.876105589501284
Zn 3.555669189358353 6.072452259880366 6.883006927541498
Zn 5.835457966362122 6.990958492116744 2.762868356430051
Zn 6.123245638997081 1.7277370872179418 6.265727522364283
Zn 3.897471740940556 2.6936115063839776 5.81452683524612
Zn 4.141085330916049 7.644213611107089 4.488734909861595
Zn 2.16956225122965 4.458103798418033 5.552918584606602
Zn 2.657986809466082 8.564631052362785 6.673921092205293
Zn 1.5762277732419165 7.845521599868042 4.466881737437369
Zn 0.377994325976013 5.602389960589718 4.249522504261994
