31
Energy = -17.26509663 eV
Zn 9.139635798401532 10.01885254112105 4.0082470395107475
Zn 7.073757559135119 9.03190417670771 2.7615565362763173
Zn 6.856917432248965 10.750498766380257 4.707884505804472
Zn 10.38111403628564 8.759867286065775 5.724364199169988
Zn 8.79664121142968 7.4176422198050425 4.044244428212481
Zn 8.312090619555319 10.057840357652639 6.691572178460473
Zn 5.085998641575168 8.894100591767117 4.41171641593772
Zn 6.332481231267722 6.669535095214372 3.4641307691907803
Zn 5.605064141302452 10.019667183520939 6.809471447085334
Zn 9.610611723123204 8.179452257807508 8.056375729456336
Zn 9.891839505697877 6.292142083108263 6.158982909031532
Zn 7.902586524173759 5.115932713461657 4.860649931167658
Zn 7.040108971468821 8.908826826111989 8.617440822760882
Zn 4.020680563535976 6.630986823102646 4.634806225763082
Zn 3.528535971636321 8.40851479407469 6.48321713846399
Zn 5.393831758997558 4.460663432838606 4.580399297879447
Zn 2.1834572578795326 6.20747783268614 6.459071489321097
Zn 9.904809992344376 5.59244285982549 8.633301443957992
Zn 4.378870794162682 9.052480285314624 8.846966257366892
Zn 2.73474530862097 4.347364554609086 4.686980623636771
Zn 3.582919378366927 6.598646140103881 8.575639376468624
Zn 9.16662454568361 3.8819954776619894 6.839541033745963
Zn 8.176010279317556 7.005309500487472 9.822013095233775
Zn 4.123894388979846 4.600601447652594 6.879618996771585
Zn 6.537162057232434 3.73253708777158 6.810217455043216
Zn 5.644524396088488 7.169617938970908 10.000417020443239
Zn 9.386529003850734 4.976807958511342 11.16812429265541
Zn 5.4131296409504 4.711923904591484 9.059958412508928
Zn 7.906019973554559 3.971186385794527 9.05044731247282
Zn 6.8425596896244665 5.099267643354665 11.12403733050844
Zn 8.024553964395714 2.4136201948107403 5.0063126465820575
