38
Energy = -25.52987391 eV
Zn 4.643268861874978 9.287761831997177 9.821255835941821
Zn 5.771120978928209 10.604717783648773 7.728424420686146
Zn 8.083996712515088 9.505766603482638 7.886797009432319
Zn 3.4508353588698495 9.51970329285598 7.488791711699241
Zn 6.619781717094335 8.109374303196823 11.074748859995832
Zn 9.19681444298584 8.3289290625196 5.623076564789808
Zn 4.345460851320694 6.966412920763035 11.008768941998216
Zn 8.519113866115552 7.4316913904778685 9.550727472437345
Zn 6.645556814984316 8.972248925354357 5.709591191997305
Zn 10.303056852030654 8.186697578473087 7.92587611078436
Zn 7.796582303318322 8.152636893405317 3.495213075008429
Zn 5.987371811769414 7.768733900984529 7.96965993812238
Zn 6.850364091353199 5.500499614751916 9.430468498721103
Zn 4.404461709176302 10.472896622962255 5.372858664690419
Zn 7.961952785102119 6.418632610637849 6.976888141778864
Zn 4.319614073948045 4.91767457914098 9.541301471401082
Zn 10.388966491250946 5.702416426900709 8.449771746097836
Zn 3.376541328455108 7.054061115033363 8.197441000711505
Zn 5.210338363989444 9.150341605674146 3.3920801458428564
Zn 4.2115774788317 7.591253711806787 5.73732074440722
Zn 5.58571362548532 5.362408666383345 7.029220655416396
Zn 11.158251771067285 6.575770071615706 6.143834826320043
Zn 6.5077535103395885 6.243314273537465 4.808000585830381
Zn 4.255868504750168 6.748638241991935 3.231956399893194
Zn 6.1345583249982285 7.436782106046906 1.7129244196670301
Zn 3.0236735322636648 4.686558839971558 7.231131187994608
Zn 9.580569911417951 4.572277162799862 5.993197288839862
Zn 9.632653941400267 6.302892855298143 4.022794237598832
Zn 6.286725091350528 3.0356659120383642 8.510921561486006
Zn 8.651947773241453 3.8901700512073027 8.345150034644961
Zn 3.8257104320884405 2.576642466285498 8.474053470442156
Zn 3.9514266992902045 4.920453647838742 4.892190816187709
Zn 7.215966772510895 3.553006944925504 6.066438747010365
Zn 5.936623207828725 4.892289884477808 2.085550938420814
Zn 8.045384130476569 4.246363230351747 3.7249349410256016
Zn 4.6683576902905815 2.660705619878133 6.118522178051249
Zn 8.223208582034808 5.955127447204109 1.8260760065210708
Zn 5.674315666075274 3.1796045024476416 3.905750620672235
