38
Energy = -24.71279725 eV
Zn 3.1292567439161876 7.523534893077427 10.101205080898373
Zn 5.458438641100862 8.618249242164579 9.372915751127543
Zn 3.4927254988702714 7.8217171591713 7.612359184751216
Zn 6.018653268003407 9.452660341218225 6.971235166198173
Zn 3.8909409475758383 9.374003278791784 5.5275896373659
Zn 5.182091543482718 6.530841001044424 11.124331018050635
Zn 7.9180506750687405 9.460359687112234 8.741384231070272
Zn 3.57311094831233 5.116086954795688 9.433203565918381
Zn 4.639967607154804 10.518185312524993 3.3960580669164777
Zn 6.463528404652962 11.086637485469332 4.883147306417267
Zn 2.926167982778584 6.921363326950849 5.266784413207901
Zn 7.860136126818648 7.3832484867822075 6.892614512738714
Zn 7.446551552232889 7.079376042187185 10.048291047928643
Zn 8.514855560588217 10.766904237686742 6.543384642123056
Zn 3.6678090620677355 4.98136905484741 6.7266313611056665
Zn 5.684606653728183 7.201661774722013 5.369958437689181
Zn 3.8983612891758646 7.938676005861015 3.192209918777701
Zn 6.368357280849086 4.639264017534347 9.803961027616355
Zn 4.868468486819438 3.29121209104421 8.217384022473253
Zn 5.666902980083016 6.409677238190111 7.909223402820484
Zn 10.275648182985384 9.024143357284169 6.97135612706842
Zn 9.721996158278623 7.702219377700789 9.077218740489672
Zn 8.603102022686485 5.344613086221804 8.522550317388045
Zn 6.371112935528045 8.500159392651268 2.929867426898279
Zn 6.943668205866667 5.012609058801284 6.229572476849862
Zn 8.047139231924273 8.965692215844072 4.7409415368673224
Zn 4.014696338870197 4.947944577748757 4.15549925034031
Zn 7.370875372309647 2.9360702383025945 8.034108768668322
Zn 5.531216623389783 6.136869863122455 2.5045554991221444
Zn 7.772854338483151 6.27391329739502 3.9108097128282178
Zn 9.901742164297621 7.307814754752751 5.075154328050702
Zn 5.296536980560594 3.042273696466645 5.757203933106008
Zn 10.7925661333958 6.32266949347032 7.238277571540979
Zn 9.386347980667658 4.746314485495555 5.342486479649842
Zn 6.277722901307942 3.9640569431116908 3.5230979530777047
Zn 10.53181479086746 3.7860102071442547 7.67272612294905
Zn 9.257124912423384 1.902497243316789 6.726651117995573
Zn 7.667004084763163 2.401251691878512 4.886201453799565
