33
Energy = -20.93360354 eV
Zn 7.871963651207263 7.555790974096183 4.160217167588988
Zn 3.1761191438174863 8.632289458924681 9.726229028285404
Zn 3.169127196204254 6.185665829719729 8.772036212026832
Zn 5.810665797155769 2.6606217149275326 6.158255751093722
Zn 3.8393954233104424 7.155948277201315 2.0022137053610285
Zn 8.303311787518824 2.708785297577597 6.857735048079558
Zn 3.2007347837352538 8.117394830589962 7.0219349552643635
Zn 5.239880299278569 6.421353061187693 5.004021500710672
Zn 6.991962058751174 9.050040405529446 6.006857393009742
Zn 3.0916665225736053 7.769002997265987 4.394961928853599
Zn 7.16258284985163 5.228570171979287 5.972471689537257
Zn 7.625633290993993 2.854342299743451 4.40171776019679
Zn 5.7219059298001875 7.882274309064008 10.084001349321914
Zn 9.196615662048265 5.015907072812998 7.664596940304069
Zn 7.642900691272019 9.002370777647496 8.792962112266219
Zn 4.541199054345146 9.657797198169485 5.489322209223283
Zn 5.718400103849924 6.835424105801115 7.3764605652974256
Zn 10.608920507823221 3.677488039894916 6.074440828214845
Zn 5.546657359863621 4.320468374240034 3.4604308631047114
Zn 8.883569443589108 7.622769376296388 7.038945716410427
Zn 10.156311648366065 3.4538714694060446 3.6282928196880313
Zn 5.319379126652028 5.388193292887538 9.820345666674198
Zn 5.2429252686657355 9.441964337457625 8.013839053931598
Zn 3.6902770904123607 3.5711941156593454 5.1054693152202
Zn 8.048943691398847 5.1046009107700065 3.2973627744229255
Zn 6.793934407775865 3.7087105264451066 8.595739139946152
Zn 2.599816742098353 5.710679197945095 6.087413843417737
Zn 6.247920674938435 6.485696243710743 2.1646017788940726
Zn 9.67856691078492 5.9893812121642505 5.160272234690485
Zn 7.664526821607714 6.302749482737357 9.148893925899667
Zn 2.956212645130179 5.282278754992124 3.427935259017434
Zn 5.575712428593926 8.63517196052136 3.4266191186054655
Zn 4.474922926972383 4.363865863018249 7.456064285826966
