31
Energy = -18.4201746 eV
Zn 4.561367288995372 5.281970798343235 6.29544042766223
Zn 7.020513073483855 4.26690235710978 2.3643212199154653
Zn 7.320433557812401 6.310592758980161 7.754404474709136
Zn 7.570034287029399 1.6498391325469022 2.8549479121186945
Zn 9.029744591148065 5.63237269790202 3.354712797801461
Zn 6.169857599073558 2.7348047463776544 4.680090750914499
Zn 9.71181311941925 2.939881284298089 2.80572756481744
Zn 4.148962652587953 7.244156753514629 3.981188311626642
Zn 6.065570617185138 9.008032109612026 4.302869602467289
Zn 9.287388271672189 6.289576199327184 5.907973302346729
Zn 6.945692463355211 8.820541776933396 8.709896993380571
Zn 6.432011667188376 6.806074541696298 2.8902771395805025
Zn 4.7629547045321035 4.696092759651206 3.470204407995046
Zn 5.321226888342095 6.9076903445744495 9.235753702518048
Zn 5.106339498962331 7.815039036181167 6.391835038210736
Zn 6.4059960614287155 10.204210829687769 6.52282593230571
Zn 3.0854130766555676 8.36626465878448 8.270035480492034
Zn 5.262798243082397 2.282931407639463 7.015619362351095
Zn 3.09100725558982 5.702064750147824 8.66717732025733
Zn 5.5094166772588915 4.40585393523115 8.624687190710969
Zn 6.726267300412958 5.726887441879407 5.215050803741358
Zn 7.337864212042979 3.7537541787952704 6.94573672211938
Zn 4.771425474431669 10.172829763544625 8.617522245702059
Zn 2.50514103596183 5.304224280488336 4.325218882456044
Zn 3.136624627697165 3.240793425050581 7.8598532913149075
Zn 8.467634702033756 8.100635624719 4.173198927273402
Zn 1.611156047330484 4.7274763446292685 6.595480003405374
Zn 3.440257355578085 2.9770919587728564 5.193564188498841
Zn 8.542180215842235 8.599482003246958 6.740167924093039
Zn 2.503204766120343 7.237668726123463 6.0341144486538765
Zn 9.146613017021473 3.7911737234866894 5.1970139798344555
