30
Energy = -18.20049123 eV
Zn 6.431361826804907 6.316724089240996 7.793667669225032
Zn 6.298298898195451 5.873754203488161 10.536418414084023
Zn 4.574810837974662 5.546247148503599 6.13923689695281
Zn 4.086806732845114 6.629648587174035 3.6300253572230825
Zn 4.350890915556536 3.161939490846298 7.5113819043618735
Zn 5.07955252217466 9.04334955937586 7.875800725753951
Zn 6.066760113848458 3.609387822995821 9.41602330145123
Zn 7.019624327956461 8.306239553152544 9.751906334918816
Zn 8.733968062945223 6.622016599107751 10.880896891445623
Zn 4.827086886760534 4.209904017966155 3.4565287358942975
Zn 8.83701017928835 5.288683139011654 6.54375742016123
Zn 9.21097979634902 7.190451245676314 8.464711890887962
Zn 4.522921205087604 7.650860904565651 9.959880060189882
Zn 7.1255840082663235 3.375341089305237 7.06963809757091
Zn 8.347920236365775 4.73413034239058 9.035799834138292
Zn 10.195680754284032 8.694128909095141 3.7155055267753965
Zn 5.275205110696951 2.635610765275744 5.311179626603995
Zn 7.630423607502654 8.934180250230723 7.301537134971504
Zn 4.094270285380988 5.221479718644632 8.95066933796936
Zn 7.285388570288358 4.181596217526821 4.590841633289708
Zn 7.995828978852404 9.67096854225734 4.783484652372107
Zn 9.468512955429981 7.760415638911754 5.974931662188906
Zn 8.952035466369441 6.067708283944364 4.006290258084971
Zn 5.6287898317668175 8.718593994705648 3.5401835894578073
Zn 3.1333814011946113 7.22804803736901 7.786176646459921
Zn 7.97541959028692 8.083131831902044 2.6298470267913445
Zn 3.9900573562700785 8.23091480405931 5.573227272109642
Zn 6.76015881900706 7.0361956928243545 5.431936672608717
Zn 5.7418303276894935 10.180090070077807 5.68876952572996
Zn 6.5303280786249385 6.056192157540837 2.899551925717545
