37
Energy = -23.35314477 eV
Zn 2.729221763807297 6.303811441119707 8.431816804861082
Zn 6.60251411525785 3.3648965103427675 8.927813723705345
Zn 5.448455973189589 4.248075071949614 4.38430162184171
Zn 3.9808596805056 5.972810542697354 3.3077223577675845
Zn 9.901979698012571 4.0904382941716175 3.578529332026547
Zn 4.1960554280091396 4.252093143057034 9.261744030240003
Zn 8.128880644513238 8.14186945133907 3.260703274244608
Zn 6.065746486878658 6.975825108096881 4.909145363721177
Zn 1.8385691247120626 8.595202287611366 7.042781860352708
Zn 5.56498763734767 4.904050350833884 6.958403101747057
Zn 6.578514173536868 7.31950401920786 7.543869643718268
Zn 3.8203678422518883 9.088614764828952 5.395535612927903
Zn 3.4762247739286574 2.828586812634126 5.091607240800608
Zn 10.971589063870045 4.330906701099528 5.896651053765362
Zn 7.750498926180482 5.622255752231364 9.176732987582737
Zn 6.248114415244396 9.640089154655325 6.307128180451093
Zn 1.9652257919385219 4.911764848983542 4.696921387761939
Zn 5.9090491633887146 7.534295488431321 2.1912641419526078
Zn 6.897449604587804 2.6580761228865217 6.331236183250239
Zn 5.964873131432428 9.60479890431233 3.8013004771159142
Zn 4.551819403022477 2.3459148917840524 7.393403400504104
Zn 7.849993621476495 5.3705430801920295 5.894300693607354
Zn 7.493488177336898 5.578279788150075 3.0030433054219317
Zn 9.31840059154883 2.4631571825188834 5.554458378575189
Zn 4.357875068575988 8.45555775409775 7.8613086910218035
Zn 10.282991172374512 6.354842838980495 7.031952848996552
Zn 3.8506052120500276 6.390536458017761 6.006484356667588
Zn 7.603045477687596 3.125670584760915 3.8111512205217446
Zn 8.466928530319786 8.200791186929345 5.846390441322244
Zn 8.978388643699114 7.888003125048785 8.482206307676089
Zn 1.7471727344542507 7.5768007991892565 4.407005209048526
Zn 0.8846639041027267 6.310524303331732 6.562499727177376
Zn 9.782803118442786 6.496244220871459 4.3708921836771175
Zn 5.1311637807496675 6.56387239584541 9.56503336864631
Zn 3.6816499959036304 8.477067946351495 2.9084504204308756
Zn 2.5791406394362784 4.066077197285188 7.174343091828879
Zn 9.046149810261708 3.8614877103118155 7.75756101301536
