34
Energy = -19.08912887 eV
Zn 4.662909604172543 11.11241430641671 6.022603711345645
Zn 5.158680760107212 4.806160451854627 3.056254121008726
Zn 7.342734803050944 6.553288922438436 8.00083441605673
Zn 7.950311608780914 9.707347182821136 5.732425677898967
Zn 8.468967098352586 7.188513254314319 5.712635257740812
Zn 7.354263134560651 8.872568452542946 9.615156470111385
Zn 8.299685934163055 5.033668375350779 10.640033062415181
Zn 5.734962639622855 5.178721330076441 10.41707338092627
Zn 9.485534375255469 8.509841301686691 7.621456255681982
Zn 7.041406545414121 0.9379033241188811 4.434039920044385
Zn 4.6731831359229 1.6501278944956626 5.287672944429895
Zn 6.756739969515739 2.341927124500029 6.58569366053477
Zn 4.70007429856612 5.288714072753431 8.099336618383601
Zn 7.1340207808625555 3.8209708695740408 8.63295933032546
Zn 6.186419838101393 12.111727023856906 7.677558665101358
Zn 6.393934610292352 12.111727023856904 2.2344656607174276
Zn 3.51549772927087 6.651570779029848 1.6581240750771282
Zn 5.268167260402125 7.47918249052026 3.489476976471207
Zn 5.6302058431221935 6.67134544142658 5.959804178429475
Zn 3.1898057560099624 7.287726233546921 7.541366761496887
Zn 5.8992715593827105 10.021715268369011 4.1084440869744085
Zn 7.029179486267881 7.15313662533004 11.44006475464273
Zn 7.713456855092971 8.353497016608971 3.514241668980092
Zn 5.263664693469341 2.1032779197863274 2.5773210241278237
Zn 4.4801103276661856 4.318605549616233 5.801118776091367
Zn 3.27697042624951 3.162866693132404 3.851255056740296
Zn 5.0484729891995785 7.5753347397398185 9.491037526120836
Zn 7.506336865190226 5.882695753498043 3.603528584694853
Zn 5.956231389961103 9.00429631646976 7.402922753949859
Zn 9.34662649950715 7.13189368530723 9.698867936263847
Zn 7.266887172838364 3.4049479465839543 3.8791657804684396
Zn 7.584309191468846 4.74411907682495 6.078553236699452
Zn 8.217936414163141 10.731116683783 8.072475705089781
Zn 4.0000708258578745 8.660469024826297 5.519444821946492
