35
Energy = -20.22972699 eV
Zn 7.426429706901872 3.0029164563631356 1.7790173490609813
Zn 7.415547422992932 2.131792380858015 4.14697971076917
Zn 6.176499213944022 4.633129468661108 4.996039872866973
Zn 6.499202380304202 5.278994839567625 1.9277661321904491
Zn 9.389953586233407 3.8894955873285966 3.2095846203625666
Zn 7.418867976146601 2.15632350888832 6.691460949413001
Zn 5.167060944076248 2.1702834269400446 5.562124342465158
Zn 8.638553332819807 4.211871345765471 5.810365654603554
Zn 3.615327092311068 4.225794117319047 4.95170960148399
Zn 4.497692471894348 6.031692001048523 3.4391668742442842
Zn 8.144312183700746 6.140644892989463 4.015628723886202
Zn 6.35764775566554 7.608182289412278 3.002109890011214
Zn 10.263936687879758 6.211744374874569 5.459417334028143
Zn 5.44472509102319 2.8638951500815675 8.235842007109289
Zn 3.180901249006069 2.7178613724120564 7.034806933782756
Zn 7.746080974343425 4.063790896631556 8.364856233653121
Zn 0.9631816583095419 2.8585372103154807 5.56348301504643
Zn 9.518049008353307 8.416289399076865 4.607310703804059
Zn 9.536428596836677 5.790866195534643 7.788981436950941
Zn 5.8265172184212215 4.860838522030369 9.861280569327025
Zn 1.7952006046234705 4.945691488498063 6.857724750475229
Zn 6.926312733327776 8.815042218640135 5.186642188544968
Zn 2.7409840480941283 6.7569262444857605 5.216378712646253
Zn 4.435598915373905 8.57093898691566 4.371853434056218
Zn 9.647920839831455 10.481932984176662 6.016363300784817
Zn 3.5728587713056412 4.742165089890656 8.692759672848755
Zn 8.66753493290476 8.14102357556666 7.175445638325333
Zn 7.378561937274529 6.6759779383469295 8.95660015893556
Zn 7.294423075591726 11.12759938704629 6.526980020004716
Zn 2.6408621861072623 7.1254534862420655 7.817650223224001
Zn 4.953630256759193 10.357712506311898 6.292885182406399
Zn 2.7138158693426644 9.186884613374517 6.116200416891303
Zn 6.379610972395091 8.912363431242072 8.156248414938283
Zn 4.807290459621582 7.0875027087977225 9.292392891892879
Zn 3.870310944698644 9.273568793030602 8.378472658081401
