34
Energy = -22.35395303 eV
Zn 5.354831806450871 6.758334515033506 4.737546351990112
Zn 2.6445755056291986 6.962632159610849 7.080168984734208
Zn 4.948232579905522 9.647983745785941 4.4317951756444485
Zn 6.7659683690512535 8.46504344290286 8.592077196979051
Zn 7.932614739068176 4.438035986381186 7.691122801328361
Zn 7.0101691553646885 9.53120737228235 6.023656417482458
Zn 4.734420026023307 8.612371905540899 6.860948391151926
Zn 3.042376605262755 7.928609488542746 4.752513321677572
Zn 6.525564549411238 5.847907115459861 9.433574484571263
Zn 8.795094303635933 6.748626608258157 8.76357636737196
Zn 6.325770299342569 4.5292613411908835 5.364065461214159
Zn 8.244722215862158 1.7722686711866156 4.250347484188019
Zn 6.052986009244858 6.084045331596871 2.217439963443705
Zn 2.9216164808489786 4.088450618432106 7.6631479099847315
Zn 3.4732425162813487 6.145053019079363 2.693563277266669
Zn 8.933406755849925 4.026891332230578 5.209393984159617
Zn 9.641104681724606 6.283561256292504 6.167002951884274
Zn 6.988600121743972 2.206805341772492 6.49493168292163
Zn 4.286615261347878 4.752070236334391 9.994578631817365
Zn 7.127371007349144 6.842201408593116 6.4815725729073455
Zn 5.772025811704665 1.800925874049015 4.0703658529796805
Zn 4.314327273789127 2.8372578154735173 5.923318295939177
Zn 4.984916163378201 5.719140011381242 7.172068488264492
Zn 4.6469746573915405 3.965150588383856 3.2737202043606395
Zn 7.283192157974032 3.8594466310952127 2.934990195401242
Zn 5.56540423761844 3.361633416051588 8.25326450863915
Zn 2.2080522419732755 5.930575661910535 9.357349576653029
Zn 9.27506300797152 8.832965261572367 7.412404952647961
Zn 4.520874133631963 8.410995315582431 2.288377314761392
Zn 8.148580885094505 6.196003928934509 3.83673286644133
Zn 6.978017809898393 8.480875813463085 3.3783097910898436
Zn 4.415339673965489 7.418926486063004 9.183345736751539
Zn 3.1241709199503465 5.09695392432141 5.138548050725833
Zn 9.057669147684997 8.461679486636777 4.91807186405211
