32
Energy = -19.97256701 eV
Zn 7.582976174742261 8.993663524316377 8.776243168578764
Zn 9.34285254063108 7.436471803160137 9.840905671551464
Zn 5.843429328777364 9.998236726473671 7.035434293424989
Zn 6.811365829130783 6.88258363453991 10.224757168845748
Zn 5.095464539448811 8.524509019896179 9.042912755987885
Zn 4.9495122002778995 5.909354830723274 8.767577384745032
Zn 7.750460966858164 8.306844123728053 6.293005498056447
Zn 8.63896262245558 5.051193392595434 10.330901753901552
Zn 3.137507902894584 7.424490110757502 7.875353840131767
Zn 2.037166521162248 7.056453380922104 5.6765966793697915
Zn 3.459233913981011 9.291667866505744 6.189259538767092
Zn 5.510345086875338 9.513472493005699 4.449101659939032
Zn 6.282151036381337 4.1996374820736095 10.248165340870756
Zn 9.999502630046344 8.323892144542645 7.538255086867375
Zn 7.642242288868415 10.732206592294032 4.8839764280599445
Zn 7.271375825027042 6.053411342836516 7.432188588156125
Zn 3.7283187005285936 5.072124671869601 6.671683508884352
Zn 5.443120352975385 7.144170425182528 6.085397696702488
Zn 9.807653406969061 5.700001559926109 7.853917516492078
Zn 8.24123028539905 3.731586861573347 8.158309896396194
Zn 9.757726209284725 6.89303022114579 5.424170232778178
Zn 5.678768220590726 3.637676597590791 7.7554921172692035
Zn 8.165818962323366 8.388168953570698 3.7433997790176936
Zn 3.480784114709215 8.06188781383841 3.8751365903631014
Zn 8.330924500773483 5.804340720078001 3.579033252328225
Zn 4.010368847942675 5.5875473668143405 4.197490042536758
Zn 9.28238560587448 4.349111337860283 5.716204538407819
Zn 5.328407364504216 3.544029286271794 5.174501310156756
Zn 5.962077462088976 7.140695755060447 3.4339209541409113
Zn 7.415615126312469 2.401702635920994 6.166913822916764
Zn 7.869642689594755 3.2687034706240743 3.890014935396197
Zn 6.050963698807954 4.646708794243725 2.903895538973842
