35
Energy = -19.96739183 eV
Zn 7.871103375498861 11.600070858089017 5.373872268094721
Zn 9.22353201334142 10.05553254559783 6.818741194603471
Zn 5.888315867523097 10.403086780660358 4.282087532542663
Zn 8.052032452309732 9.029059453668307 4.615799533649928
Zn 6.479637638885244 10.25904536303581 6.981667835047311
Zn 10.372931649567157 8.30214380833213 8.214119973020644
Zn 9.729320232491483 7.605884315333744 5.829012289617311
Zn 6.173103932982515 7.917928782561172 3.2607592718134213
Zn 4.238204866676609 9.426083703173783 6.032229898698015
Zn 7.759773047566588 8.56445449569802 8.453873602691116
Zn 8.325074109957624 6.55132790559105 3.8731429657970486
Zn 3.9159579588848032 9.071644901056024 3.4523701796367985
Zn 5.24291227091738 8.103349395956156 8.055572672399448
Zn 9.974152751482412 5.107884109778972 5.216931687037054
Zn 3.874821825044138 6.668929659594576 2.6216090192088446
Zn 10.145510749528386 5.693315016599468 7.66214139361537
Zn 9.142255598130427 6.8073546774572815 9.759462236675173
Zn 3.416406144264222 7.157486246778853 5.132742790382482
Zn 2.7594806138153487 7.861633136294357 7.59006643701055
Zn 8.75207823592598 3.5309558888668686 6.8487981107888105
Zn 8.337911169967985 4.47013248723953 9.239593801999526
Zn 6.590679908419999 6.416358430558039 9.507353582274758
Zn 7.552664186551759 4.135468116173536 4.630630370016996
Zn 4.0217093685215985 4.186027587475108 2.0356230586125803
Zn 6.122182654573345 5.357894804417854 2.9643650388364757
Zn 4.059944833145362 5.966741433935395 9.030032227898163
Zn 3.198695004190567 4.719960729210612 4.364751135492627
Zn 2.9344420165495246 5.331997514818187 6.827881854129427
Zn 7.294463497999088 2.276751533410428 8.555955694955765
Zn 5.652840472585645 3.9777012064096686 9.577744330191223
Zn 6.326870772362606 2.5162090299901343 6.19198035652849
Zn 5.112903219217477 2.924368208171249 3.963632056443874
Zn 3.713412129986237 2.876104134450115 6.182890030558247
Zn 3.15513556110407 3.5985069368510803 8.648218640941689
Zn 4.845940013269146 1.8393001782473641 8.28356181179489
