30
Energy = -18.30497263 eV
Zn 2.056685654832258 4.495423859053923 4.840524074226166
Zn 3.905281950617237 8.468138675262312 7.191241161546921
Zn 6.489162472533285 4.963619069075543 9.155787624946655
Zn 2.0084968044149423 7.507332171059333 8.586606901238229
Zn 2.521311599904571 4.8417471089669135 7.319987227635177
Zn 9.987130065098935 7.870881994625069 4.74723155529752
Zn 3.9196628320360287 3.112929595314913 5.9055269454111405
Zn 6.375426520699456 3.6946219506575675 6.857828356664044
Zn 9.667068650412142 6.01973101011426 6.545949983047326
Zn 3.5667041910165977 8.49306746258273 4.711673914434403
Zn 4.346205982235165 3.486340628852119 8.539439457413165
Zn 2.6153238447688976 6.498901763769131 3.411469707283638
Zn 7.085140629656712 5.9231891468647495 5.6860711900464045
Zn 8.360722357150943 3.0882112902313716 3.639397155333786
Zn 7.693613120668435 7.543947736200027 3.416715598645914
Zn 9.007621368853762 3.4789405622959952 5.986296715204577
Zn 8.37136014563594 8.308865045818024 6.84021439005357
Zn 5.188419519197609 6.816460909475135 3.6957853797476354
Zn 6.148875067097036 7.317737460270568 7.761162405845188
Zn 8.791504546020313 4.178469026115443 8.34655474870259
Zn 9.2302872216456 5.493488325705914 4.026125331626743
Zn 4.554606260956686 5.8113266848606955 6.017011289535503
Zn 1.937887827865643 6.945291140009271 5.92598920062706
Zn 6.802004585568429 4.9853258342977425 3.0745571228628714
Zn 8.367814655460316 9.757634522740108 4.618915685080371
Zn 6.062032503320076 8.680305793530225 5.455356425942842
Zn 4.1424534477855985 6.114349976715927 8.805470900433292
Zn 8.456518438266867 6.623028962296625 8.813618375430922
Zn 5.9855984519571965 2.868814429736632 4.467017692853744
Zn 4.1165557283942364 4.373354307572993 3.371949926954002
