37
Energy = -24.11204 eV
Zn 2.6805048625964414 5.441063884552592 4.4924735027841844
Zn 2.564154419343892 6.537503249281866 6.807359339276168
Zn 3.9432992150823134 3.054914375062828 4.248803585344274
Zn 4.046327989193036 4.357521071733071 6.45019390761537
Zn 2.906775024737337 6.147695333083723 10.852952094156173
Zn 3.7724081053687777 4.560171925896168 2.2319881667862975
Zn 4.602232512437978 4.1336481898575 10.916009718724375
Zn 2.2980917401615746 7.817450647821019 8.927909641707371
Zn 3.509108184755903 7.097992859041338 2.6496785325080934
Zn 6.059557013376358 2.602454264102134 5.8007783522202985
Zn 6.222229051714874 3.3536228990163552 3.1737886110522617
Zn 5.549945593879748 3.3715961424359255 8.315426791972879
Zn 4.027494306348927 7.8945910654212375 5.125309192437718
Zn 5.303866878094816 6.411457313294154 11.81778381981762
Zn 5.504942012727396 5.598297927759113 4.552867762987828
Zn 6.001460006227893 5.769157640005251 1.849760716095479
Zn 4.377269384830693 5.6992045986109465 8.620046959140739
Zn 4.339031733313766 8.437745985929197 10.246876711967234
Zn 7.579586858380712 8.228572412646034 7.4487023455208785
Zn 7.089795801258066 4.689065046966125 9.865126336693221
Zn 5.863353846833684 7.980060665425218 3.1609337397009787
Zn 6.202531589924704 9.272226026499998 5.468157344780913
Zn 4.922463334455216 8.291374530050348 7.576690164223549
Zn 7.975032174467035 3.545859534306662 7.624803247994287
Zn 7.586525606225579 6.8862075433767895 4.973488870426527
Zn 6.369982301302741 5.773285591410583 6.891091444179661
Zn 6.573461474199487 7.257947738824548 9.616637709217208
Zn 8.258447245227643 4.671053824546282 2.4483018521537954
Zn 8.020968546360578 4.066113622565294 5.0161648219042725
Zn 8.67942647006233 6.103058402131804 8.398216404270096
Zn 7.866051276912505 9.535883943540643 3.364703507019485
Zn 8.874724065331318 9.636179918504983 5.67991771687608
Zn 8.299031002245128 7.228917245136026 2.294479235480477
Zn 9.954794390255065 4.79666635558111 6.53558937397724
Zn 9.893244697870017 5.791167541960606 4.105792765277213
Zn 9.875046550698396 7.344811922513358 6.364358593680782
Zn 10.121639631948876 8.32926088133613 3.8367054582584177
