36
Energy = -21.3692733 eV
Zn 5.883780732301522 7.456950456540774 2.770521553553337
Zn 3.9997957333416405 4.709683867028148 1.9379330131174701
Zn 0.49193844270546905 5.165271984468885 5.901792013085737
Zn 6.398745093963805 9.245563143758417 4.9745433476954455
Zn 5.034680294939172 2.735360187331304 7.489651283153835
Zn 4.580815955860012 6.969624571227186 5.30507635131854
Zn 6.02224767960306 8.141183828673606 7.343963988135317
Zn 5.669199766150885 5.055373079789899 3.9952460118127777
Zn 2.8744457360276874 3.906241414969158 6.586480922173762
Zn 8.174556497454107 7.461812439874596 8.79935090747099
Zn 7.813887584880526 5.654808414168477 2.7550630091424475
Zn 2.9011861567402253 5.0472186304805815 4.333759113535815
Zn 9.529194950902719 3.7794323427388834 6.406298980767417
Zn 6.122747424261652 6.053860578677696 9.226024510183091
Zn 4.399248005691691 10.905482030438286 5.492537857706254
Zn 2.493981553016872 6.510841789643662 6.927795478942087
Zn 3.228936876563104 7.012596869182478 2.6712003515627876
Zn 5.20099794521498 2.588469015961271 1.3583114538219565
Zn 3.542193585810368 8.895208499384614 6.756871873807052
Zn 8.411456592683146 8.064763961775222 6.251289172237577
Zn 6.6120879164242465 5.763574742672931 6.297093830161802
Zn 4.551703373481357 2.8906952041598326 4.900441960487482
Zn 11.43389310975866 2.404498357252647 5.1848732498031955
Zn 9.692609283551242 6.075125725070125 7.4438799185045665
Zn 9.261474502597444 6.019102328823621 4.901813115846159
Zn 5.890787228704536 3.4886792754194413 9.749712087883164
Zn 7.005709123120017 3.1960810628933345 5.85921698534756
Zn 6.691309432911124 2.64790033435359 3.3432660519850543
Zn 3.8579954007003905 4.925332450011656 8.678394335009704
Zn 5.056770298774491 9.144093497552852 10.464786786611505
Zn 8.924260333710459 3.63654439184841 3.8951393817757523
Zn 3.953916045178173 7.484122367441957 8.881282055932722
Zn 7.578582358745608 8.886699635584742 10.813237575648031
Zn 8.2807309451302 8.061229108362822 3.6791732494099043
Zn 3.985136646512508 9.139469414451861 3.7351450686405037
Zn 7.777825005449097 4.205932610849716 8.217660766592058
