37
Energy = -24.84959276 eV
Zn 9.660433377207887 6.754845236562027 3.8119490079167533
Zn 8.22741132984755 8.812399359420505 4.852076642881675
Zn 10.210251127825693 7.883793939652688 6.229666684799858
Zn 8.479098750370152 9.84509862160145 7.193635923540069
Zn 10.418436496185386 8.69011855159373 8.64352504186033
Zn 10.562957707872517 6.210355943565869 8.286747668030293
Zn 6.214376497367956 10.167242531198495 5.928379581431349
Zn 8.148273105597418 8.904471973501252 9.626647327217356
Zn 5.98067084668484 9.42920383067126 8.350016835439106
Zn 9.545884364491632 5.324482381372549 6.132862690218352
Zn 8.873732340408374 4.276019258282996 3.859994855427121
Zn 7.694009777941114 7.578275444581303 2.3949247983175934
Zn 5.841099979900698 8.538517995257902 3.8591971625276513
Zn 3.791539165158642 9.650690087338191 4.888538501600242
Zn 7.128040564665104 6.256536008617908 5.016216007947278
Zn 8.546383706626258 6.298698677932518 9.877930382657512
Zn 7.793251227051748 7.225243866485312 7.266907010311819
Zn 5.2867308727390405 7.454924571749907 6.408912818896481
Zn 3.7362011334922935 10.116503616701612 7.285303966731704
Zn 8.885687066584802 4.186844662529386 8.423987446077351
Zn 3.494941045920594 7.155814364849306 4.412326879629724
Zn 6.090365006157246 7.050086320348084 9.391727650735332
Zn 5.435283875976029 6.1065240663340905 2.9513190275590873
Zn 7.635456927084578 5.140986379864308 1.8884004831680206
Zn 7.8958765287245 3.3074025380898773 6.086230572515131
Zn 3.722038388527856 7.857718342936177 8.456641720181029
Zn 6.291222579564187 5.172130573387093 7.219555510640753
Zn 2.132497076319415 8.14250585053068 6.370514018730014
Zn 4.113209877472191 5.392894777237589 8.726914846595008
Zn 4.379745902874817 5.0115492205229035 5.380110188206476
Zn 6.49224863319284 4.494865261364576 9.802898654383123
Zn 6.327357561676567 3.835800035441314 3.9960416351749135
Zn 1.4875699516176875 5.740631565183491 6.318760122558196
Zn 6.948140158391431 2.465072909749111 8.34762495130856
Zn 4.5310088852045025 2.899654715715875 8.784928314972925
Zn 5.269547246640654 2.784152661943394 6.31083809260518
Zn 2.6785881234381947 3.748123012199958 7.160087071923685
