36
Energy = -24.17477491 eV
Zn 4.711817896417228 6.7490717003504255 2.9105442566533597
Zn 7.421640399185234 9.126946057990605 6.09051064053047
Zn 2.307511526641885 3.6308700724063123 5.088546400744861
Zn 8.787250935551699 2.63551579077813 5.736923604169464
Zn 8.294436490280397 9.108565701391175 3.645383976835124
Zn 4.522634219847854 4.041022887911122 3.3994491021263453
Zn 2.4461317539870717 5.581834666659274 3.39471843042865
Zn 5.658785194840852 8.996870907132779 4.1114275589662705
Zn 6.598356211923362 1.583716620157685 6.6555260842473105
Zn 3.241710903667121 7.284910027150213 7.501018144337381
Zn 6.709632165528607 4.632696006040252 6.346066535433398
Zn 8.790627644984943 4.862836628314715 4.4186589935853195
Zn 4.592980682889829 2.892884427099596 5.867395828176607
Zn 4.474994721458762 8.645293970474489 9.308029248032181
Zn 10.450347134001461 2.9121901548496734 7.7639404089681205
Zn 6.736292390038825 3.039201446997034 4.210459088550142
Zn 3.2467377946860365 4.531457333812576 7.57162334240857
Zn 4.847385899165633 9.264346714650392 6.673432811132811
Zn 4.725068283301319 5.956375721283289 9.290810743308437
Zn 7.320029906847262 5.358936940288522 9.03263253785222
Zn 0.764711651625077 7.385482457782447 4.165478980888526
Zn 6.684239749661135 7.605078560000187 10.131258437954829
Zn 5.970150587456282 6.933877893812762 7.188618592755792
Zn 6.836570510844888 7.821133451533447 1.9343560564848654
Zn 9.146668339744965 5.250227556519597 7.064488720211517
Zn 6.7331034722691925 6.688947806598944 4.81461061023206
Zn 7.928646394367139 2.9110557469837373 8.416751306335623
Zn 9.231515444989853 7.313747439343817 5.440856843575494
Zn 4.476643518577344 5.698113270219007 5.502759673658722
Zn 5.426858707719498 3.512644863960029 8.40499720703497
Zn 8.397216305684582 7.590324174195046 8.017824399548983
Zn 3.377272273889716 7.980828151232956 4.897522665650987
Zn 1.5702253831791007 5.8699159203382605 6.111907782391007
Zn 6.724273173677364 9.632364534114098 8.538867991300535
Zn 9.04636958285158 6.810554586663438 2.758874110617021
Zn 6.845003541634221 5.204000604381297 2.637569678290221
