31
Energy = -19.02285854 eV
Zn 8.347325544546827 8.152281552216182 3.82603738091649
Zn 3.191222763555688 8.311683800199893 4.644132784554105
Zn 8.113075284852107 8.827574282147927 8.1352133648832
Zn 4.910304828757458 2.1725871950860665 5.206754047803331
Zn 6.741622824535761 6.863644078644078 2.3341443318570834
Zn 5.399814945931444 4.738729621431352 5.77219653038403
Zn 3.654181959890647 3.017481293298116 1.6620144230470368
Zn 7.525006220622734 2.903112985790532 4.56955147689589
Zn 4.498884411726349 2.2740660074485888 7.7713146262589134
Zn 8.667980130828559 7.145341581206435 6.212523153257094
Zn 2.607635884577424 3.1022387984680866 6.1081508585957796
Zn 5.9977292920785485 1.6902920449138215 2.8833701722092338
Zn 5.639712281129527 8.869927008328617 3.6436528184140244
Zn 4.8045089647971695 6.486320237362235 8.081828982842424
Zn 3.190641105125673 4.429149728426828 8.163999692894285
Zn 7.192020677758075 9.470377922156166 5.7642059118521205
Zn 5.874753284331974 4.280368147142198 2.9016636502398114
Zn 8.212127469799334 4.456123543754367 6.6722778288264
Zn 6.054050092620026 4.210862324429822 8.499150077200833
Zn 4.65783051254152 10.075680038902433 5.736857210148597
Zn 3.3581703830935585 4.244404924728612 3.989816547206292
Zn 6.931235235122895 2.2558778928491043 6.982273887656663
Zn 2.9309071265045126 6.00700908377869 6.016162719460432
Zn 5.953673790374646 7.133064954038971 5.844881603322092
Zn 2.299092532129081 1.7556059240119513 3.8563595410441924
Zn 7.72230131225225 5.533058513262117 4.394563601956655
Zn 3.8446739185514116 0.5384991096210305 2.281782999334599
Zn 3.202605183563972 8.395076317237775 7.188551089034022
Zn 4.611529915292332 6.4554484984109894 3.7155207458388375
Zn 5.607289662559423 8.992915968130562 7.914617216377486
Zn 7.395613818637572 6.348717980664497 8.36395208377521
