32
Energy = -19.93708854 eV
Zn 9.030419839728856 4.829491561096687 12.596782713394102
Zn 10.250710154059796 8.767297389648533 5.738435603111731
Zn 9.45701410942488 6.231053611192971 5.725335916562562
Zn 6.755394272382785 10.554777082396114 8.206479817092806
Zn 5.647739360039153 6.815238381959019 10.50735132029768
Zn 5.85933922393793 7.3638340623556475 5.260902947803325
Zn 10.268200009399388 5.758944086415698 10.250707869507362
Zn 8.309055715998591 10.032536396971308 4.25288589772855
Zn 10.285425782666954 7.153509516559158 7.971695649229463
Zn 9.109472452347756 4.811973825333558 8.039437965180962
Zn 10.950741057527532 9.692002187713637 8.059522685474617
Zn 6.672168767056733 4.812658618521418 11.68778415291352
Zn 7.901335441088386 8.281518695819575 6.9738477461699615
Zn 7.569239758414016 7.0823366211956555 12.477252354498903
Zn 4.917437557143959 9.013951982218606 9.264702959388012
Zn 7.017179922626331 8.186105744906671 2.7425717915390324
Zn 10.25865829921482 7.042602475860512 12.58494589421524
Zn 5.7543258033107145 6.99848242114093 7.849346297957859
Zn 5.634498719158883 9.811904459927879 4.123847988983433
Zn 6.747664142825164 9.23694623580529 10.965380919282403
Zn 9.393261966974508 7.832797176398638 3.544030350991118
Zn 7.604492424562954 5.976915583902252 3.9647060190609107
Zn 6.727878615004335 11.42852731560244 5.7444558351424595
Zn 5.087085088674476 9.352433368686443 6.67731671462315
Zn 7.123433036038639 5.283592179280815 6.40395579753711
Zn 6.663566951010086 4.836816576632474 9.00207954929076
Zn 8.605010944075843 3.7274124970980242 10.309481109045525
Zn 8.062031049316387 7.264808743958882 9.455370742455038
Zn 9.006152414727937 9.209850217710894 12.120338449851092
Zn 8.827647512613996 9.928701753234538 9.577331888757197
Zn 8.973198193301691 10.831299851972416 6.895653525804221
Zn 10.746106931222522 8.329097579051348 10.281404808697452
