35
Energy = -20.84319583 eV
Zn 7.87986666160086 7.13419960033886 2.145641823328778
Zn 5.908183905783961 5.579357476706643 2.740627937646178
Zn 6.407914197403203 1.1978761387454753 5.205964084812171
Zn 3.687479024454588 6.6891555345504825 3.2522062277307384
Zn 8.366341771295483 4.80669543651323 3.272284711146698
Zn 6.243836708399077 3.5320145971481556 4.186642127980402
Zn 4.491599730498372 5.153806152542049 5.211583598427278
Zn 5.812239777671693 8.169750965741661 3.29817560517369
Zn 9.951639194070372 6.890532744343539 3.5109473265417983
Zn 8.607443166553828 2.932612479476601 5.116046968696736
Zn 1.9727349287520557 6.312451159389648 5.079531712744755
Zn 8.2637024693645 8.784824321481263 4.1470866035661995
Zn 10.071454926397177 5.061038998848362 5.264834619444355
Zn 6.786422428735658 3.049673247181117 6.916757923278911
Zn 4.117324618435385 7.980789159096893 5.45132588648212
Zn 4.185566151632791 2.498685620689464 5.858782691068668
Zn 2.1965541618443427 3.9888276923023223 6.582011145975121
Zn 6.137807888602442 9.568457904627302 5.424499502699912
Zn 9.985357351145696 7.821879404352546 5.8677825360889635
Zn 10.70187583867258 6.05436234777546 7.515591223561641
Zn 2.057772708207662 8.468396465401867 7.389737155013311
Zn 2.5853228813501623 5.439268262262218 9.002716886866978
Zn 4.746352872308889 4.379528464219147 7.6687993400230425
Zn 6.397061821147333 11.262989982053202 7.353455716525682
Zn 9.197252767893826 3.909182400018605 7.493403264881693
Zn 8.468725920635618 9.795168796723248 6.581544212604542
Zn 4.140185043879015 9.91906680888929 7.346927036850061
Zn 7.0645439489118536 4.312155728293224 9.101674103471911
Zn 9.035949272569221 7.901721149682818 8.314754961552142
Zn 4.508459888580147 7.154120268247227 7.880313213642382
Zn 6.54654994747164 8.779001389140365 8.095214858209115
Zn 4.946199433269108 5.588317557207531 9.93360497244418
Zn 9.294724070062365 5.563020844662007 9.504504183469663
Zn 7.06999279456477 6.9035120113451605 9.716799127924011
Zn 0.9481085476641342 6.193703681933317 7.32657252989259
