30
Energy = -17.99277989 eV
Zn 5.109715376804946 5.815632384072072 3.321462260064033
Zn 6.561347879786893 8.107414438398102 3.0709164116205905
Zn 2.6289664366685996 6.296483441987192 3.5923832571311274
Zn 7.707481822624166 5.8227408904026 3.3419039964303194
Zn 3.461929741405193 3.6804379917633914 3.8593898948215895
Zn 8.429615244959026 3.8196396046141032 4.811288827333932
Zn 6.315355875778752 6.405900956244998 5.684214915501528
Zn 6.026365784106814 3.6042694380457454 4.213088022991781
Zn 10.148433888810537 5.688636407638822 4.563064801562556
Zn 8.463814510350005 7.984499834773074 4.883731069706505
Zn 11.23401738825784 7.856634487465906 5.163704886270323
Zn 1.226804430567476 4.674295647599026 4.9117505040137495
Zn 6.20659509569126 9.529984484176895 5.173560675154638
Zn 4.213114409822941 8.125887062181732 4.452920792600289
Zn 2.5767881678720337 7.025672298771486 6.1085449672264875
Zn 2.3590888059167843 2.6512976555691856 6.023627986376156
Zn 4.303968162555405 4.920899304317388 6.038083017754697
Zn 4.743139060048218 2.3357860466975695 6.904415517246664
Zn 6.777977960399698 3.9654971216134633 6.804340156606755
Zn 4.8838091281613245 8.179104182921064 7.139569150760749
Zn 9.961091521350209 9.007284819949117 7.074069718568509
Zn 8.619759237256337 5.771974372038431 6.697149832729401
Zn 11.013100625337154 6.64873040515459 7.402192901289102
Zn 1.6332888074997431 4.977057232682384 7.399930878427255
Zn 6.387854713324384 6.412933516253221 8.388475502500604
Zn 7.380693123300561 8.855203823297618 7.28945159120257
Zn 2.9200988772359424 3.1024428577904466 8.578730292288276
Zn 5.213907488776867 4.203551775350963 8.890866379473605
Zn 8.796028623758016 7.285955104114316 8.838121205153918
Zn 3.703933640751613 6.252238243295082 8.387136416372467
