35
Energy = -20.97233266 eV
Zn 4.823168264520494 8.523529881312204 9.059250204514903
Zn 4.931620529030433 6.833002157960931 6.8494154233186135
Zn 6.858556908250613 5.5561023578849875 5.931074829362892
Zn 4.820220138186692 4.086107925792211 7.247419741947913
Zn 2.617620262543049 7.2767716686017545 5.406035605795132
Zn 2.6163329275135774 7.882266973498133 7.90396396881856
Zn 8.006226982878449 3.667654580988449 3.949477829737105
Zn 5.713762390826069 3.0276303555607633 4.890783833891433
Zn 2.619368021494396 5.414982980532201 7.185567897809835
Zn 7.2925166273756465 3.2745928970545686 7.172291475456892
Zn 4.321597279784285 5.88045842291189 9.271118035930193
Zn 8.8825532835332 4.810966516003594 8.742811589725143
Zn 5.707759032888573 7.03111336367826 11.142451877782925
Zn 9.376710316956268 4.37482039784538 6.052369876949281
Zn 8.005986412453721 5.925077978488976 11.072951770022698
Zn 7.29881968228139 8.881961718056296 9.807731660403736
Zn 6.411509593437389 4.32607571565275 9.4537005547292
Zn 11.07209254011227 5.684783072089074 7.741667786762302
Zn 8.770742106044446 6.873877995323211 6.820923040681782
Zn 4.321828013012968 5.2155923942066105 4.818548113201831
Zn 6.401402811249407 5.888454733336534 3.368331814672559
Zn 6.86276467969128 6.690656439289948 8.405096664587058
Zn 8.878469928327421 9.51566285676524 7.662042389723014
Zn 4.821400433394996 7.908363793958093 4.2894259871598495
Zn 5.694311250933203 10.490792995868917 4.547106920424857
Zn 4.3282931297456395 9.421489180538078 6.49568956390489
Zn 9.36704733409162 8.816307828221134 5.086667178009704
Zn 9.377126706842562 7.38027418354238 9.382922199147217
Zn 8.884623112685928 6.232754169861749 4.121196580523274
Zn 11.08264949659818 8.237678403287953 7.4043193706092785
Zn 11.085669706034587 6.6750016616160766 5.35845268766538
Zn 7.28780223229057 8.36250630978993 3.59101533683876
Zn 7.977044526562054 10.980694578563163 5.5638300310695294
Zn 6.4082498108599815 10.3269901209192 7.788924219430336
Zn 6.837037459412186 8.287887378805934 6.178307815274808
