44
Energy = -30.13287649 eV
Zn 9.315845018409204 4.415340562826777 9.027250286438836
Zn 9.421950522664808 3.01262007537241 4.891861637230352
Zn 8.409656669758293 2.8088195903755935 7.189295324990922
Zn 10.272066186174733 4.72724455736718 6.637645231913901
Zn 7.621798405573949 4.514679808826461 10.907049772551218
Zn 8.077210867662162 3.692701439317854 2.767535333933955
Zn 6.510895915577669 3.7575864340249847 8.695660190009157
Zn 6.852520238760562 3.2611333249000296 4.92939147031856
Zn 9.298235764761364 6.848521384740312 8.05939184072167
Zn 5.086266018335307 3.0287725251726014 6.72392602743694
Zn 9.908230560942837 5.271249586096985 3.8751213833082274
Zn 7.5388794541730695 5.36190138600297 6.58983642484869
Zn 5.225698982597513 5.198307862238057 10.639875726158435
Zn 9.763152742846186 7.209166673021744 5.611596728229833
Zn 9.02861838381146 6.587772080983783 10.553720239762889
Zn 5.61034729594119 4.572567349938564 2.4235730137365836
Zn 4.013379381338123 4.527659332423933 8.37238200137565
Zn 7.593544522245475 5.867313760723145 1.586873772210703
Zn 4.428851382826101 3.64442180208313 4.3662743640336785
Zn 6.223814925353749 6.623778639867577 8.560283922944777
Zn 2.771551338047543 4.650598678437964 5.966070133434568
Zn 6.706145373744829 6.276579549199487 4.267540353212915
Zn 8.832665359793634 7.476818000800551 3.1230647926647683
Zn 8.788192694450423 9.435942390494173 4.7279713141618105
Zn 9.272137044042859 9.296741598705294 7.298007592563313
Zn 6.702103301774309 7.307392521116387 11.139455080064742
Zn 2.771051352953452 5.845246502188607 10.21621289315702
Zn 7.130345606962611 8.304655589825874 0.9441722601564636
Zn 8.113827627298852 8.793303743614418 9.536677703367854
Zn 3.4818478001127726 5.971809960134427 3.7319589989596746
Zn 5.08002369076316 7.1502019239418315 2.074014104188525
Zn 1.8122675590866357 5.9770227666173845 7.8477434129704235
Zn 3.0334140314616036 8.048881142405905 8.844373624941472
Zn 7.085047713387187 7.931826364451612 6.37100500213033
Zn 6.7008441336903015 9.039305460932523 3.3179392960613217
Zn 5.084028424081403 6.116385812077547 6.25180230280465
Zn 8.16965305916866 11.378806251776435 6.18024463485477
Zn 4.531003468442717 8.31392361330965 4.440593474811996
Zn 4.134544187395671 7.642539749547526 11.23770169556254
Zn 6.714143435290878 10.359419466321382 7.936982398334389
Zn 5.4277932251089185 9.077787788428093 9.63169065205473
Zn 2.6836768472459447 7.38600893373087 5.9584183234457395
Zn 5.969033442718996 10.34608738668693 5.375947907205087
Zn 4.685741850670402 8.823202436398901 7.053913164183711
