45
Energy = -31.10783769 eV
Zn 2.8036845138407758 5.710843210202624 3.5692861807225835
Zn 3.0233013621681675 5.42054447536187 6.076240859590103
Zn 4.845335958720865 4.3776142266556075 3.376951364249226
Zn 4.148476894554484 5.81858321053166 8.374351935352797
Zn 3.0475335950767977 7.866947465413167 4.857054161629737
Zn 4.8546728804872235 3.5993296968988178 5.90648239359755
Zn 5.002826239511575 7.093405893681384 3.2677966234427904
Zn 2.6875744962691166 7.743044033329813 7.376309539997779
Zn 3.156975222186408 7.763875139778359 9.838857797594768
Zn 6.8969032151025225 3.319372480072358 4.222561176209443
Zn 5.5117804086293765 6.3425281983446435 5.919978563968155
Zn 3.2025836942077186 9.971124774405775 6.202400357547723
Zn 6.930104890801655 6.068002893232441 8.153382469000771
Zn 3.8900515661587187 9.955787522376097 8.635938289512568
Zn 5.402327257351778 8.999632312944849 5.035129724809079
Zn 5.57849443330937 3.6582035513700584 8.358688246881536
Zn 7.144853104821275 5.72977850713601 2.9585825807907
Zn 5.048235947255007 9.106018023235558 10.817243807569117
Zn 5.1803990979648535 6.524141038549255 10.674237550229071
Zn 6.261251137686 8.49378323368888 8.001488647595579
Zn 8.835261669776616 1.7169434861255646 4.861275401642135
Zn 8.006505299425093 3.0364392858401392 9.09136443762051
Zn 7.183036568925783 2.5396202307056432 6.689580071472992
Zn 10.837978446416834 2.952823076383612 5.451700986462471
Zn 7.861321415553744 5.124301810514063 5.915060075601876
Zn 5.4733324568463715 11.003999055389846 6.792444773188067
Zn 7.784783695327654 7.682702991224085 5.988930649981784
Zn 6.640654947510665 4.492040021667226 10.60377691312913
Zn 6.307785257389385 10.810296348795605 9.332229479060844
Zn 9.055403864781965 5.353127045007389 9.605674493245102
Zn 7.292808003769081 8.34145545998165 3.3525931466656766
Zn 9.212286837447015 4.313045062160825 3.6514025201273563
Zn 7.535241231332549 9.230571087855786 11.037320124699809
Zn 9.367700144359677 7.9661832506455665 9.768108605790255
Zn 9.453480836496 6.913971725815613 3.524389736933162
Zn 7.4868489719744105 10.537278518132533 5.106554676733447
Zn 9.685045002171833 3.9859955914900453 7.4971580021101625
Zn 9.012608636200179 10.433765667887009 9.3481627159202
Zn 9.807253199409224 6.806807105907098 7.534265964977692
Zn 7.632964231578908 6.731010934662596 11.296891010651828
Zn 9.437616555036355 9.534202939524354 6.924188270232396
Zn 10.67556759685212 5.475401884876046 5.458023190135334
Zn 9.509237513522564 9.479847080016384 4.144906349885616
Zn 10.897927471226422 7.952094541072205 5.465818116123711
Zn 7.871291082376277 11.504822762920794 7.416524869128188
