45
Energy = -32.19657481 eV
Zn 9.208117522193996 5.543858201551787 2.8064219938575548
Zn 8.282321196311388 7.92194583011808 2.7177257634943084
Zn 6.68966265813814 5.816447209856317 2.31082241593553
Zn 5.785291918528152 8.16903560135622 2.253966334314943
Zn 3.9753300332426837 6.37057566135538 2.907921384929835
Zn 7.544450236817152 3.7351331784754676 3.6522561176448214
Zn 4.266281485096056 8.806937651795588 4.1004115992181065
Zn 9.765064258145966 4.36150090194556 4.978167214356653
Zn 10.359539424281444 6.988514554663558 4.606215054059497
Zn 9.367046174949879 9.409370049672072 4.405901338256893
Zn 5.073890440646219 4.062831585326896 3.068228342511211
Zn 6.797031612103139 9.64519268675076 4.133959684203034
Zn 7.71156087094022 6.76399303258199 5.085990850006406
Zn 5.248872996380835 6.216127093023261 5.265043893845754
Zn 3.2681149776358485 4.342762468124038 4.775087787019993
Zn 5.109577996746631 10.708438440156058 5.896678226750833
Zn 9.757840044602451 3.4205602140972537 7.337645713468205
Zn 5.579310634374287 2.716357085736919 5.1174399929979995
Zn 8.13941869358994 2.298099970348718 5.7141276036683015
Zn 2.60769535056814 6.9396502870018315 5.110125976031628
Zn 2.884380594345002 9.305227858429165 6.110941978193161
Zn 10.023537210777855 8.57436633873776 6.73851558816993
Zn 7.1758222695505625 4.732764438365876 6.625259494024288
Zn 10.441274861400496 5.97881303039308 6.957758722237439
Zn 6.155638556430313 8.404519545587572 6.5701789645004585
Zn 4.353135349835932 3.8578672009655763 7.102487761232782
Zn 6.3114648236679045 2.2401723685043695 7.550961490785852
Zn 4.13014345116279 9.670068567775658 8.308074438618442
Zn 8.163780400672612 10.448747982899866 6.369270081766189
Zn 2.1765155463463173 5.143015389346212 6.933023792481647
Zn 7.813906913656154 6.821030741726761 7.965333483283388
Zn 5.254464474181745 6.44864711227924 7.935055267792538
Zn 3.651287678185081 7.896766107174538 10.075818770882982
Zn 10.244234064530962 7.580483197458807 9.060359642731925
Zn 7.9703838396471465 3.169541007401616 9.144738556526734
Zn 5.587866966546332 4.07019514596766 9.499641776037313
Zn 9.648233199143583 5.142071925879283 9.285918097286082
Zn 6.4165466855688935 10.774445535743627 8.176745094334473
Zn 2.546970218620185 7.473185840041769 7.79839185727707
Zn 7.635985629851925 5.056360640032298 10.853333562580122
Zn 6.097486491502268 8.900044746205515 9.906832774069501
Zn 8.480483525883225 9.431770039625023 8.782847575208375
Zn 3.286850832848123 5.374495405611977 9.32155316257255
Zn 5.5687921854302775 6.441468631740962 10.76681176817081
Zn 8.152967110812785 7.535170904058376 10.624580418555652
