45
Energy = -31.06907733 eV
Zn 5.713726161845829 10.658176225216613 4.628194443331335
Zn 7.78806441686448 10.785048900812667 5.961054024696517
Zn 7.172981132440181 8.622922703361194 3.7844686405180887
Zn 5.258799027487693 10.818138386959623 7.308654177190162
Zn 9.459380502465496 10.064236368898442 7.667691588788486
Zn 7.278097836500382 10.768921617791609 8.719775404753856
Zn 4.5162663287547735 8.956488897128711 3.19546486225021
Zn 3.555924589119965 9.697589598478642 5.720794374651132
Zn 9.231256836693403 7.0279373896217034 3.6696007421690346
Zn 6.411298794596586 8.33760083137549 6.434272750576757
Zn 9.044197519361663 8.371861825404535 5.787387796970132
Zn 8.92591128461646 9.019866602577997 9.898619851116825
Zn 5.712302710758157 6.758539061719524 2.507376360102207
Zn 4.165013266251439 8.541989630016207 8.041122831273
Zn 8.020091807936451 5.548216408113693 2.1423398692998794
Zn 10.483124980257115 7.776006807172128 8.02700542930639
Zn 1.9887555023244745 8.468740493430856 4.13678958666228
Zn 6.55022329686743 8.118706789051243 9.107367677985609
Zn 9.998082209127892 5.862319423155846 5.792364210788753
Zn 2.9292351811239694 7.1651922190294846 2.2334564207772707
Zn 6.950761437693443 6.06881221299234 5.000053712048736
Zn 4.539170206882881 6.983047165123998 5.105843926487126
Zn 6.141657446736211 4.129461381624183 2.993797963477613
Zn 10.537578126899527 5.343538238682318 8.394204011391702
Zn 7.917378593694833 6.40922786357442 7.501266453674681
Zn 4.600446659068517 4.258738224559538 5.13738567640936
Zn 2.0412037761777864 5.811137480307474 4.508216687967505
Zn 5.191113387910901 6.084099374501781 7.456747532682661
Zn 2.253073200118219 7.453193903685907 6.583789085031533
Zn 8.74871880891492 6.581003215878923 10.179438576929652
Zn 2.7748406132930494 6.605415138163429 8.97835918581595
Zn 8.503323431879894 3.953443559616291 4.432301627039591
Zn 6.32310753794508 5.58409059339739 9.819114964281612
Zn 6.280514593689278 2.2079863910383266 4.653587278047468
Zn 8.52020720074479 4.127773697987145 9.426118514244981
Zn 2.707103499053103 4.898307367060094 6.926256923548715
Zn 3.674808317178095 4.848685977692689 2.6655759628351126
Zn 9.568544027051455 3.5476408769641976 6.819292730831086
Zn 6.816950247432688 4.155850700025771 6.809808735482655
Zn 4.278549343730038 2.9415355114409887 7.378263673214864
Zn 4.0142129843266305 4.521000782731833 9.43886840452722
Zn 8.363721188504186 1.5421364650341711 5.825625509229011
Zn 6.09732642757301 3.0269246962860197 9.202019248294677
Zn 8.260113721444425 1.8434834616694538 8.368800412388108
Zn 6.115814999227584 1.1453360648596445 7.070259654593007
