41
Energy = -26.36191411 eV
Zn 10.290347189042155 3.740078209629896 4.992749462498834
Zn 10.094452898159656 7.784623765476506 6.683706937868448
Zn 9.595666747880584 2.299570007458596 7.050117169958208
Zn 9.956465830203271 6.1690321377249715 4.479038909001863
Zn 10.061218160029386 4.041345901530999 8.853752525866401
Zn 8.348316564685732 2.045985807496242 4.826814345080537
Zn 7.998592528424885 4.460493232217438 3.867691555063215
Zn 9.473752287705361 6.5534693202910015 8.851691546373655
Zn 5.91638607181901 2.7890721589700127 4.694632366790751
Zn 7.48910801366012 6.987445128426139 3.6220683443169333
Zn 6.917409752490009 1.8011091651283013 6.949499119098054
Zn 8.076087333049696 2.43768227540609 9.135840174326866
Zn 9.123798709399972 10.32434390723621 6.051103971792375
Zn 7.424061479485763 8.04521282502293 7.2247465736920224
Zn 5.587780127999282 5.311508683652578 4.114351157163462
Zn 9.091671139231497 9.104022741725254 9.02838439155694
Zn 9.308841612157293 8.566010005359368 4.357760603273843
Zn 8.916291836630693 5.227241623668281 6.697588128069879
Zn 8.883517599570618 11.461920838220621 8.240417652935642
Zn 6.306065440803708 5.463520540531149 6.800862377355075
Zn 6.91662276478203 9.529629780616629 4.59417340895577
Zn 4.445020939732091 2.3786111964904197 6.857641966263649
Zn 3.707931456849002 4.086866254137897 5.264640876194599
Zn 7.555769668348703 4.913079585546465 9.584817694751756
Zn 4.952688884936751 7.550414915920425 3.252988199429103
Zn 7.267953400370293 7.357604288860645 9.894804031459222
Zn 5.168584758819942 5.945704744423677 9.337216365175456
Zn 5.321762488409873 7.88877150488742 5.953297487657988
Zn 6.682083447273469 10.539726372951124 9.21860432166737
Zn 4.479612566945197 9.993123012695934 2.9931446994711384
Zn 4.450206477579 10.298622254291551 7.894910853507598
Zn 6.787509849607764 11.155987995051646 6.669830681712928
Zn 5.681111454927157 3.397848343798209 8.799386982099099
Zn 3.229700225876259 6.527762634610432 5.310088438143171
Zn 6.872610297218105 9.368736101897925 11.464848249304893
Zn 2.501609655248044 8.512606746428895 3.8297207105472766
Zn 3.5084923484325006 4.71151712224405 7.765495032497765
Zn 4.979580001110054 8.513978306398286 9.55639581310738
Zn 4.701928229937108 10.676036304961467 5.363161163953896
Zn 2.8620758958723265 9.108877359998536 6.274700860257643
Zn 3.3927822302924344 7.256275263612399 7.922783216754201
