45
Energy = -30.58260559 eV
Zn 7.565195618380712 6.503165793971415 2.212207206473429
Zn 8.728871381415638 8.432347824300788 3.536949896429018
Zn 4.759507812657674 6.646077142848663 1.7530283610555792
Zn 5.879005326648883 4.327506574678726 1.7294140301051453
Zn 9.81803387482915 5.8697707533331105 3.41359063358278
Zn 3.484062139630195 4.130455622653308 2.8189715029122397
Zn 3.5734475775043433 8.677527877473283 2.9284431144127656
Zn 7.997187439719634 3.9374149071682343 3.18513038656598
Zn 6.138155764330994 8.488794698638712 3.269174063734614
Zn 5.894033919685441 5.657921871912884 4.032849320407545
Zn 2.360055484426894 6.476947022664271 2.7195299963904174
Zn 1.4860216133582802 5.0378811016462794 4.558240531934018
Zn 8.07910533356354 6.315819477320557 5.185900193573222
Zn 3.0544535175464653 2.222018323268944 4.800429986223738
Zn 5.544038109069812 2.5833250785169866 3.60706855836753
Zn 7.430035940971922 9.897163381887632 5.2931882927691145
Zn 4.4320842899001756 9.66848928152715 5.043278790943663
Zn 7.752717146633357 2.0474463762749067 4.920153130525462
Zn 3.9257742486094163 6.798436244752612 5.142387465308077
Zn 9.527357575507997 3.817351809074614 5.402201299813848
Zn 1.87029680555731 8.212727620927733 4.932114513603914
Zn 4.257448543370149 4.28805901192891 5.528514498505385
Zn 5.521647042380277 1.7428480530154757 6.1537634994151444
Zn 6.119022581856752 7.722308934342559 6.015357027805501
Zn 4.84158296403861 5.881841732463133 7.404411721705112
Zn 10.587750997883111 6.123270699650311 6.0112837242741195
Zn 1.8302047823188805 6.414232108619999 7.009044560502302
Zn 3.446051511808021 2.1998761700343743 7.450578067338639
Zn 7.369391285373598 6.11515330178869 7.66137519805011
Zn 9.59293110116089 8.621259471881132 6.014050293361074
Zn 8.11900554370223 2.5834819839072356 7.570866430599872
Zn 1.6521412009031575 3.831817748227801 6.734796899622484
Zn 6.73968813428936 4.2171652276095655 6.045404989007802
Zn 5.611915281965735 9.998557407553285 7.306509111248846
Zn 3.3838770950697796 8.601177536402764 7.265943081566639
Zn 9.789804149122427 4.545296380766933 7.958507975501508
Zn 5.598791831206481 3.2118835615028947 8.470597991749953
Zn 9.718492789207435 7.210821141415541 8.226053083363315
Zn 3.2021159993631985 6.88932885721597 9.213704772362044
Zn 5.496490811330138 8.124941088207567 9.086212276426991
Zn 3.08797506938059 4.355169571374452 8.834970124473562
Zn 7.820043327801575 8.9478681774917 7.98316837580785
Zn 7.738539784466348 4.199606867539919 9.598790520425158
Zn 7.672430516930321 6.9428002256667245 10.039786335935046
Zn 5.480635790563792 5.46006501199176 9.909477221259298
