48
Energy = -35.12987966 eV
Zn 5.960297760487258 11.693011717179303 5.926320353528059
Zn 3.885736535988793 6.208415711984658 9.708893663193248
Zn 1.2359281416625616 6.8749388495277675 6.289170885953171
Zn 5.258944026244217 8.373061154783962 8.877068181699087
Zn 5.947837167927749 5.716166343352195 7.793372813759082
Zn 3.0611008898872942 7.7292245140781315 7.811774443129939
Zn 6.647244892825542 2.9361929843315946 8.935263360888829
Zn 7.782487481948468 3.5785106477915782 3.1412373024109783
Zn 7.822715109204814 7.713472901897442 8.83708929122111
Zn 6.663878026064084 8.31603172247622 2.9805141677163802
Zn 9.70776043072811 6.185308607537748 8.026087584958123
Zn 4.115684021152437 3.6583518400771133 8.815226456757415
Zn 4.080845820403656 7.680621365753071 3.0299504564356083
Zn 2.197602425592437 6.175356559141141 3.890600636029842
Zn 5.95662420711242 7.671758034466824 5.951026172768159
Zn 5.949542106273776 3.691494048467074 5.973664929224977
Zn 8.913309104302316 2.8635339199127365 5.288911000727204
Zn 9.657217125134986 5.07851905531305 3.9276845316329356
Zn 4.118178744207638 5.713554442910318 5.955984285853754
Zn 6.056825473907091 14.346207163630764 5.72959354378532
Zn 10.65302909881092 4.446426239418341 6.30306482673885
Zn 7.99938485416848 5.149336858026794 9.69363037605708
Zn 2.9834191162197143 2.9021068248804025 6.6847637177453265
Zn 5.248896429025468 2.87005464408813 3.0505964040668894
Zn 4.407575122655079 9.775978624168564 6.899114583382414
Zn 5.620652884213815 6.7882330704963625 1.2346559360610894
Zn 5.612260297310908 4.481939096744309 10.674392484645066
Zn 6.283931581286846 6.890072401072933 10.67056113512906
Zn 10.675089702043092 6.848811424888691 5.616912857717992
Zn 3.093187687114442 3.6138159600324182 4.146464928372194
Zn 2.233794648680265 5.148314611051099 8.00755974639183
Zn 8.922837733838184 8.357148566405977 6.644211323855098
Zn 6.287282394071286 4.379017434191715 1.2712446793866892
Zn 8.793218052258698 3.6473818519019434 7.806171368104803
Zn 3.907573810013215 5.079842341392024 2.2645964603587423
Zn 8.870490901093405 7.676207063438017 4.052442491205341
Zn 6.881731883477719 1.4831260612745063 4.49733406444547
Zn 7.4591191828773535 1.4988603476853102 6.957183071379885
Zn 6.963713592829604 9.776717152494442 7.471551829217727
Zn 4.4190917981888695 1.4872461053215678 5.058162654118939
Zn 4.978562218790754 9.74976615683527 4.356849404190882
Zn 2.998500474429031 8.360796946420411 5.2247649621086545
Zn 8.020186237976507 6.119517010243171 2.203810310611875
Zn 5.001355619193652 1.5044979019683662 7.523287195875732
Zn 7.78788586655239 5.711574541519145 5.967264053991908
Zn 5.958188332269081 5.700149735949889 4.130132954359174
Zn 7.5336342052401015 9.747812408598262 4.925298631010642
Zn 1.2470283277651169 4.462898578329265 5.6359250312483296
