44
Energy = -30.52353915 eV
Zn 9.13947752232189 7.572175490798616 9.399304003348123
Zn 6.76625009109023 8.021649604865148 10.16515095050196
Zn 9.580056071625018 5.683158669636713 7.793059946359249
Zn 7.822549455845142 5.465409460522001 9.80569902814327
Zn 9.930884607370261 8.42021934787108 7.123608232427511
Zn 5.50998528723973 5.877046555859754 10.863359628862742
Zn 7.81771009480399 9.44719486886522 8.084801935664544
Zn 8.17687469405105 3.4847557088661496 8.193555665037408
Zn 5.391788096760091 9.685796921376312 8.818261164169888
Zn 9.92207090081414 6.704097905332303 5.209577527738322
Zn 5.867178922699631 3.751780369457304 9.440891287703261
Zn 4.079885385174241 7.839202024277944 10.037199802673317
Zn 7.475532465151924 6.898742736610341 6.193028747605705
Zn 12.277999097613403 7.8295359113373415 5.965806007778258
Zn 5.547787093206014 6.825603234265917 7.829335069843439
Zn 8.411102696780478 9.41551099720706 5.373131559474218
Zn 7.838979908459997 1.983288183520863 6.144746545537906
Zn 6.146364908446444 1.679003438505778 7.930601028853317
Zn 3.729527730143921 5.212081969471233 9.16050438870325
Zn 8.888745701630638 4.327960758590444 5.72302711245473
Zn 5.940142886002595 9.279696677838501 6.322550562703951
Zn 6.299864815737687 4.6208627029886395 6.540349878483537
Zn 8.909692485323236 8.039635797525932 3.245153412147612
Zn 4.222258901336703 3.2648765479407214 7.394181055833964
Zn 5.408329264461521 2.056504500011344 5.27069363296714
Zn 8.929014484186872 5.355373183493389 3.2476060942280394
Zn 6.253494993554672 5.619567911883105 4.138458231153957
Zn 6.46722123371582 8.449681420408998 3.9215887869612702
Zn 7.607236842948323 3.0188821998912454 3.8790663389034914
Zn 3.9455879451132527 8.798391394421795 4.7246041498620235
Zn 4.27760081391908 6.1983842041600665 5.587851280082369
Zn 3.501174587827053 9.05958495545279 7.304138401390051
Zn 2.267380886686247 7.139244848760388 8.409276703500671
Zn 2.3510229110888536 4.998138495807511 6.964839390383361
Zn 3.3069407722481055 3.5128102956774905 4.908232525096394
Zn 7.1046883756979575 6.937396339037968 1.8154988688256868
Zn 7.356683500980929 4.147102598778658 1.6849591679346163
Zn 4.540239835891904 7.439076018746881 2.508513114770925
Zn 5.124171578975432 3.2430420825566904 2.998033680236742
Zn 2.223415672740602 7.431269897091465 3.4185410108657215
Zn 1.8860485268392277 7.556905481015741 5.949093952322468
Zn 1.469976849161829 5.35694741329357 4.612891524086186
Zn 5.200975426762171 5.302998870288751 1.2930278436166907
Zn 3.1867786046680293 5.00614954719378 2.7742453964327325
