43
Energy = -29.53646392 eV
Zn 6.4858670014558415 5.062465947010426 1.4688449157502508
Zn 5.969554771629417 2.9433872500758778 2.7912632628879295
Zn 4.122639304698584 4.9054060856231745 2.412014719316285
Zn 5.757378062293792 7.056273783125047 3.0248153021461763
Zn 3.16808681706479 7.252185233971793 3.343490850861521
Zn 8.293488072010987 6.572623941995943 2.545808805177017
Zn 8.471066239086404 3.5612017641103444 2.0334281849808375
Zn 8.761480972689146 2.6045599011081038 4.41567889706292
Zn 3.9800490975907716 3.160262511215159 4.462961542359966
Zn 4.767769460571589 8.34701472145932 5.114558862808588
Zn 7.1056491082157915 4.822186880804561 4.313611381580878
Zn 2.1970902363340947 5.1698496910887926 4.304980768764284
Zn 7.58769306652201 8.793682807442876 3.796723538287625
Zn 4.8748456153419255 5.665221076822586 5.1266068816368
Zn 6.284007421002177 1.9334539088896774 5.11852989778511
Zn 7.207678176540504 6.8848636854864935 5.728318855122406
Zn 9.869345622711846 4.877969891401541 3.793294504933147
Zn 2.3504607262073365 7.2317571891665375 5.861235751393582
Zn 9.775104396276499 7.345535832200008 4.529822324036447
Zn 8.931946651231776 9.322713575051004 6.029980653540661
Zn 6.483468125420548 10.254712059934285 5.561484651363349
Zn 9.081958787710883 4.771429545626542 6.266514204555613
Zn 6.204697439002777 8.393279768067881 7.458457877985617
Zn 3.172652736534415 9.420952655206925 7.037547985111713
Zn 4.904188791207714 6.330268605523191 7.598949457102751
Zn 6.485163230151024 4.4564552571655 6.780203613581655
Zn 4.5942288360268755 2.680429712091848 6.951968483699713
Zn 8.183586350607026 2.164975970280085 6.851620196287849
Zn 7.610301452666932 10.908853449399059 7.764393371982626
Zn 7.726814286291063 6.285955842194183 8.329514654719517
Zn 5.0437949799646375 10.904879351722931 7.83678814212993
Zn 2.541520601414442 7.274364153083039 8.483678180704464
Zn 9.809574423202404 7.146691169397373 7.065216668355441
Zn 4.276452838501832 4.181124525128299 8.958401879662762
Zn 2.933268064220748 4.7328648215985005 6.714900908092984
Zn 8.547895658315428 8.714590567678398 8.822505506092194
Zn 8.469774037629918 3.885563745159837 8.719740089502787
Zn 4.356379003815125 8.910060565954934 9.449494103595288
Zn 6.5998801411411785 10.100387089136499 9.905496578231814
Zn 4.284575714743532 6.471188697582679 10.29952740623555
Zn 6.481859663594965 5.005171469478838 10.227476436296802
Zn 6.343255423667276 2.6200880719786306 8.954822199158261
Zn 6.635408398255365 7.604997032122335 10.477227308681302
