47
Energy = -32.95528832 eV
Zn 6.881636946601781 4.084841633754213 2.763377814781697
Zn 6.2455113433106355 6.308318204380162 1.8043813433981473
Zn 8.57298189941643 4.0409943881659025 4.669454712244171
Zn 5.532279104205888 8.577699274745527 0.9244763187391476
Zn 3.8688872002644774 7.320356873546514 2.43116149358438
Zn 5.889660590722562 2.739291653177799 4.663862224935962
Zn 10.387432007955928 3.926811851259436 6.603396156824428
Zn 7.576124004753706 8.686881289405704 2.6008624149554844
Zn 8.181398413309214 6.295864806132192 3.4720914917549854
Zn 4.4801129921910245 4.810740013080856 3.262715446498845
Zn 2.592704774084081 6.230345487893949 4.406205605772403
Zn 3.792942041400065 4.291882076879727 5.668491603547288
Zn 3.475098975202117 8.705127213018319 4.568005111546425
Zn 8.01480292199112 2.190736168034489 6.273532845968236
Zn 5.264626228407152 9.876263713945747 3.0670640915398373
Zn 9.168983816243182 8.522434788985779 4.643734185201426
Zn 9.917773256270985 6.15050565283674 5.3330413008674205
Zn 3.9401920937366053 5.130076954548912 8.421238845803423
Zn 6.3271642601799565 5.386228511688647 5.534340103335355
Zn 1.9472977725428842 5.631109241902336 6.846320929373367
Zn 5.635992807109852 3.3207237520230155 7.156841758218797
Zn 5.898336516702014 7.5906392576680215 4.413319130252815
Zn 1.616812959046193 8.026796422161633 6.213243512142363
Zn 8.060363026324174 4.893540848584878 7.329466590503195
Zn 5.302794863257556 3.21854203426454 9.677823208105973
Zn 7.389138469283009 10.325149923841524 4.80519264346758
Zn 2.4960043051584977 7.495200518409442 8.543355875740263
Zn 7.2113510744428915 1.8974452906712342 8.694561794818663
Zn 7.615439068710401 7.4268309114843145 6.561084476760128
Zn 3.4981783931386676 9.559722025931174 7.0667382232861495
Zn 4.656315193828953 7.128041914788298 6.574426874607224
Zn 9.645114886183972 2.472539153321469 8.466288687966628
Zn 4.906265753273691 10.801586481044422 5.382059142291224
Zn 11.54590758318982 6.16824198474194 7.355772625274086
Zn 5.776569720773031 5.28983153754544 10.994777158643336
Zn 6.2561132609851215 6.247879441500204 8.426270552641823
Zn 6.354815646870944 9.887717370458576 7.2203783533810855
Zn 10.992200129028566 8.426808393857382 6.434018422395152
Zn 7.834184644690718 4.162712919010355 9.8964211403594
Zn 10.11746322794455 5.060958596684639 9.149203551021643
Zn 3.8625143841734912 6.822628348197771 10.588136964560192
Zn 4.890218925248599 8.692976361325346 9.030515508596334
Zn 8.926976811291086 9.75821732647563 7.079236538732681
Zn 9.795295148015077 7.693354155851374 8.624602807720438
Zn 6.174950856505554 7.849430621475355 11.11986309625228
Zn 7.581579980686344 8.781873616878226 9.201777946858895
Zn 8.32540555681982 6.610037186085918 10.476265540790864
