41
Energy = -27.34699288 eV
Zn 6.082799339113894 10.947519646276351 7.039632625946992
Zn 4.036733098594327 8.949590795312279 7.252058633053277
Zn 8.035040018219908 10.830794396131013 8.677056792546942
Zn 5.812488492352286 9.348397313839817 9.13677396858837
Zn 8.009898350084335 9.028055802765337 10.678405168869475
Zn 4.523698894214357 10.348251363996033 5.122284409852344
Zn 3.072774701558229 6.473139518948983 6.676050740654064
Zn 5.338969480446081 6.088293944294024 5.367320440029998
Zn 5.256436420648094 6.79487418718457 8.19516339293263
Zn 8.67494845475831 10.465139953790093 6.057270767566042
Zn 6.485708709455842 7.151458100277653 10.382633178782655
Zn 3.7680427635888356 4.593567717027161 8.373393825594825
Zn 10.172874878020416 9.944276765692932 10.112364646200213
Zn 3.422105390927443 8.150057764662392 4.728366240206634
Zn 6.457493941064144 8.347794071571155 6.053481833591195
Zn 10.570581436664286 10.141267369167215 7.677150929115956
Zn 8.132300546453132 8.271862792423926 7.976698334073892
Zn 2.566780329120018 5.835846710419881 4.024393938902358
Zn 6.4812418937823475 4.7116143702759254 9.75237192256404
Zn 6.866303919938211 10.836574245070912 4.3564284143542
Zn 3.1725106015378417 4.013246537759967 5.710101602323561
Zn 5.609806787592547 8.758178239089354 3.3534723733686667
Zn 7.5748922295866885 6.149709230239574 6.776216320023417
Zn 8.341682050391112 8.633565608214298 4.1394402567304756
Zn 3.7498905342828888 2.2036903956033047 7.342568322370922
Zn 10.72862947361288 7.7618755841341445 8.730627284784799
Zn 10.085271246363718 8.110734074395502 6.057489160392461
Zn 6.031378204395678 4.150754597793356 7.029026862077305
Zn 8.722182561027939 6.14040625516867 9.468111090568408
Zn 5.2654206730608735 2.560487141628086 9.375363420396246
Zn 4.395101275028799 6.692709208270782 2.4138251472184873
Zn 4.754618700973806 4.32873404162915 3.3349940379667915
Zn 6.935781973497685 6.537755820588946 3.2596645291097497
Zn 7.281249002583962 4.3350034993833 4.526282308801696
Zn 5.261875153645318 2.4308186007955137 4.986809441623513
Zn 9.229736644170023 6.216150853460777 4.613886027605243
Zn 9.608195829020524 3.9035597083542597 5.6900623762665905
Zn 5.964701421431407 1.0978671287684816 7.262442736489775
Zn 10.353842889839767 5.71225240184074 7.2921939513416305
Zn 7.769109030491683 2.2798807710866624 6.054852593262338
Zn 8.517315723415749 3.895730804624634 8.054386889980979
