42
Energy = -29.28952408 eV
Zn 3.180367940359141 7.609968571982587 4.482252525263807
Zn 3.3268021354289874 6.0227291636413165 6.566112303796161
Zn 2.867506712717108 8.590020294656437 6.824581956987234
Zn 3.9716470227413123 6.604429143517385 2.27448001620728
Zn 4.4809572411572605 10.476290131430142 7.295397112761999
Zn 5.190690140503983 9.183696086477555 5.074774242022321
Zn 3.724274853080881 6.570842209164389 9.199316744799091
Zn 2.7526668402696917 4.168582400118426 8.253922635713762
Zn 3.7247572751129217 4.910228768237762 4.154238146999728
Zn 5.541468048104355 7.763228513879683 7.503088572015859
Zn 3.5042273643233086 9.274561604230787 9.238208590323119
Zn 6.249343544015437 5.428378363219106 2.6678641140504147
Zn 6.839619884045882 10.688094361592094 6.393279610149847
Zn 6.00764092621137 8.062932402742167 2.8273084088708473
Zn 3.9076412581862603 3.244330948924922 6.126678017296484
Zn 5.321058065707103 8.25464176369443 10.564742878041988
Zn 4.359710015221304 4.161085090037092 10.23330128815475
Zn 4.482387702764349 2.2880806885796012 8.466704689400576
Zn 5.731043816637987 5.162922070929856 7.539230539323532
Zn 6.3570120839412745 10.124311109135549 9.052200427553355
Zn 5.774896729012074 6.539429041714583 5.209739968189141
Zn 6.161649825523822 5.895553380225469 10.334981960138167
Zn 7.619335599924786 7.89104711872282 9.27195016092462
Zn 6.046408662069471 3.779031773802281 4.660996155725618
Zn 7.519357072332546 9.776172023277505 3.905090387126421
Zn 8.814517201891865 9.88337194338858 8.004580839966327
Zn 7.800525719943751 8.000240247084276 6.245527505911905
Zn 8.248532295473723 6.8393720431794165 3.7908174183223378
Zn 6.435924300617108 2.5155839157643016 6.870182085596201
Zn 9.197276245498545 10.834320877299875 5.561295302684353
Zn 7.913475172368925 5.385724689596314 6.1069286609436295
Zn 9.863777153632924 7.317483705925186 8.005341250040527
Zn 6.695290567524976 3.342056661381939 9.412099415048678
Zn 8.246711751966696 5.389019150629194 8.79086938314529
Zn 8.347591527588419 4.160422628080542 3.3178675936525193
Zn 9.898043779370866 8.835056554345522 4.065074149235463
Zn 8.558713902971578 2.6360601820645515 5.356323557851361
Zn 10.470695225823226 6.731726265076641 5.514631213308636
Zn 10.798458122325915 9.107298012646169 6.485211639927951
Zn 8.819103485743012 2.994549779342045 7.906273578380336
Zn 10.451119885080479 4.857873825698442 7.3021163247510925
Zn 10.402376638536204 4.262622467130928 4.790058678535111
