42
Energy = -29.72635561 eV
Zn 3.741029769083943 5.844956344555946 2.907523708144442
Zn 3.783169339674628 8.485144278158684 3.5567226312375717
Zn 1.9705669163477557 4.569949425066707 4.383917170924307
Zn 3.1596200926713687 3.2777794293432687 6.2776988580496385
Zn 6.065656203489664 3.7779356265134436 9.571368091416524
Zn 4.594833827872754 9.574699214767154 7.842909574792908
Zn 8.256615665202238 8.559350414004511 3.5544721046772296
Zn 8.416601056452627 5.900333394921542 2.9138123059374696
Zn 8.305066733935863 7.314501953031859 8.449516723389893
Zn 3.908226930255105 3.1493429956011583 3.7089470050726687
Zn 6.084402002297304 3.913902677070642 6.020078394495218
Zn 5.996835724040463 9.782085612991883 3.6723479716666123
Zn 6.002561237886074 8.233963500246166 9.54328227870769
Zn 4.1026510345324905 10.396965202240617 5.257992553804655
Zn 5.975447691881985 11.350265309880713 6.594296785582418
Zn 3.870163867753612 4.638054617236081 8.366540976516305
Zn 2.927260654030415 8.348901538116577 6.230172289971839
Zn 8.267472900713058 4.7343074183950575 8.423000704679035
Zn 6.0522256343741 7.186668522324739 3.157857008628297
Zn 8.984455750377908 3.3944767245086305 6.319276200226552
Zn 6.011535310651464 8.108101448608494 5.975184975105089
Zn 7.39012516495473 9.650069091226888 7.865352384289506
Zn 9.070852546217264 8.450500574410675 6.258673453659425
Zn 2.2972110673978916 5.83816725027922 6.625449922450018
Zn 7.251270677982462 6.026015728035037 10.440724118526713
Zn 4.800502584012611 2.204103993831846 7.972755323309429
Zn 10.212166030883495 7.177374328119605 4.354214788293155
Zn 7.494335909386862 1.333397328425548 5.650332166152826
Zn 6.112387180309494 2.0389521863887548 3.6285023259932574
Zn 6.051001741184381 6.019406911355539 7.6147170353931015
Zn 4.6381530720090405 5.97884301402354 5.376613154877013
Zn 9.796535260299521 5.9631568071906225 6.672498660911834
Zn 6.100997026726987 4.597405994721907 3.2385848030067366
Zn 3.744382049217191 7.216390709168007 8.419093115082031
Zn 7.3655890496334555 2.275834285585471 7.976286369502804
Zn 4.737347096360179 1.3071842699413527 5.633277295418383
Zn 1.8483816800496078 7.036854641975115 4.296087823856944
Zn 7.464403702520139 6.027100301173263 5.378154036099238
Zn 10.16834193148729 4.700224939415609 4.419461689421737
Zn 8.305648066551333 3.1760526278370245 3.7542031938917693
Zn 7.869267964194657 10.443923338565579 5.256972589370484
Zn 4.791637016369498 5.984291192018585 10.428062598741583
