41
Energy = -28.78480373 eV
Zn 5.612702229304286 9.7543700331701 3.8681792989850345
Zn 7.880225808431058 8.917705835085723 2.8072592068686344
Zn 6.063182880725608 6.07028733391974 10.45222646684728
Zn 7.967202372670826 4.3900386151457615 10.123393320405238
Zn 2.046751307623908 5.649518596757172 6.773243328078265
Zn 2.4470283438624034 4.037403340267052 4.734614224520862
Zn 4.828833207214119 6.7371672960036255 6.944470879007984
Zn 1.7678578077022395 6.448413812864209 4.3764342349461405
Zn 3.5179258544179484 8.227636179659038 3.757464414709564
Zn 8.291503227274672 6.3887053376615475 3.0274112106631246
Zn 5.820201663744618 7.352842435587113 2.686814233668305
Zn 4.151994615739022 7.736677450757179 10.11526080544108
Zn 8.35112642370816 6.7224600109563735 9.103418156337103
Zn 6.294188421645138 4.758090528216074 2.6889210897998814
Zn 2.01149779715785 8.272292526321479 6.144704373759168
Zn 5.412802762113548 4.963251053496369 5.141535797962616
Zn 6.139416883119323 2.65022442585574 6.5417651799810415
Zn 4.1420690797917254 2.127996638210461 5.047362831521674
Zn 6.505136991174791 2.355342766571205 3.8799639626626585
Zn 4.236481101276204 3.188491548159112 2.8148160415178984
Zn 3.858792725251623 9.209983330071 7.964559101010127
Zn 9.67367602058489 8.0783164016436 4.725278483457347
Zn 10.071402329132276 6.4736614127173135 6.770604825282482
Zn 8.423613625640359 2.0637033932543356 5.536314774159285
Zn 8.23981621406552 8.25063338950583 6.993034500125075
Zn 8.596780901539784 3.884467127371338 3.7633907352389775
Zn 3.6970547212643505 10.053516917720021 5.525675869014166
Zn 8.263008841784185 2.9134758466671307 7.9717850287573215
Zn 9.95224935134044 4.726236748104855 8.590330613258363
Zn 6.276542797769347 8.217001538120293 8.830271947638701
Zn 5.844328997611086 3.910020788825027 8.836666123419649
Zn 2.165419937147137 7.40358654566794 8.586870422724036
Zn 3.8234913866034335 5.718934443890097 3.0276934523471333
Zn 7.290156684727119 5.383405749145323 6.946621140334719
Zn 5.9801306711506195 9.46993419884056 6.529148401683706
Zn 3.879343860534319 3.873264241740182 6.999055266085327
Zn 10.107791755757084 3.847541714314011 6.1528938487191285
Zn 6.7062522861646086 7.152316531836569 5.139317201781788
Zn 3.7695576907128774 5.404722879439831 9.104680231572502
Zn 7.977390103410099 9.98834071170569 5.034472594848895
Zn 10.349622180325916 5.66257218596863 4.376628242072961
