46
Energy = -34.2271392 eV
Zn 9.815899283462228 7.799834322286776 4.399545843336658
Zn 9.53614956968905 9.456602589977347 6.42358261025549
Zn 10.615931985832871 7.073111003874581 6.650730299635955
Zn 8.597402239908728 10.089505741094793 4.134200866946394
Zn 9.13676506970537 5.992862305381539 2.725007607383872
Zn 10.402005436019321 5.156281016928257 4.730114697033556
Zn 7.217508413871032 10.713980027636326 6.160968820116394
Zn 10.248456013399672 8.607488791445707 8.729232053052886
Zn 7.781134844067469 8.131122189726357 2.7188327197020827
Zn 10.722568410864392 4.556241256672035 7.151180175676075
Zn 6.948290244623352 7.903129137233228 5.317916342557477
Zn 8.135487217108547 10.00666155688318 8.613980206024168
Zn 8.121782690952402 3.8826080972587094 3.652213305081772
Zn 7.968056152093234 5.543592974942875 5.8373486703725845
Zn 10.010465293652825 6.086155445053918 9.035622809267322
Zn 6.566916602218582 5.76950840394685 2.6943962692570897
Zn 5.986019292452343 9.923148138959185 3.833470317682848
Zn 9.013225310621252 3.0310782964021303 6.089574789148254
Zn 8.350848372792674 7.798754506237508 10.360122195259999
Zn 5.784084117533359 10.838488400559932 8.235974902404884
Zn 7.785923363761018 7.307989960722806 7.780368921209041
Zn 5.301470182885845 7.957152673451858 2.2698777655808793
Zn 6.886568131880854 2.1926712016336465 5.028524822819906
Zn 6.0997372325020915 8.844830467949217 9.807702633447434
Zn 4.6831804395142065 10.13625468785686 6.012860707370105
Zn 8.717062624980088 3.8048158836425423 8.596764509382966
Zn 5.3260091788587 5.803005975913701 5.401539917594975
Zn 8.329297878154408 5.2111334284092115 10.704822053422498
Zn 5.211602755098564 7.6623611387893105 7.310186561125382
Zn 3.7990844975628435 8.430171435435009 4.240587596978881
Zn 6.846209069580361 2.4883902110100298 7.583834126379436
Zn 3.687880731085763 9.436933691384091 8.532001624896889
Zn 3.907770468918255 5.999162920554102 3.0810073541779865
Zn 5.41400798869249 3.7172210065772786 3.5713837329008475
Zn 6.100848393483682 6.364995458163203 10.600513521608917
Zn 6.392881678548648 3.71001014815694 10.013328893444232
Zn 4.706944303270587 2.871773083967918 6.04368887856813
Zn 2.491183818592449 8.82306762754417 6.376031435156881
Zn 3.898975637665244 7.559051627856286 10.230766470336343
Zn 6.154540875377909 5.2161471671759365 7.796851405872839
Zn 2.5010307380465453 6.476160307648144 5.43699574834117
Zn 3.042372256530336 4.137411907262096 4.598868485663988
Zn 2.624732924067917 6.87491277394311 8.08378974288357
Zn 4.466977353139372 2.8560745246890358 8.579644605899425
Zn 3.973463931424333 5.119609760734784 9.604048001105337
Zn 3.0961036341423642 4.588157220947224 7.175930482708207
