44
Energy = -29.8036592 eV
Zn 1.5776535416540054 6.630376724457541 7.479025610006433
Zn 1.5697368435570098 6.594529041640606 4.905201319461696
Zn 3.261477630576037 5.352541402831864 8.956907881546858
Zn 3.1914868370247365 8.127071842617541 8.821803090165348
Zn 3.035923533203416 4.819847517237574 6.377677151398611
Zn 3.9893505572162944 6.88533333411598 10.882880381357717
Zn 2.9283583561045377 8.435993616613786 6.119763123777683
Zn 3.008664285949642 5.068568068093826 3.5264394217965824
Zn 3.2724132962212837 7.855750303802191 3.41086699298754
Zn 5.061517964465045 3.7674200431004508 7.729876541904235
Zn 5.216652431917791 6.690383981156031 7.627380929849877
Zn 4.965645357962548 9.455103862317493 7.391204845919003
Zn 4.738725555479677 3.5174509452935414 5.084456494283637
Zn 5.693020275214239 5.093136739844566 9.942724844151385
Zn 5.60953582843795 8.74728952057279 9.779759331591892
Zn 4.83563671093178 9.468549506206926 4.705353362345527
Zn 4.950298596635193 6.405751867752985 4.9809567706275395
Zn 7.0480704227607704 2.6177619644921637 6.310393301977858
Zn 5.1156455719433405 4.124901663565531 2.4203352375086404
Zn 6.4017281008024804 7.021847702196221 11.622223529908254
Zn 4.524218836785915 6.411448981070012 1.674190971335815
Zn 6.888013924981846 5.217183474070171 6.178807178531665
Zn 8.106180744067807 8.495732031517981 10.443895367235593
Zn 6.514702668710914 10.965316174707679 6.086913999737865
Zn 6.836546843529968 2.9316744727722415 3.7633029270945806
Zn 6.100766825589689 7.98575000476479 2.90318707427465
Zn 9.324867517442158 6.077529151081531 5.56166168994935
Zn 7.550252963341066 3.9710012729722464 8.616708770900486
Zn 8.248753053586732 5.706065810517408 10.467907840689904
Zn 7.657167024685599 9.60559850433433 8.052248833593898
Zn 9.379085586028857 3.4981106013755103 6.928623926955245
Zn 7.103983195157722 10.191941139757894 3.681920869164342
Zn 7.8696135090415975 6.776228032726491 7.988938418319999
Zn 6.787131035805852 8.004969244231132 5.948053600348744
Zn 7.365096981535856 5.7135825042568875 3.570754672891052
Zn 8.877422881836862 10.438417536957108 5.500896405665394
Zn 10.158677922441745 7.708408106781587 9.318226442444741
Zn 11.64027662917011 4.7192060529097315 6.653519982460415
Zn 9.090227269231018 3.683853453865943 4.392650537045768
Zn 10.099312514641406 5.060928571767358 8.839286713063531
Zn 11.669574861695509 3.7248796355496165 4.324215574891878
Zn 9.63344631826761 8.41214201203877 6.677467834108834
Zn 8.58352584046087 8.087952611786093 4.086156244247345
Zn 11.656214895635848 7.05148939375987 7.381107715282534
