44
Energy = -30.10273352 eV
Zn 9.691653455446781 7.8219547936541725 8.301570403339072
Zn 7.768819105053203 8.750833637156228 9.710137527265115
Zn 3.4317006152121996 6.158467000841314 10.351867997016075
Zn 5.635473673468327 7.34660632017721 10.329642610749936
Zn 2.639629330224072 4.315175599009136 8.604694752144393
Zn 7.642444824255836 6.198820153853214 9.024624791929117
Zn 9.772842297176595 5.321308539612339 7.771078645800593
Zn 5.304692311916011 4.978613403449564 9.047537980833377
Zn 7.420180252552294 3.8359400161692956 8.006936591158386
Zn 4.606221653268542 3.0420899017394425 7.465189390597316
Zn 9.244117160794913 3.4386604428697427 6.176474915850996
Zn 6.8788805266276345 2.391295906760148 6.036021895532146
Zn 3.439836859796732 8.397881807356946 8.761752949419316
Zn 1.405542963634291 6.741926000782938 9.012710593911363
Zn 10.2281648841382 7.958789343029037 5.85303697121247
Zn 5.535877486394286 9.761860287233455 9.358655241471228
Zn 7.834893862445952 9.209117265491852 7.021127951672588
Zn 0.800606178305201 5.458278264011433 7.0047145806012034
Zn 3.658955771051852 6.320464890633516 7.127080186071739
Zn 5.79891988007135 7.532118988399957 7.434331997769026
Zn 2.661946851614977 4.02399671671893 5.912344849009202
Zn 7.837736251213595 6.437964574764126 6.153070881661655
Zn 5.582086348932841 5.2203107798326265 6.0443334499162304
Zn 5.673170302098897 10.982816355389243 7.217491879583548
Zn 1.6665360017515687 6.271535478919555 4.81115572586688
Zn 8.959927266981534 1.7969074478721396 4.266827824434254
Zn 10.783805242632322 5.449511983306473 5.4732198857121945
Zn 1.5906684500738508 8.099369463593792 6.707115701993628
Zn 4.64382465925993 3.0012067170658336 4.786834164481791
Zn 7.385889605702289 4.748266594463561 4.296182078628444
Zn 3.4552146944995528 9.851457510354981 6.530419252033546
Zn 8.169400865153667 8.738391095862909 4.458871362303158
Zn 6.486147105289869 1.678543576230675 3.6138148610977376
Zn 5.7359153564149485 9.40229971780123 5.22782563365981
Zn 3.9200798067323337 5.362706230351211 3.7227962233577307
Zn 6.014146391259746 7.109801488108621 4.112146332513956
Zn 3.665651199295741 7.862116179871133 4.858921666542641
Zn 9.777352018589818 4.134603969048585 3.458165927239384
Zn 5.616948397219866 3.746394622005654 2.4078528632125997
Zn 9.53985078683796 6.705382149816123 3.6120945791306656
Zn 8.081369784387508 2.806316003182307 2.0091345925060424
Zn 7.683449207311404 7.661034387151516 2.1340448687385383
Zn 5.68954223124891 6.144269940555375 1.742070881397192
Zn 8.183808659605829 5.250221425405743 1.4920416907822696
