48
Energy = -33.33337774 eV
Zn 6.775339718761726 5.0817781153458075 4.953409937918696
Zn 4.38053503174354 5.33579996152432 0.13814533433216292
Zn 6.592366553734953 4.776549594484585 1.0529653949780429
Zn 7.438945461825025 2.340267890960819 4.6099895087054215
Zn 8.222639678494179 3.307507253592448 2.37734375581516
Zn 9.457532268780938 4.1303080972055035 4.475940403703434
Zn 3.487127498888974 4.037906749393766 3.507764555433084
Zn 7.849886087239969 7.986335183698075 3.7651663227513104
Zn 2.592459888364448 5.865749539457446 1.704088310168465
Zn 5.712631912156081 3.209183290848856 2.874527559449238
Zn 1.9879176084311532 5.855214580299443 4.233294636223255
Zn 10.0959650447989 6.5805749588804305 4.355012739699007
Zn 4.88423155898552 2.7582138015975795 5.24302999712506
Zn 8.390974342135761 5.837270067909184 2.5703102703705105
Zn 10.187461028131391 5.215035570200875 6.673211458955342
Zn 5.780340936248846 6.575250730736385 2.973418201599603
Zn 4.2492481912129065 5.213623047369178 6.054180520435331
Zn 3.455267636612824 7.816168092974203 3.230190123398034
Zn 9.86871102222713 9.092462331442537 4.873056685799874
Zn 4.591012393625044 3.1581954072142673 7.787042202158946
Zn 6.504554877686402 1.7168059614950297 6.893447629011695
Zn 8.641832438277323 3.172452765696562 6.789351331894312
Zn 1.6909824206261728 5.437097406941801 6.720418129979067
Zn 6.569289537439154 5.2637359109341375 7.6604543804565735
Zn 7.985497277788693 6.912184389931656 6.231142438208293
Zn 5.441190561061207 7.56054379836342 5.961149465556881
Zn 2.9321638000831483 4.80498453594263 8.800463357854325
Zn 11.01888739673787 7.633269885579244 6.523928862032753
Zn 3.39661602395606 9.85549660228749 4.702400328147446
Zn 7.053078251896324 2.8069511171995836 9.042138014500209
Zn 5.663359371387738 9.246540139238892 3.644602427090794
Zn 9.32242027717206 4.39548432108616 8.988258623552875
Zn 7.593165046188762 9.979134074967096 5.463347792852229
Zn 2.443595081033586 7.7782262035009255 5.7768686811956185
Zn 2.4272214882184246 7.37342488874306 8.301247953407792
Zn 9.000808820930253 9.096353479040443 7.412346905615794
Zn 5.235385101745255 4.481820402047352 9.903029752900462
Zn 8.899937784756041 6.410115455691022 10.8322935964645
Zn 7.566389560995538 4.292653796030912 10.949766578942402
Zn 10.149798653382643 6.960748041335843 8.749036610390505
Zn 5.339774536218599 10.915453311316101 5.803565599116403
Zn 3.6427517775175686 9.483440621972319 7.249616127171635
Zn 7.494004580634535 7.431500866102018 8.82686111749974
Zn 6.398800251880924 6.523632762825651 11.179261850466874
Zn 3.98804283980346 6.690738042700185 10.315037356353576
Zn 6.3311552832066935 9.549385586719985 7.786667841872425
Zn 3.4439493316193395 9.232856990726374 9.74093574096612
Zn 5.820506858518462 8.817327469608784 10.296026680639997
