40
Energy = -26.21079916 eV
Zn 6.666271852512163 1.873634645671031 1.8930151306797542
Zn 2.156340064546401 5.706823059144062 4.990534413612967
Zn 3.4807663890616864 3.5806686498192146 5.548336616848482
Zn 5.8089304400350645 3.080101397519563 4.121330291458684
Zn 2.145695387372056 7.659545192109163 6.997868537292844
Zn 3.005092123945397 9.757526945131598 5.8015997884541175
Zn 4.133056855533311 9.270569045974355 3.6008067888204645
Zn 4.4881121934557875 3.337450345553565 8.018917339512102
Zn 3.478267530582132 5.577263410055331 7.450997804130587
Zn 5.234382697291895 1.7786772599450607 6.21268658666164
Zn 6.936451812330361 5.116785583374298 3.1050363795998566
Zn 4.506086636763373 5.328520565416415 3.8747735458780777
Zn 4.6179159575275746 7.297807685658976 5.5069376093665205
Zn 3.750668760136147 9.6730770083965 8.167053208737757
Zn 5.9454885835723745 4.972715619359735 6.219792429427955
Zn 3.749240248571375 7.3939350308421945 9.340509106427875
Zn 8.626423585397758 4.863620029213672 5.070884686840063
Zn 7.033297385770902 3.480541555328347 8.284013505010991
Zn 5.492067464977031 5.324810757351668 9.386907364611824
Zn 7.657357536265264 2.6105724030421595 5.864223331885493
Zn 9.530858818579068 3.389282092089257 7.41364821952102
Zn 8.003018748927927 4.97360493293087 10.152210733217496
Zn 5.795896524761689 9.640997914155024 6.582425703380549
Zn 6.082580335171212 7.564638306970305 3.016327560221169
Zn 5.900938748486677 7.2859852781668515 7.706909459030844
Zn 7.216730887418694 7.065717684685064 5.339543635533522
Zn 8.003811357674186 5.881462316064816 7.5516653776611715
Zn 6.839746434253679 7.297007643685801 10.382556489246502
Zn 6.590596983347525 9.859993681300919 4.102336926742622
Zn 8.798849228967642 6.700547512348575 2.6305737903956308
Zn 5.6001041334459 9.505526586165068 9.790194467938829
Zn 10.855787730299197 5.484139749876503 6.6964239515439
Zn 10.395349275175793 4.986453409075262 9.206914794769947
Zn 9.410281066359577 7.1882591857172615 9.923277436593377
Zn 8.379391067861642 9.269889637879574 6.010120236252958
Zn 8.879292467167732 9.029095797315538 3.4153152803278464
Zn 9.988035439126591 7.203719004550676 4.9352991723623045
Zn 7.8657648901088555 8.897726151963873 8.599819063621757
Zn 9.902930394892461 7.764708967260823 7.470175134120994
Zn 1.7863490717066162 8.064825068271485 4.356265211639734
