46
Energy = -32.40935077 eV
Zn 5.96527956668324 7.590689132331789 1.2442072778130686
Zn 6.3844701625866636 5.224000538709775 2.177771199654787
Zn 4.364405217823914 9.153868409754624 2.4147620238527914
Zn 4.041916242271687 6.539597499457029 2.7082746586098936
Zn 9.025573414737815 4.5936727988547545 2.7237112412765914
Zn 8.372749600428065 6.934310559927362 1.934859392669887
Zn 6.903057189597678 9.752286137475876 2.373364281824987
Zn 4.618806949745201 4.178713855375752 3.78884174098681
Zn 7.063361240177017 3.1187098568498297 3.645282841466737
Zn 4.835302412137934 10.246512685904364 4.6492227862342475
Zn 3.0395592961416518 8.206607114032328 4.4819553023054715
Zn 10.12612760077234 6.2763319136727915 4.393800397184402
Zn 7.447336132144515 5.830554205359919 4.633803060767883
Zn 9.265470174553304 3.7504914180207356 5.174981627476669
Zn 2.4486300046396323 5.593459679732005 4.551527254496505
Zn 5.21509740812023 1.9262383901111781 5.110696272815306
Zn 6.093627411756999 7.836344020400192 4.026327733130286
Zn 8.859997820331378 8.504468314181794 3.905769672818908
Zn 7.802105171663771 1.7404558656244284 5.786678761744084
Zn 7.556740229800889 10.500661653881753 4.755943949917189
Zn 2.7948009143547448 3.073394976189123 5.334382694279862
Zn 6.4769345897524655 4.119589160074242 6.161432587844678
Zn 4.893666989380243 6.30269869522328 5.587107275081638
Zn 1.2917592043989223 4.705156632721614 6.696406352848941
Zn 6.17197483810289 10.521438656721486 6.828828185884967
Zn 10.029038909779755 8.062826452690677 6.228544646204094
Zn 8.581201863200835 9.877373703211772 7.298923734631491
Zn 3.7614721303889143 1.5650481849152675 7.171300758277685
Zn 4.351844174906414 8.77113104222242 6.809653125510141
Zn 2.5492637044605284 6.9285751322459035 6.854671742947024
Zn 4.196082011681298 4.497890691054759 7.140865249073247
Zn 7.153248496034764 7.793548313964753 6.294255103677871
Zn 6.2305111298001306 1.8302516386335332 7.82614088271199
Zn 6.271873093364649 5.970585157198195 7.85176785443577
Zn 1.769452753690089 2.7894955902501244 8.182273994027335
Zn 4.1637569654186315 7.281573859964774 8.98889333684348
Zn 8.529725299617754 3.1982208516442348 7.810513619481012
Zn 6.35483674227915 8.772780697030404 8.712496752004313
Zn 8.899806046084311 5.668958057486467 6.890909733973945
Zn 8.765372479422318 7.6731192201955345 8.660123858487234
Zn 2.482355549297744 5.22103850603328 9.002333615515393
Zn 4.149134090636225 2.9610465822559666 9.267406266112499
Zn 6.747712181337166 6.761044941321185 10.333170460193386
Zn 6.633418618033909 3.6715620398505178 9.650978228373257
Zn 4.666708713254339 5.2227170976052495 10.463381363780613
Zn 8.612278612097867 5.218803416525396 9.429300447640582
