43
Energy = -28.57678002 eV
Zn 7.774715988942777 6.9426959833629205 10.216240177058927
Zn 5.419726191605719 8.04240355427615 10.461022496809296
Zn 7.234799512039685 9.253932527158172 9.283874682611875
Zn 4.821108823070886 9.293913965686802 8.28136970994882
Zn 5.374300035457365 5.589659367996371 10.107566082847022
Zn 3.4974617924179605 7.190230287766076 9.026481997888697
Zn 7.686536554349431 4.448142282035502 9.619977571319716
Zn 7.0342675158367785 9.28661327688881 6.766984545173119
Zn 9.043231898389664 8.141120283625579 7.935682006772449
Zn 10.419620518054579 5.612853267073844 8.158254503261603
Zn 2.8112678853545194 8.42565704569118 6.88933190802452
Zn 9.659883232019675 5.850504742040449 8.849092120581442
Zn 4.740581656521495 9.9996348181571 5.845670427349277
Zn 3.307840400200873 4.693424589777977 8.894953801774564
Zn 5.483888125829675 3.385826216218721 8.806122656276127
Zn 7.064842433933481 9.630101770084776 4.230130605634065
Zn 2.702238434143861 9.139969200104648 4.418304204047815
Zn 7.662775978066543 5.750045715322624 5.360390458297113
Zn 9.008198622616597 8.410519658623473 5.346923515253132
Zn 1.885698452740211 6.003581990370913 7.294006100323184
Zn 10.37038175417268 6.479554609218584 6.446592899507072
Zn 6.054802893292862 6.219164445550117 7.436702986188492
Zn 7.395713100802784 3.7721552779917893 7.055521195092701
Zn 3.427124712909559 2.7905206424073112 7.265806382507021
Zn 5.7370044112899015 1.6983307141245139 6.920996220481555
Zn 4.740198981505882 10.108372732503636 3.328614353375248
Zn 10.14802989421522 4.027214855115398 7.244031230607129
Zn 5.589036614883645 7.319827316991408 5.163287499694506
Zn 2.406551029244756 6.70791135582395 4.863972649542286
Zn 10.419620518054579 6.850152950760659 3.908043847133657
Zn 9.1620136537432 2.317063118917649 5.729869362310197
Zn 6.900797453486868 1.79333344880529 4.754130706501409
Zn 8.460012526710226 7.897970267879758 2.7610282397366466
Zn 4.0217530178364935 7.554970870952625 2.8739899594110634
Zn 6.222093271282021 8.67823536134424 1.9264799712009941
Zn 4.504007195980076 2.7905723450362974 4.8579799339261935
Zn 2.4423479540114377 4.265866897855267 5.51783160866758
Zn 8.68690181407107 2.9041577511269656 3.2969862842424065
Zn 10.25465002343291 4.481541905348512 4.674774732656521
Zn 6.280775908490002 6.230665736243699 2.416209106662413
Zn 4.279537631016191 5.195666621511286 3.8964046448305485
Zn 8.685164019687978 5.329626776786469 2.6473658248018705
Zn 6.3324004209611315 3.8414521021374406 3.2870507090035983
