44
Energy = -28.96691687 eV
Zn 7.165967544363838 7.203307530676322 1.3444259207865086
Zn 5.340175490310469 5.557024147815406 0.6647367735187074
Zn 8.48914045997788 6.614765019477419 3.4128464114093244
Zn 7.22346496597864 4.5670335685416426 2.169359902784691
Zn 4.653302812093733 7.770640371651264 1.8001380521399495
Zn 8.594461042691501 8.703980344656712 5.229360045231326
Zn 6.587974455435822 8.460949610427054 3.541570259184636
Zn 10.086126034794466 8.243055025672636 7.230069529969804
Zn 9.576551289118042 6.1779269187982155 5.836349450186683
Zn 9.825022732218066 5.929386887326999 8.537370746428
Zn 8.468130163648812 4.241779924579861 4.444558596245223
Zn 4.91106539312869 3.302954450204947 1.8186287530124605
Zn 5.561006477437747 5.907058454962929 3.65736241890409
Zn 7.872432882260452 9.751723359125876 7.5366552801649
Zn 4.0902175981338615 8.122258060111204 4.343166950396041
Zn 8.336735538931672 4.215043920800584 7.103986307552228
Zn 10.043909299433977 8.493957243550302 9.703174929583652
Zn 6.691751277078042 2.4661272407835426 3.619400662945759
Zn 6.850626004058378 6.504596848382288 5.754451827587579
Zn 3.133670354320425 5.690098830198903 2.271735494056456
Zn 5.840851969989146 8.96986172471317 6.073809561562899
Zn 7.541804991048135 9.00162242877932 10.178253275547975
Zn 1.814026094074489 4.217014874742694 6.0060218112865495
Zn 2.0131760769579183 2.114381223295644 4.331058404853682
Zn 3.393133100237509 4.34522148843184 8.020247572893611
Zn 3.6426056817075345 2.294842681871759 6.422216680584267
Zn 1.15544722046069 4.357009582641411 3.51711259928699
Zn 3.6440344361887647 6.857225800764713 9.165480875710315
Zn 1.825249336429163 6.434448102659661 7.4278564483344205
Zn 5.955997425425892 6.749912082007541 10.435315425688561
Zn 5.627150001809833 5.571968812455763 8.045988764832904
Zn 7.56552818567645 4.663544958558418 9.562362597765112
Zn 6.143064422467816 3.999633842146155 5.615295014643073
Zn 4.396130678337997 1.3579235715137512 3.7699179643269582
Zn 3.9911698857601503 4.005134445083464 4.243867072207638
Zn 5.484326317857475 8.904170472487259 8.681064552976746
Zn 2.0312015483736934 6.489231100016642 4.652159978584179
Zn 5.775388930314504 2.9495224517263647 7.990133023376721
Zn 8.530267190325649 6.718644983143817 10.762855403156433
Zn 5.9415877055205275 1.2488846793207784 5.912112580105955
Zn 4.253029143758468 5.911229560726128 5.9351193601308045
Zn 2.4084142968368774 2.9518462600360653 1.8042278730609127
Zn 3.50082837271049 8.337914643205549 6.969413937264659
Zn 7.589331161444558 7.190618461056571 8.024236898859199
