44
Energy = -30.23140509 eV
Zn 2.8452886247171754 5.831658340645666 2.598476691102181
Zn 2.789580438707205 6.832285770569418 6.714505580138172
Zn 4.748074680588546 4.009018450964953 3.1058972545402366
Zn 2.9079648896956014 4.864694798052875 4.927870719620396
Zn 2.8633251864557536 8.92484159003981 8.461594192338344
Zn 4.858467465541937 5.597094531786181 1.1245818636599925
Zn 2.761141053440169 7.650664429779379 4.270053706755148
Zn 3.8257681193256587 6.5979804144345096 9.04436945527099
Zn 4.760845714273646 2.914373011029715 5.349352147478739
Zn 5.1932706136989175 6.327869744859478 4.772838435897144
Zn 2.762520518549136 9.419275782368343 6.029335985395263
Zn 3.745587188882485 4.4852780415725775 7.371361939843377
Zn 7.029267197190484 4.1219815128725825 4.332722870779808
Zn 4.849401481401124 9.210196405585279 9.903264067908877
Zn 5.868759350080138 6.786443909731112 10.536125980729093
Zn 6.836453204637199 6.065224219629524 2.64545696870682
Zn 4.796299226797239 7.846559071711185 2.5039532006579637
Zn 5.095716785659131 2.2808557531809734 7.747295038374826
Zn 5.463644153665058 7.5672959480256505 7.1110730930942365
Zn 4.896679725338999 10.16587061285032 7.308638348629587
Zn 6.345788457888457 5.090449735828744 6.787167077306796
Zn 5.542083643893074 4.579571963565325 9.276716782497326
Zn 4.893253100520271 9.296974904380402 4.615606690421011
Zn 7.061518378206255 8.771143659873214 3.284021389274777
Zn 7.705964302086543 6.721830048178878 8.295727226919908
Zn 7.351493326782007 2.62825792649367 6.36759761486879
Zn 7.204558945282711 2.5535110677931163 8.99516627532169
Zn 7.089535255841124 9.053668844010748 10.937328092362096
Zn 7.5355497013499475 7.10949579106566 5.613495557165161
Zn 7.125121518345297 9.453991917051852 8.350953697919316
Zn 8.939644006216673 4.144903640063898 7.9273138665496585
Zn 8.311126887566262 6.806877685081655 11.275797744429807
Zn 7.198183248595403 9.896308488866117 5.811261326790854
Zn 9.061226720269504 6.976550866791405 3.2990189142808384
Zn 10.816673228864582 5.8178800939492 7.232853940002558
Zn 9.32005260250248 9.25897656159944 4.481095093246376
Zn 9.176333602626794 5.10876575560925 5.306649388840418
Zn 7.911081687704571 4.481159000019829 10.532253570425821
Zn 9.262992653823163 8.56557953208502 9.650460017846834
Zn 10.024123197679838 5.792399752006186 9.648458200715185
Zn 12.825692942773387 7.825169297730817 6.7090088176445635
Zn 9.319276821711975 8.671922019849134 7.016599137814879
Zn 11.498209936019881 7.813916824049533 8.832256005147261
Zn 10.787918731495761 7.286690801058443 5.099884547978223
