43
Energy = -28.98092233 eV
Zn 7.282776348761795 8.941584432748337 3.0163512394003797
Zn 8.66931552616598 6.55909453201984 2.9146826330506195
Zn 6.927383011813158 4.488187524541117 2.740540136299993
Zn 9.445434231097405 4.170245749068278 3.5361689628177557
Zn 4.799051987052283 4.8981393427603335 4.15010404311058
Zn 3.1708266846939 6.822519261060658 3.0695048921071524
Zn 4.734017864334572 9.25614069186296 3.2979720734822373
Zn 2.1935568495374906 8.63061208918399 4.7527726584075465
Zn 5.507861574579751 2.4880213358048615 4.896714524448274
Zn 2.1901827822235744 4.391477655407239 3.9134215921084095
Zn 5.854136264900163 6.840793575166145 2.5686920494491683
Zn 9.042404413967754 8.631856610924089 5.0178921420567795
Zn 10.022777072505237 6.088471538388305 5.237691849403478
Zn 7.56831043605662 2.106549741418553 3.4001901095803118
Zn 0.8531271673088955 6.512705675092294 4.2272776959683505
Zn 6.5974467089126705 9.630721220583975 5.421358234050352
Zn 9.714662105724523 1.8218075441305281 4.658755465646133
Zn 7.182986030314196 6.825269674451142 4.981270645427604
Zn 7.474892987996639 4.361289768203554 5.483422382438134
Zn 3.392015376418242 3.4187889778270764 6.1090162621330615
Zn 3.8948578412780046 10.095995312332725 5.882764595327231
Zn 4.863003102743411 7.542578735364231 5.149114475432319
Zn 1.020687018519706 4.744426491256228 6.23937966187325
Zn 3.195269485147491 6.168923762333118 6.23536584065186
Zn 7.694621248932972 1.833854188269833 6.248381060318396
Zn 2.6776102331327474 8.653767084688543 7.6980087221122115
Zn 5.5425405216032955 5.51459574943379 6.73720394811887
Zn 7.957581635815963 8.885327887436116 7.540612961198853
Zn 9.985586135058123 3.6636531484713926 6.356511029672082
Zn 10.372307486249758 7.910641870133648 7.06614895870635
Zn 7.995328395479237 6.182660669085066 7.2107391920651
Zn 5.578874179921972 2.8176353275022663 7.532019437231539
Zn 0.7087517497485483 7.34004079077423 6.600483770780413
Zn 3.518422353810814 4.229068234958283 8.556492212061661
Zn 4.23853225914803 6.691110614469765 9.008291475879652
Zn 10.32446980880497 5.40877712274596 8.155345351064218
Zn 8.044298974849186 3.603118925334113 8.166742861892853
Zn 1.7394358604608284 6.128145313773708 8.528819135671842
Zn 5.365629662385912 8.547699155813975 7.577887399029916
Zn 9.477349210485286 7.6798203393190025 9.405084894023501
Zn 5.990494883777199 4.716338082324536 9.401373252725422
Zn 8.425970479169397 5.444820005941472 9.939936666298472
Zn 6.7706921416312955 7.318204340114756 9.374973598996998
