42
Energy = -29.21245608 eV
Zn 10.421437666494299 9.374278798725285 8.409168577041534
Zn 8.382422151196284 10.449257890999425 9.355068289206518
Zn 4.272003136382794 9.169590064211208 9.087945812730508
Zn 9.13557557529149 8.151871235801062 10.289918084765086
Zn 10.621229502034966 8.621845193888925 6.044052034262996
Zn 6.425820629630235 9.892091186787452 7.779399518514607
Zn 4.789787310218336 7.311324484687395 10.840821549984195
Zn 8.74852892409654 10.492552263894963 6.718468977072848
Zn 6.6075068679394 8.998993068328328 10.380867653978418
Zn 4.71158417956851 8.890350139397526 6.194941892407185
Zn 10.886509829999259 6.9106839891631076 8.253373533137033
Zn 2.4832755064028493 8.608453897083487 7.423007666073228
Zn 6.722807802256347 10.023567405712745 5.002450903689617
Zn 7.798612510255237 7.803397152013767 6.149296443769486
Zn 9.623851950927882 5.692962221628543 10.117358007582961
Zn 3.2409546134328786 6.627183652322506 8.997288474749055
Zn 6.02229751262926 7.2395784735718305 7.993500460772033
Zn 7.222345812571834 6.45737842003332 10.613097191042089
Zn 9.140651188841547 10.06626120193291 4.257423002794498
Zn 9.749224504361328 7.690785837069907 3.8531709020050333
Zn 10.00966860214883 4.4652743137778925 7.9263220887166685
Zn 7.490649863790195 8.479922041194486 2.9476446464583623
Zn 5.316708404804716 5.093297532715723 9.445128109402352
Zn 5.462249677650524 6.318724833471385 5.424591357946545
Zn 10.01085877359271 6.075208310574351 5.895268843139425
Zn 5.005974155868972 8.592858029215076 3.555092451393879
Zn 7.7498945613045755 4.160887256594419 9.458592558713178
Zn 2.7789384832392656 7.785891619843739 4.866626994330563
Zn 8.086085711269051 5.833237912735761 4.121274859190093
Zn 5.993456401337271 3.1927603342659023 7.790263348727757
Zn 7.4568986722681325 5.391455653644063 7.025738038641407
Zn 8.969133754632178 3.6989559993090464 5.541349817328191
Zn 1.9932038933705782 6.262204560927127 6.750921453091316
Zn 6.148159730715646 6.330196548230829 2.5367733080742054
Zn 8.490332327818347 2.3877410703997946 7.780171931142228
Zn 3.905017320836467 4.621670939955879 7.310288190162849
Zn 3.5795679783287313 6.611466675383145 2.849306647359252
Zn 6.90427457421958 3.6560612067003455 3.846321980593556
Zn 7.028354826516009 1.934593559752307 5.707925295197641
Zn 4.660449867469617 4.328139157196521 3.0483422951779775
Zn 4.749514270975745 3.1069045656062375 5.355216174506263
Zn 2.9762278955910295 4.972188223531739 4.828267557407686
