45
Energy = -32.60737456 eV
Zn 5.775702604941645 10.747386406837956 4.930549071997167
Zn 4.43337239802927 8.790172650751844 4.088112066824195
Zn 3.3081744363347405 4.2442268958072 3.9125371676589977
Zn 5.432540789513716 8.941278066744065 8.864491815224005
Zn 7.030955237741852 7.441809815007039 10.317777133568658
Zn 5.438287381934804 7.505733009251316 1.9737271675220154
Zn 9.204138898669553 5.394017647519201 3.4855581437822196
Zn 6.173631764003976 6.068301435937529 4.22802198250815
Zn 3.189167287352248 6.793159987860897 3.1870445884307927
Zn 5.260509229731047 4.610104085479068 10.185626136601453
Zn 7.968176374335228 7.13690336028724 2.0881586648122754
Zn 8.046234953680106 3.1903711496114213 3.948339592345281
Zn 6.128022637539263 6.060372483555147 7.988698597277386
Zn 3.122303289781129 5.348845078969868 8.855186756419943
Zn 5.810218347924938 1.3797284240864862 7.223977372518348
Zn 1.4364289880416767 6.3257171823697655 7.233689539174286
Zn 6.845218341618565 3.0754342661833736 8.800783160782954
Zn 6.968424753927738 9.100185852234663 3.3887958304948858
Zn 8.121431813867453 6.056125430207481 6.133710439965754
Zn 9.883573906287543 3.934969419393955 5.574343550654962
Zn 8.230421535576745 2.268499416728438 6.564717627338432
Zn 7.19707484946593 4.70519558348145 1.9411277500791373
Zn 9.183845509326233 7.988356541066948 4.204583635662363
Zn 6.199634211628712 4.184222049902912 6.050912591583655
Zn 3.180948562165448 7.924683926076102 8.178060741098443
Zn 10.885672524291008 6.29302538455251 5.418675412502829
Zn 4.065695283688265 9.801655325157947 6.655115743252877
Zn 4.676019763016684 5.088759365165867 1.8719132034012038
Zn 9.078100685589126 4.180823780885761 8.052609888014194
Zn 1.4748628134627386 5.795087436492164 4.779190606389551
Zn 4.291602269555867 6.052122485892344 6.1205529095237905
Zn 7.998848495181309 9.036388381856636 8.300290690755977
Zn 2.4477085402114005 8.082060951907419 5.595167587212081
Zn 4.31959198801448 3.2446576397508466 8.064741115182308
Zn 4.503258674718229 7.028871448207157 10.258648190399153
Zn 7.7958229124512775 5.0047727423856765 10.152027468530138
Zn 8.988098882404845 6.764715036849537 8.730975522211796
Zn 6.500618815625658 1.3839353754201262 4.80672648689214
Zn 8.18039193921443 9.878108506751667 5.653617461590834
Zn 9.839884107158037 8.216362296755246 6.730107326795207
Zn 2.439066177237383 4.035212560780595 6.508074853353511
Zn 4.098939527663525 2.344840786912497 5.465460010658615
Zn 6.4111262522274854 10.769259921487949 7.359419179664244
Zn 5.512644950236044 3.151651965143856 3.2781899499400198
Zn 6.223152729023197 7.9314338766829175 6.149510703793864
