45
Energy = -30.59767566 eV
Zn 4.372680810208953 3.984662598329205 2.2780096561893908
Zn 6.583503990490756 5.266062911288122 2.0301189988222172
Zn 8.894608236176893 5.762915067947098 2.8228447691803775
Zn 6.727852763961398 2.8408695776767607 2.7271121226461816
Zn 2.1877459013812515 5.391662155365287 2.8471790861103776
Zn 2.319661176892893 2.6374501634599654 2.9796286577919013
Zn 7.021787233456441 7.548147701232889 3.35334659344676
Zn 8.827733729618798 3.4527038844600964 3.8774956837459333
Zn 2.5519392096519473 7.8991851738681556 4.011583413833566
Zn 5.028172613628206 9.07730320629071 4.132961880534435
Zn 4.5776568119916075 2.095594621697553 4.112775035455946
Zn 9.6721444159984 7.997538937906039 3.954843262343781
Zn 10.181209026259246 5.484180451060242 4.9996283311635885
Zn 0.5223149122996915 3.667745540994577 4.368373088952236
Zn 4.665471016250587 6.588625817354942 3.182291511485678
Zn 6.657058259609276 5.163170901367564 4.813964509027199
Zn 7.600142975002979 9.699898926846723 4.672975049945997
Zn 6.790409402895503 2.5845130939591576 5.405888019793377
Zn 0.6912050333086535 6.181657890840411 4.805536183340167
Zn 11.082339235357002 7.596415589059659 6.111587820037422
Zn 3.7674220354312635 4.852776695084645 4.914162193898583
Zn 5.287572624822116 7.031042601340059 5.877216397287401
Zn 7.949858300971488 7.273791303516105 5.882969994779231
Zn 3.1950593062152324 9.416668127944483 5.957646168331731
Zn 2.4890513504577636 2.496702565547042 5.611544145830868
Zn 1.4436032050716456 4.605960483428332 6.7546882673891835
Zn 2.5746744528432024 6.923275291517011 6.46740936166323
Zn 10.0212058974423 9.79172423217241 5.859871374730384
Zn 4.69927144636399 1.8677496556880813 6.7742745588868045
Zn 5.52488688900645 9.925143180785385 6.656185373116284
Zn 5.069530937452381 4.564312870652698 6.954138662804709
Zn 7.230453877535578 5.59078019644525 7.568600916992964
Zn 6.910541599085367 2.8443425315793136 8.088089928189339
Zn 7.9499976920181314 10.278684450906056 7.141329211574123
Zn 4.159873116316382 8.127514087294541 8.059841250234724
Zn 8.75767368811603 3.7799378247487128 6.445453637502198
Zn 9.920785665716018 5.790659177052198 7.591840575375179
Zn 2.8486023893288728 2.943546566984441 8.176536180397935
Zn 9.442681658430761 8.352228124644697 8.060217177187623
Zn 6.7942834691625205 8.277324116306056 8.339436064825865
Zn 3.1383512067054364 5.522356124745284 8.599427793867326
Zn 4.8943237536864785 3.653874133193423 9.586093547685577
Zn 5.4123863791427445 6.299691637577797 9.458373548163353
Zn 8.5214371039169 6.588620349614594 9.708938886125146
Zn 7.216941761915998 4.457096021821577 10.153677670907435
