41
Energy = -26.56159117 eV
Zn 7.145417595264481 1.992611971171021 6.3675653638337915
Zn 9.302385839181747 0.8603365273773905 7.5628447010707855
Zn 7.339981865707847 3.446103760896507 4.2669222881589945
Zn 9.425802975869875 2.8216651496682528 5.7325502410104
Zn 4.988714372304043 3.0878336668481947 5.573150671407323
Zn 5.626525979181186 3.1830087366924844 8.086836554043547
Zn 8.248950853692682 3.0508892186803522 8.585575993022214
Zn 6.26874976341108 5.472330215660441 7.098005398186678
Zn 10.06571313974302 4.604699488913807 7.394675931176204
Zn 3.016249287826268 4.463999102771995 4.772127624907688
Zn 6.6629396042277005 4.383000777960252 10.180467763913246
Zn 7.531481328736304 6.020474841861325 3.6904405486759604
Zn 9.204344004754864 5.1450124706987435 9.70199048409254
Zn 3.4085913848004186 4.394087452608684 7.287609914435451
Zn 5.205204782073527 4.601328318965244 3.44919688390778
Zn 9.674732313715108 5.265166655487021 4.908505745701278
Zn 9.77622179301311 7.074446361600882 6.841390277804927
Zn 7.6846207074941635 7.245372280692485 8.52849367896307
Zn 9.213330848434483 7.89628896560968 4.382499612839385
Zn 3.1903856138726265 6.402203493671583 3.127367320933642
Zn 9.677481080824169 7.6148895159416865 10.543574014286508
Zn 9.912952082782757 9.643763962812484 6.144454271484165
Zn 4.855439713618146 6.737295660963958 5.352663704597824
Zn 5.581571977209709 6.750943885612842 2.1863847360356505
Zn 7.888679981307877 10.305158744324324 4.864461079956529
Zn 4.149821931929002 4.633856827971763 9.691131223424998
Zn 2.0942783372964398 8.357128476679206 4.396625397777476
Zn 7.054772306191737 7.765063333691362 5.948450807375213
Zn 5.379632780339432 8.642510487099237 8.325765152739754
Zn 9.944888410496237 9.08377946896758 8.592825038915988
Zn 7.626690526588891 6.48994407804331 11.39524283283992
Zn 2.106676335113181 6.4507738202440565 6.1328204070870935
Zn 6.937179675345809 8.566713549352153 3.216281206104974
Zn 3.589845214194758 6.762397054946665 8.320937378318877
Zn 5.6962787448243795 10.809092998156586 3.8168279867684007
Zn 4.24882942527697 8.826584218141344 2.9935837945648855
Zn 3.299986886670912 8.72737364761477 6.690555333380928
Zn 7.655707594299915 9.820982562369668 7.51792929818079
Zn 5.456988380995547 6.781720082823305 10.134143614703987
Zn 5.456570798391256 10.304902575349276 6.337602507958537
Zn 3.4023430867089584 10.511224914769349 4.8564825391233555
