44
Energy = -29.17676215 eV
Zn 3.9316243824722803 4.880965277852443 1.859773651008574
Zn 2.6900322577729194 2.6018660943858603 2.684842515046418
Zn 5.339618826154465 2.6801200574782484 2.7146629372133937
Zn 6.409182451072321 5.019696593429783 2.55226814359316
Zn 1.6879326234540228 4.85559212410848 3.1835695009361973
Zn 4.994219172481039 7.194006449348725 1.8287256417105755
Zn 7.228052457295621 7.516951855281619 3.2239112267175623
Zn 2.5575588358629204 7.2320919920546 2.6736646909724273
Zn 8.723965299634477 5.295343617743643 3.568772919291814
Zn 4.2081367029717685 4.526280126393653 4.515693379899883
Zn 6.48498512997188 2.4287242455664155 5.061905636251773
Zn 7.367555700513729 9.60633651941206 4.770771902099541
Zn 5.058840016263937 9.308952820566068 3.368566224587985
Zn 1.9403929569299065 3.5745381496338458 5.403131311892435
Zn 9.492209295711213 7.887784708099038 4.444716553157431
Zn 3.929501717435397 1.6842010321244496 4.671145402483562
Zn 2.6741210410825267 8.864092176657566 4.657126088788042
Zn 6.631080400032246 5.051631643101368 5.232303170833935
Zn 1.821412169401919 6.40021039716932 5.2263592511296535
Zn 6.48621263441034 7.59811658085793 6.154554109860802
Zn 10.82653957029705 5.364739086324974 4.854219203598337
Zn 4.668961359055277 6.93287510391353 4.530395984710099
Zn 11.209129570297074 7.335726460265533 6.459654580340318
Zn 8.579606016585489 6.271036979287669 6.378622089639079
Zn 4.0628076466678 2.9358953952902564 6.876162115963666
Zn 10.912502777505068 4.910587983062833 7.337450300208707
Zn 9.285134090179396 8.953038494257404 7.0096562891866485
Zn 4.774758027680794 9.59220982341548 5.93079774316125
Zn 8.747204073567806 3.6244071710112125 6.153411850287269
Zn 4.567414502714769 5.628504694049145 6.805689648606875
Zn 7.002922742601048 9.961672939280442 7.430346547949744
Zn 2.0662042803920158 5.061310564565893 7.502942325897977
Zn 2.971420154429449 7.8482362052386705 7.004858162746209
Zn 6.757726688501901 5.897432641009955 8.041981188986211
Zn 9.722703624922012 6.8825378805504736 8.690754817383548
Zn 7.600621523667155 8.331466939579101 9.344820103036556
Zn 6.5865930140994715 3.187917618005295 7.63678407013077
Zn 5.136383663437338 8.24944620998527 8.475184871264643
Zn 8.958028345330112 4.244968678360829 8.817560641520357
Zn 4.540728169735875 4.148775914442505 9.112989113365472
Zn 3.445323521655753 6.443390572047152 9.208730594323429
Zn 5.6310749600320715 6.493809353937178 10.460118716543478
Zn 8.176402652816837 6.142318839778112 10.621578945275578
Zn 6.830621266901397 4.067638305075208 10.236272152395973
