40
Energy = -26.30313347 eV
Zn 2.8568609855294262 7.6601908259303295 4.418094308807154
Zn 6.204623492098384 10.328263082861803 7.363078206087399
Zn 4.404926415386821 9.235013652726416 5.827438328129156
Zn 1.0616996570377766 6.342401100418883 5.746620729796299
Zn 2.573746594496431 7.873298475513271 7.130504620314148
Zn 6.6472499129581895 10.11056940462978 4.821129539459725
Zn 2.3904571772488903 5.132113791299854 3.810223519191632
Zn 4.40061950507701 9.11896171547134 8.625148714972797
Zn 4.886359468497245 5.412313734464678 3.454955588468403
Zn 5.50282332551899 7.877834250602627 3.9006733656065844
Zn 7.516730762299793 8.878381011201744 2.6011443765069973
Zn 7.507114298802315 8.455812580157525 8.603980480373904
Zn 8.675193507539715 9.853110618090309 6.761003326148406
Zn 3.994367091371798 5.613876296546857 6.181736808533733
Zn 3.4571759718279975 6.925436590106583 9.451958439745589
Zn 5.73320806210263 7.169076023219437 7.170740168533256
Zn 9.191506556100913 10.1598490667932 4.175228036719483
Zn 1.5975400809953615 3.870015442382894 5.87260978443209
Zn 1.975101883550343 5.3140672532962645 8.042699205592298
Zn 6.4221420760077725 5.060440518643686 5.597128660470409
Zn 10.05780209637411 8.24484577688954 8.257714705127777
Zn 10.565063208618172 8.38343511806938 5.73341133920039
Zn 9.656821368914162 7.722870040484711 3.3381049003221843
Zn 7.676819093025918 7.695075812173096 5.5968769916580845
Zn 6.176748224490216 6.606334307419086 9.788303784680208
Zn 3.9910416892002467 3.1911948568330657 4.848110064948589
Zn 4.6812171934707525 4.806793311547329 8.692219039219612
Zn 3.076775347955065 2.864406755105665 7.661333038565809
Zn 7.55221850322833 6.115258288328207 3.3985330303910555
Zn 5.5395622777442926 2.7253642287964337 7.162413882040137
Zn 6.4176131016784606 2.5414149293288877 4.523921228259677
Zn 8.246541460538829 5.866025867963454 7.155314187820834
Zn 8.851978137877353 6.368059571390872 9.679154858686339
Zn 10.030885559173893 5.980103593044601 5.152952765866638
Zn 11.068411690232944 5.992331483935014 7.815547205189775
Zn 7.1971463394199535 4.291711744393124 9.061681551063085
Zn 8.622781107809331 3.9074053585142763 4.607534597969231
Zn 9.836577899120037 4.05750469874973 9.080522232607406
Zn 8.042082740121128 3.036104786330793 6.99910108685663
Zn 10.394273980312931 3.8945418800986196 6.572961145391545
