49
Energy = -34.43452857 eV
Zn 3.872346791741989 10.309970893287117 5.352444004058946
Zn 2.7535203013309006 8.1318410752644 6.150340484342574
Zn 4.382471011837564 10.221410266275846 7.871386023406148
Zn 3.7527560411105503 7.765933284289335 8.478833173141917
Zn 2.6343558291808193 5.794027492739291 7.183180644601115
Zn 3.520130168742301 5.974039382388894 4.749968221478504
Zn 6.286919023948743 5.7995920942350905 5.048791666060696
Zn 5.92805496454021 10.214086599774586 3.7224315120283515
Zn 4.139853768863388 8.280873417833206 3.7955918284361654
Zn 6.4002215916355425 10.57692037369342 6.219644476063528
Zn 3.296245412010628 8.21472576652526 11.002526767402815
Zn 5.529538319062488 7.997521310998777 6.317432491960852
Zn 5.081717918002763 9.97130427846188 10.330010829444918
Zn 3.503465240768312 3.892126887485659 8.621480158968145
Zn 8.146092772650684 10.037997882304438 2.189975568033477
Zn 5.436116707703206 5.775465511980752 7.626068179566799
Zn 5.00218669749031 3.87222240912602 3.472754153523921
Zn 4.365165368678702 5.925870377516612 10.22943149356224
Zn 6.442232388382149 7.86912366287216 8.759499165549794
Zn 5.674996422352257 7.9523144766039495 11.793476336841351
Zn 6.192442304240262 8.190305412290359 2.089550839592708
Zn 4.614761677196424 6.163254345799307 2.42004117006275
Zn 4.239434096470153 3.859969597515698 6.036179061717355
Zn 8.379237746461722 10.71533325873108 4.593051895259171
Zn 7.12064560003276 5.70508048700817 2.323889096533756
Zn 6.975740620400935 10.593836599173859 8.696227502229755
Zn 5.342299635097017 2.2836527874431964 7.699455968056681
Zn 6.194373144771133 2.280715616488097 5.0903278853895655
Zn 7.671163814317824 9.177443996635104 10.900985746491417
Zn 6.998981096628996 6.087909631663773 10.838292083591286
Zn 5.934034778007237 3.9617268888479567 9.690049776054307
Zn 7.267446608660457 4.129198205323706 6.783066359933552
Zn 8.78459441509506 7.683928567104703 1.9178816508577539
Zn 7.390216828479477 7.9883778477517895 4.59838397699892
Zn 8.03944766493534 6.647164827837321 7.024870862122658
Zn 7.875353810557638 3.85688156821543 3.868116332672111
Zn 9.948717922526605 8.72205322149699 4.119175317051334
Zn 8.821867123083424 9.121270111618118 6.673111742222177
Zn 7.464866514317779 0.8266565199830139 6.876450704801622
Zn 9.362268657376012 9.572592479661962 9.088369878342144
Zn 9.221234619451975 7.148319508233819 9.67884367471297
Zn 8.39791911874226 4.739354448315371 9.206573253450827
Zn 7.650008428369522 2.159529629712636 8.981952510743973
Zn 9.25442566333358 6.087219749213421 3.802480196167573
Zn 9.830670444928062 4.60149726314817 5.705431978772639
Zn 8.922258144338763 2.0907366696480203 5.333222905196056
Zn 10.5750947308239 7.165850150585764 6.050273951199377
Zn 10.54751036902318 5.603858857767208 8.020481429580299
Zn 9.710166329520925 3.040951466098355 7.725098936502815
