41
Energy = -26.868297 eV
Zn 8.069312931416485 5.993085884983361 2.072780226365138
Zn 3.309380058904345 4.554505653193429 2.0808593275047227
Zn 5.7686053175506204 4.925341811972088 1.5468809184409593
Zn 3.2902451062873883 7.119768366152534 2.5389893008172346
Zn 5.976161206332879 7.345464761404582 2.9740055243787378
Zn 7.811263514245146 3.5043136803774413 2.5021696911517335
Zn 9.585167552430665 4.886563622266733 4.078237193927923
Zn 4.276064180060194 9.21559258876277 3.6646215066085914
Zn 1.5210683201729855 5.508769371726422 3.5771581506570036
Zn 5.460812241663833 3.3034702715038478 3.5812563011855447
Zn 8.644532370296481 7.355499073230195 4.302276787036199
Zn 2.4389223902264545 7.605600959669226 5.010624632128948
Zn 6.8705365290311695 9.183809688347786 4.768693137734173
Zn 4.382537139949983 5.504660685622036 4.699940214260361
Zn 6.92184995185821 5.381097905443432 4.540100405494547
Zn 7.076769700750732 1.1312288876846046 5.795676051915117
Zn 2.6328335795699935 3.2788901461374222 4.319158161937965
Zn 8.801007027272046 2.3877106855896915 4.564578071877984
Zn 4.883280506546117 10.665856611846202 5.6571902741131765
Zn 2.8601162641865323 9.654091361650563 6.711339575086419
Zn 8.787544199511249 8.62831815918686 6.526848336180944
Zn 8.622309523939974 4.267413362034169 6.607698521737014
Zn 10.182405079730243 6.298969212551253 6.156259689479038
Zn 4.658746930315415 5.69826644679353 7.367206049725335
Zn 6.0285039732054795 3.845269980436549 6.304544800476586
Zn 5.045900967512973 7.694212092709959 5.877961679695082
Zn 7.171098750374792 6.481201859237852 6.834383118414716
Zn 4.539927969725698 1.7642005315395468 5.403084311173994
Zn 3.2033889305560863 3.09985861206645 7.089821772472632
Zn 2.088878173979282 5.2726591380004555 6.107175871479683
Zn 5.499876900115833 1.7458452426158706 7.8304126068996505
Zn 6.602862119842969 9.803991702941811 7.357395359888229
Zn 7.212566709333631 3.471529717669819 8.747236812316165
Zn 10.057193726632383 7.443029405263324 8.428980818197875
Zn 2.5962288576627195 7.448654190529317 7.852883854547359
Zn 8.795920660070662 5.435890000579947 9.166537472887835
Zn 5.02204547086305 8.178152726027744 8.591119885689425
Zn 6.230854461258345 5.900961365968534 9.410570401385554
Zn 4.656195904375635 3.6354598288279116 9.319831313538087
Zn 2.480076229309827 5.036827006763211 8.707203640600799
Zn 7.660652090467486 8.067610918227492 9.049951748127496
