40
Energy = -20.39124155 eV
Zn 11.461761355162354 3.720314821217775 5.539259533266698
Zn 6.747113338783598 5.890726924011735 0.957966188931842
Zn 9.738574200465697 5.507765837597901 4.374444635329915
Zn 0.903005047488085 7.722880246961352 8.281203563439933
Zn 3.115010789586629 3.391598940831218 9.327427241550161
Zn 6.827521681826712 1.9580249191347008 5.863091011987803
Zn 4.215708503755465 10.142029027425709 6.518505142318367
Zn 7.764344031033672 8.463072187786686 9.02760523605402
Zn 10.279918682665157 9.090295580041218 9.159200583913718
Zn 5.62487794951038 11.082795321797894 4.4655406192989
Zn 9.013065656138831 9.051014860531762 6.734714309769701
Zn 3.6779678641116162 2.2613957212111893 2.503948739118518
Zn 3.35017146135645 4.55888566264294 3.716282919175654
Zn 2.5354892237065343 8.078260324619325 6.100908057934636
Zn 2.2222507627970463 5.57245101482188 8.140469682441072
Zn 10.148530929314973 4.596138220628678 7.526668066656743
Zn 6.7262919959625895 10.457089328364427 6.787139490911318
Zn 2.640796579513233 3.4893333291783786 6.73249032659835
Zn 2.5048635131731176 6.865355691783547 3.9520316081063327
Zn 10.26773200147213 3.2255603721187214 3.218706138792522
Zn 8.054952967963976 4.3224365795264355 2.643674155507823
Zn 5.5502600716754475 3.959866616651429 2.2939178043515196
Zn 3.492621107017925 7.937226431908238 8.590035001161127
Zn 8.909373999890738 3.249051533393073 5.562711203293636
Zn 4.581771945063745 2.629948082098548 5.065253871363947
Zn 4.560738335480231 8.646711801282104 4.35888084219686
Zn 5.037949334579631 6.502423615786219 2.9188708464697917
Zn 2.036405286460764 2.2739797288397434 4.582156493244418
Zn 5.147033927923485 3.2653604368488023 7.610713447171398
Zn 5.527051891998723 8.049994251701 9.99219179579665
Zn 9.741051979125777 6.625140895964898 9.010322575688427
Zn 7.314479735657225 9.020049285620747 4.637438212851022
Zn 7.76298685016068 6.894343007581864 3.2080992828415194
Zn 7.706888425042272 3.6121763824711888 7.932754149608312
Zn 1.9859075773108399 10.062328004001937 7.722001637288622
Zn 9.875781259186429 7.957711830610527 4.687153676849834
Zn 4.673963449561777 5.551836364419365 9.144157101165339
Zn 9.26467777455602 4.221778082607732 9.993996319015508
Zn 8.57268216294043 10.988237883536046 8.44099872158411
Zn 7.228359022621462 5.894343524486712 9.467002438996444
