48
Energy = -32.85293085 eV
Zn 6.179369120538066 7.92762715877353 0.48087674620937054
Zn 6.853138935441106 5.328815031210636 0.8595899776686777
Zn 8.605969732584011 8.051051566709221 0.8361162482492056
Zn 4.457088617149865 6.190362037550048 1.4342466087079713
Zn 9.265278611932315 5.827547580933128 1.6784157244888043
Zn 8.01545434926973 3.9223846048058295 2.7524550084974573
Zn 4.686743943076348 8.510161509248283 2.735520220385767
Zn 2.6305714073312014 6.966523748509842 3.0019894417084894
Zn 7.227043976295869 9.47186537510841 2.5102914350459757
Zn 5.236744119893761 4.050048342547413 2.635506980108237
Zn 6.890847183051641 6.727758537934471 3.1308399982044666
Zn 2.4000415740035934 4.501460353553553 3.4771295923275254
Zn 9.372074316445122 7.8160830797507765 3.399005746868344
Zn 9.78888544513243 5.355320471830327 4.194851919090381
Zn 4.802808432092483 6.031687959632915 4.423664720937467
Zn 6.607583364709975 2.633464885988687 4.38416463353547
Zn 3.901760669599352 2.5839121560392266 4.271027081061929
Zn 5.763297190750682 10.094071326581096 4.548700497462548
Zn 7.2009415341781375 5.201871327643234 5.222358774235019
Zn 3.713229267905907 8.407310583899891 5.10520810171296
Zn 9.096279581058745 2.8515925843765326 4.996006802380686
Zn 2.3371897487835813 6.227846540085753 5.595840563134218
Zn 8.613097789201744 9.652184386554866 4.963660096310117
Zn 6.624088174285411 7.7839521476585185 5.438529780810465
Zn 5.096572282994643 4.030181728311376 6.163276519897003
Zn 5.573631063209038 1.0478825532819622 6.04659447274683
Zn 5.2623792173790935 6.465746654799342 7.02361615329665
Zn 4.854111330993593 9.691721905780753 6.984306961094428
Zn 9.696621466266649 4.606370300325025 6.655523889754594
Zn 2.364486797568355 3.7181008914106695 6.09566139274432
Zn 9.099189054605919 7.138482067350966 6.0372524554348255
Zn 3.20967406439679 1.3371636579434703 6.603100448073929
Zn 3.0601116092649914 7.82027217893047 7.663104772654914
Zn 7.533625467048492 2.9142816182515445 7.117969837185012
Zn 7.69318863209213 5.462437630161392 7.936982358374938
Zn 7.364847271091425 8.077505881540969 7.986079928382117
Zn 7.2280949676428685 10.472521077108356 6.856016482787838
Zn 2.133147896927515 5.456471897492387 8.076438397630803
Zn 4.626366361492149 4.616097172586823 8.543932006876393
Zn 5.346585599807543 1.985657535485042 8.395966376723333
Zn 5.110397788402475 8.526172167437917 9.238187048566765
Zn 2.617581741848672 2.830958978916017 8.624722537929147
Zn 6.385445648495586 6.420878309288598 9.9214557559206
Zn 6.800822327488221 3.699883831312606 9.776526360027852
Zn 3.556779566708189 6.689424808865559 10.004701906576024
Zn 2.532825045494251 4.26680904360069 10.751234110679802
Zn 4.37315361976925 2.5319032862646953 10.740058033425884
Zn 4.995557248857294 4.862894681182862 11.466018248632102
