49
Energy = -35.3566315 eV
Zn 5.387634657173792 2.552901585753543 9.97586499381802
Zn 7.67022658378972 2.1061680552371542 8.784443983293443
Zn 3.516797653564529 3.070265841250223 8.08118199943419
Zn 5.476879504527425 1.4863203681724186 7.707961914675309
Zn 2.1624488937423467 5.1438413838015276 8.343035555242889
Zn 6.738599316102138 4.627779422258067 10.46004530170189
Zn 4.289488974754981 4.925797766636106 9.770209393621903
Zn 9.078359623167433 3.9715595349073336 9.6588082141195
Zn 6.854451148518473 4.418940777350727 7.586151865396893
Zn 9.49816906565495 3.1348533364290714 7.303459463116545
Zn 4.599657781740769 2.7645557026445973 5.697582433078429
Zn 7.332439617827638 2.0632139538680407 6.124604352249479
Zn 9.926871786789334 5.723167919335114 7.8645435744773025
Zn 4.707008915138125 5.560058469593471 6.858986823347824
Zn 3.5057844790209356 7.303969545951174 8.897533526302068
Zn 2.4730830474688323 4.317007915451221 5.91628250002437
Zn 8.344443919014095 6.474027913638048 9.776962215724607
Zn 6.722885087570702 7.007440310291085 7.563071933031864
Zn 6.031196224533352 5.078341240182027 2.0945589251835597
Zn 11.078654758035377 4.592338506447776 5.8627120394378425
Zn 1.8248941072246003 7.1505029311064945 6.934119482171344
Zn 3.9667279724463884 4.273662345972124 3.7241993581023056
Zn 6.455294831072826 3.363415262145386 4.064614060065329
Zn 8.330501980386446 4.355098611622871 2.6667935469223183
Zn 9.15579184436639 3.27826422378421 4.767697895966194
Zn 5.743905367410988 7.066813518637889 10.166683549277616
Zn 2.7371513121358024 6.503806124162378 4.586562107121109
Zn 5.805723858744437 6.209052120748314 4.551212182309597
Zn 1.7200955667300488 8.947644350494745 5.223062793286531
Zn 4.010620363821644 6.508651373205846 2.375620784688152
Zn 9.291807604957178 8.206160864061284 7.879335132891315
Zn 2.9520590815580947 9.546355166246789 7.378946315197318
Zn 7.152981447497157 8.279721721637994 5.418856238027437
Zn 7.57898838039507 8.88415199741006 9.693681602667274
Zn 5.2807146908140465 9.165936515002041 8.57916266631533
Zn 10.247878961925545 5.648386272637099 3.714557006207888
Zn 8.081793931176698 5.7068048237983175 5.627674432593904
Zn 8.026645435970362 6.86480628581398 2.6979328220770413
Zn 4.660742170872707 8.059419408232454 6.020333904731866
Zn 10.736462094117716 7.172505144249037 5.857672945575501
Zn 3.560550682012513 8.833756029519689 3.454108676309497
Zn 5.882516592062725 8.269226206629464 2.409305343594399
Zn 3.350894576463826 10.839854065492526 4.9996833815463
Zn 9.450714306387747 9.510623014371568 5.656247699313375
Zn 5.201983910054346 10.925773517456172 6.6751698003994
Zn 7.98842451517839 9.52179641061213 3.2882835121026694
Zn 7.505350180996158 10.037987271631547 7.3834624757339204
Zn 10.084929160030711 8.189375945864299 3.544287629936107
Zn 5.720183964364993 10.240120076480663 4.2066780292283905
