47
Energy = -32.13042445 eV
Zn 4.121730141736912 10.042037752898024 4.367093226906542
Zn 4.100276695992178 6.7253134412073265 9.780232489625243
Zn 8.524185590583729 2.7597687550969123 5.941655266456761
Zn 7.492140319568894 5.966471413580694 5.725222202127056
Zn 8.640107950525842 6.449203445776933 8.509217535760373
Zn 6.663530783568179 10.64301475327853 4.319606273802158
Zn 5.227804803162522 10.429007100139984 6.587656506398684
Zn 5.3549452634568295 9.481364041418932 2.2628989456624176
Zn 8.76401478150902 9.263737532274487 4.702879562526123
Zn 6.089002400455958 4.0082945357379725 6.663581904823331
Zn 9.402938487815659 6.925058910761515 3.9364036158366766
Zn 8.876698310787898 9.151982692504198 8.415335351904453
Zn 9.692353818840516 7.549518129321535 6.458760614092204
Zn 4.587055556472346 1.9025902836296615 7.7407717143106725
Zn 2.4080117453688783 0.8732932111956754 3.5351749952871256
Zn 8.238986847374171 3.8679234168955685 8.301421963775468
Zn 3.7611500202698647 8.178229310700852 6.16367640180563
Zn 6.149541502173375 2.8480370530775256 9.546431713099462
Zn 2.862313611237759 5.777901897205012 7.1186457502571745
Zn 5.3439890563385335 6.954273925154628 1.8872924019382198
Zn 4.839892821825288 1.8136418695404342 3.223148564818343
Zn 7.267288379217128 1.4225246728049157 7.796283068161202
Zn 6.077494443705851 1.3476422206853702 5.565656590480986
Zn 6.720915084934613 10.418355478986516 8.753892648831151
Zn 9.441488871061718 4.3387849026336625 4.117884432058943
Zn 6.056890254931524 7.815203943635587 4.564884191256471
Zn 3.375455606398253 7.794842296547311 3.540141142578543
Zn 1.3577449719027856 2.742016988458239 4.9720317376606715
Zn 9.89599035580177 4.955028256595799 6.568631892591393
Zn 6.722330325200224 7.917581071253307 9.601554629603356
Zn 5.223953497594059 4.2442475067892165 2.332730902906724
Zn 6.954119468048913 8.260357350764865 6.8177617976823806
Zn 7.328372839103275 5.67623053184316 3.0495667285439665
Zn 4.848891903046084 5.65242761819508 4.75028683430226
Zn 4.564953048581743 8.91621704830547 8.553889095762045
Zn 7.960661750006291 10.903649537540277 6.613310179554328
Zn 4.038167983403566 4.267709446528537 9.01477301495061
Zn 2.327706552307006 3.270194720418631 7.305596415309442
Zn 2.2252571579457006 5.2272506620308565 4.616837993240624
Zn 2.6611853831852033 3.253660360770295 2.6306454078343906
Zn 5.343731169690068 6.381312318003496 7.313342125828478
Zn 4.084864906912422 3.351946308800203 5.274223720930145
Zn 7.641569443217393 8.293847338239614 2.5330202880445207
Zn 6.465163986112019 5.354931312096853 9.638860441829538
Zn 6.999206941425347 3.2503298704209875 3.9529572650662606
Zn 3.30712539734683 0.7726543946894845 5.818704152411443
Zn 3.105600846388111 5.697191448097777 2.252227377898083
