49
Energy = -34.08886342 eV
Zn 4.241534171702199 5.425264386895124 2.0743531815998235
Zn 1.9666360901721631 4.118313762588927 2.4028025071561236
Zn 6.680003231590608 6.667259948960692 1.823382665994541
Zn 7.053788400288292 8.840530848266793 3.048525202054525
Zn 4.817449682204974 7.530190022837379 3.560112437334955
Zn 6.48737307518201 4.145276121904641 1.960838932884746
Zn 8.59269831269392 5.867474041287069 3.2769769529486807
Zn 2.283743348101912 6.533698065559041 3.350635267154352
Zn 4.2915751133429145 2.8581977093690094 2.741797018384178
Zn 9.341350182682147 8.253812016697408 4.001331605570233
Zn 7.996818613591129 10.124419183267403 5.164711951440489
Zn 5.346916025550209 9.7492618626432 5.162593936322495
Zn 2.1658386975284634 2.244172204575272 4.114364812955897
Zn 1.040484262126432 4.470166742254526 4.850393354701311
Zn 6.199269360558318 5.293836168470452 4.4342631856407975
Zn 8.455029229736493 3.990568511364754 5.215190538079487
Zn 3.7473714728245398 4.668375899940342 4.849497762524195
Zn 3.053853826534401 8.61366445125598 5.203555435825717
Zn 6.909554927362537 7.534363041147298 5.4358570511808235
Zn 6.594510491178257 2.582516474363672 3.8890685010982775
Zn 11.520362438006027 7.308351144991607 7.310448997988789
Zn 1.1441217000573043 6.95301911466173 5.54837432981455
Zn 4.488360366207915 1.8442519315932273 5.230242445105323
Zn 10.61892633578306 9.289106463250699 5.901128227061314
Zn 9.84105350371026 6.181925974831334 5.547075547985992
Zn 2.3725449370939025 2.920874054221384 6.617022705713362
Zn 4.557333746953966 6.675041930545561 6.280632978357247
Zn 4.329618713580932 1.8302913223188721 7.890237322073723
Zn 5.411095371627075 4.216982338693142 6.651995454354085
Zn 8.62321424645473 7.901348810154567 7.291757906098703
Zn 10.154493891164122 5.223058899388801 7.974215563897816
Zn 6.932180611958491 2.028635971613389 6.323038707425706
Zn 2.196051174916354 5.4238116739621836 7.295474765081526
Zn 9.119600666709955 10.736747357993002 7.4654813379313865
Zn 8.751056031664891 3.100476066312147 7.706069149678084
Zn 11.046012914890369 9.510167498094328 8.510245389721087
Zn 1.9969123082885691 8.100684472944167 7.6330376753587785
Zn 6.649795887689686 10.091019070204945 7.459733853226694
Zn 4.20537842731848 9.30214649182557 7.551428097891642
Zn 7.455273738468083 5.610111556063275 7.1568455988636135
Zn 3.7729644405121046 6.831095983389695 8.92568069566001
Zn 10.275076265968027 7.335860053523121 9.630743549092186
Zn 3.7990904130791185 4.190280025531411 8.78075460416522
Zn 6.424137113644184 3.0476819293464876 8.867613583101267
Zn 8.5125991970897 9.42693049428081 9.535715933787511
Zn 8.354645778772683 4.69322370899842 9.68780811085336
Zn 6.113752778081761 7.7052192893926295 8.282936007985871
Zn 5.863396780432425 5.517936689411747 9.698669845644321
Zn 7.8059603338714325 7.093166847761017 10.286147944178518
