44
Energy = -30.08438264 eV
Zn 3.7431732911716984 8.059605362780117 8.117472078267314
Zn 5.490358277434149 10.449059131923136 5.247309151645496
Zn 0.29085572530929144 5.625239391597426 6.703058917885033
Zn 3.3335470350731624 9.822980093721453 6.361390894123032
Zn 4.170293664307827 8.48732562056982 4.306920801687676
Zn 2.5232599003132656 5.726404727792911 7.82856055834735
Zn 5.641895192710086 9.975085153530589 7.76660004370165
Zn 7.797137010996036 9.834311900779852 5.889655439110422
Zn 2.069073625287496 7.615750108919103 5.889778910658307
Zn 6.0696988754676635 8.111075917795631 9.46589837353591
Zn 3.908898376502317 5.745432483102103 5.5048537811876574
Zn 1.023833772474811 5.722363022093471 4.3489962047680795
Zn 5.76459727782696 6.3843929134425945 3.7081362364287496
Zn 6.831649785563099 8.753510136115622 3.777702172676507
Zn 5.080618901715732 5.865964660821228 8.490437350022399
Zn 5.506353090632077 3.6976617274984185 3.1675958898541956
Zn 5.8118224516415085 7.602160624749629 6.372037958118682
Zn 8.511811896703568 7.816704463200074 10.537594190106562
Zn 1.9873125624269359 3.7864293345298483 6.084901834875953
Zn 3.93345025432945 3.565425516667632 7.802814307583835
Zn 2.947949765375781 6.695754138797099 3.0669596184592165
Zn 7.767956519880293 6.369775878914368 7.831748128068616
Zn 8.201742489217953 9.171594939566301 8.338134957368922
Zn 2.8673043400350506 4.028134025290012 3.560081376109666
Zn 6.221934907695581 5.008047207636682 6.210592039348878
Zn 4.2938581493077415 5.20134875073709 1.5371833034915425
Zn 8.028889039006033 6.831675940487554 5.377400107619617
Zn 8.493174240281675 7.317816421729087 2.4685388033364886
Zn 9.959345180889228 8.576323671804627 4.15140430858711
Zn 7.057885365853407 5.703514997250546 10.312481801054282
Zn 4.334647665068653 2.8574418804456805 5.269789994770519
Zn 6.224455019147753 3.5946824326919433 9.119280149163078
Zn 10.097814685245298 9.04077405578759 6.586742743912472
Zn 7.928662465725528 4.89855542294725 3.312902993776448
Zn 10.20019476591855 7.4200677864862765 8.492038103803996
Zn 5.963012958298343 2.104481832366144 7.052197938179499
Zn 10.677472241823546 6.601233765040635 6.002090955347887
Zn 8.707530311679319 3.7027975788411114 9.7371533965721
Zn 7.305867616158377 2.9289720915900674 4.880666608337715
Zn 10.406593524727576 6.002724477930628 3.452772231841176
Zn 8.225642737318987 3.290841804036487 7.250922719500922
Zn 9.531987120774897 4.397724292458887 5.326738782629968
Zn 10.1686610676279 4.894994408526251 7.902613900239515
Zn 9.908680854488487 5.724743906439417 10.398753943329153
