45
Energy = -29.74908243 eV
Zn 6.900614359128369 6.259854098755257 0.2883616380473037
Zn 8.580554506220695 6.978304781565512 2.006255684230524
Zn 4.814757587682927 6.548087968122224 1.9973491614450651
Zn 5.658737700986565 4.28251952399585 1.0860436643931735
Zn 8.101592148834797 4.491716088200684 2.1399333852655937
Zn 6.5479124393491555 8.409738767018975 2.4083703950559414
Zn 10.472679284065293 7.606593254642028 5.606061638559542
Zn 8.217022186481472 8.000126117216146 4.393580090194201
Zn 5.291833327631127 4.625089427198709 3.686916666475809
Zn 4.145504859334116 8.837159927908457 3.202979011763639
Zn 6.1152036556387435 9.775703490175044 4.624671414869979
Zn 10.206244692843597 8.802145291696421 7.853747432218331
Zn 9.516853808151435 5.726303827262765 4.024611311797721
Zn 8.14618292391092 3.394689131987098 4.519689477274242
Zn 9.538181824781667 4.594779146152614 6.258559936004006
Zn 3.598165661622697 6.539259777290808 4.3534340521383585
Zn 3.2035159861556837 9.027753349182095 5.473290096211251
Zn 6.476076766009928 2.484377644489931 2.636487832673621
Zn 5.3775664753857955 9.434455516521345 7.104391913064191
Zn 8.018576690809255 6.845748327798151 6.936831076683145
Zn 8.071694347104138 9.476979305284077 6.514602516717533
Zn 3.989437057127975 4.282443558562277 5.8378961335486474
Zn 5.88015182506949 2.135882037211195 5.065808859195306
Zn 9.61489299154798 9.536151312323486 10.199295149057614
Zn 5.824963262289237 7.289821438703065 5.47408622014623
Zn 7.0977007225216715 8.514005897651527 8.776382256145322
Zn 3.160163242559607 6.619933974697646 6.843233876039365
Zn 9.372660004864521 6.9803481131007565 9.746059045331732
Zn 6.599792483008967 4.92976417349609 6.0600750421101
Zn 10.785042194214178 6.256063572264816 7.72905491234838
Zn 7.281945933059637 10.650724348822873 10.446350047794823
Zn 2.9499154626556745 8.93378014674707 7.952660256728454
Zn 8.59980650989561 4.705640007276353 8.571209641828851
Zn 7.636550532583634 2.701452091420639 7.056244422817838
Zn 4.697331315291084 9.427149506687314 9.75356325477591
Zn 3.66123319431965 4.418629218441398 8.330774343278673
Zn 4.971934915506222 2.331171055039649 7.373546196752376
Zn 7.086788301963837 5.816220342638462 10.317789339737093
Zn 5.585618738902691 6.492021270842273 7.961459344205267
Zn 7.896143343044946 8.127744036716155 11.64291671978396
Zn 3.322800737307854 6.945407295077811 9.502940015249418
Zn 6.234501251486305 3.677263751699475 9.059428951092396
Zn 5.789142996404064 9.615532222606165 12.211273334884208
Zn 5.28894275675706 7.335542959176626 11.262287644588405
Zn 4.54024225564283 5.003096166486135 10.576669857631028
