45
Energy = -29.70188671 eV
Zn 9.068337118113181 10.620763335872839 5.430991100402677
Zn 7.159310295084743 10.442743789117426 3.7138262303114864
Zn 9.713901290658145 8.31021401702689 6.4497393396467215
Zn 9.038135071319726 8.673017768142607 3.620778955514649
Zn 6.741873844350536 11.471096608471678 6.145831934193641
Zn 9.152353114632406 8.135108597552046 9.23298778458604
Zn 8.031044264456328 9.887212146158092 7.767998317496272
Zn 9.964491261200417 5.825575267824972 9.662486282814905
Zn 10.350622795656912 5.81907317695642 7.080881156003898
Zn 9.782441576685923 3.65849635413181 8.371207816653783
Zn 9.629126046596353 6.394415452993156 4.711835019294457
Zn 7.04959052017642 8.735560220632165 1.7921279697140597
Zn 7.056661573763019 8.316088841444554 5.589487822636842
Zn 7.698616495308475 6.416914598390409 10.761941901061844
Zn 5.339201425721213 9.607083846986026 7.375682295656229
Zn 8.516527699127032 4.039723120518225 6.219427548851623
Zn 8.592091939171015 3.8316129953155724 10.640211162934886
Zn 8.144237171175016 6.485684256917427 2.501799007540457
Zn 7.777439835622662 6.592609475825973 7.333249568338038
Zn 4.945193202865591 10.107027143009578 4.820786583182475
Zn 6.44120989540555 8.101723230443143 9.113604429425841
Zn 6.385788589656459 4.2529894008497315 11.647635186480471
Zn 2.481062762249968 6.439664421480712 4.471881731296645
Zn 3.3653400265795907 6.5480457366524405 2.083237020439019
Zn 3.390252697158921 4.579003393983194 6.177492697757853
Zn 4.494456281991296 4.854569609173101 3.7997195363045955
Zn 3.2252095211740572 8.796870722156674 3.3670166348456356
Zn 3.0563971763111075 5.14617976831365 8.763703172451839
Zn 1.9975588268711348 6.553376340025918 7.025554859438333
Zn 4.209186237952078 3.681860150383907 10.464294808292298
Zn 4.68308919051513 3.16352535699388 7.983606509906961
Zn 7.084272209433436 2.0871451744533047 7.305627345832244
Zn 7.156603581893716 5.670229250009893 4.833342475478819
Zn 5.784118569279799 5.958209126305189 1.488193635487213
Zn 5.479253449251242 7.454795726024718 3.9133173758395268
Zn 5.123945357855898 6.125757071015283 10.219253125746587
Zn 3.3711281584760817 8.4463332462446 5.955634430503742
Zn 5.8560901516982256 3.596344067164292 5.6337645223333155
Zn 6.280768888263041 2.2939272410829257 9.866885374329438
Zn 6.796388006832752 3.9827043042716626 2.7238774437751623
Zn 5.2822860334933015 6.3774611841252575 6.522514710402109
Zn 4.710404769772848 8.470230545905759 1.0218118073770837
Zn 3.9305188645596525 7.629874601276055 8.47201882294183
Zn 6.849238006030947 4.696794056843932 8.535369881669846
Zn 8.641114877673198 1.5492439335974881 9.214243336872489
