40
Energy = -26.55493267 eV
Zn 7.0338974048210385 11.28199849171565 6.9540288906459
Zn 8.05405181396846 7.092568817787891 11.271993947452515
Zn 7.90461887908367 9.08268735726288 7.861579720282274
Zn 5.895690082965864 10.66813478985128 9.39883168303653
Zn 9.68690097097071 7.954826181957754 9.230733225198613
Zn 7.764299803190584 9.416474788426386 10.437019197069574
Zn 3.865003414111368 9.221001390657454 9.792378476987048
Zn 6.084481518868777 10.83216246670497 4.649562675992995
Zn 9.424974106906637 5.308809875128834 9.914392070758293
Zn 4.66586807264144 10.318544590351566 7.195510003128197
Zn 10.853422533685825 6.111400995811073 7.945485490066779
Zn 9.79778534782516 7.945873276012229 6.422909235391379
Zn 6.853889389023427 5.265176325124159 9.821718724671845
Zn 6.524287770468958 7.907445214405537 6.006560755332615
Zn 4.423860918560263 4.798793070880275 9.342262105219438
Zn 3.7831262126616045 7.961991422431943 7.346767938591051
Zn 7.931705523190288 6.297579824014076 7.581696251010136
Zn 5.884217155499829 7.471972204262784 8.858820680610892
Zn 2.8600087654171444 6.852753793063926 9.441246348777064
Zn 8.379924152871636 9.690338936440547 5.221323130390671
Zn 5.243595272675626 5.788787351256534 6.85318996228891
Zn 8.810907411062288 7.310937075300932 3.9648270479386514
Zn 9.481460484746663 3.8398389743714256 7.850413183894005
Zn 4.2938625384860805 8.933170256574252 4.928959714934681
Zn 4.259676059302003 3.192564885391163 7.3667856916415175
Zn 8.708022345999591 2.9275538804389485 5.6679484669078395
Zn 6.8629784546130255 3.7602732395164074 7.5893536147805705
Zn 2.8207216268825936 6.731297678437596 5.405133678088482
Zn 7.122843734259404 5.4042666832447495 5.213399392459661
Zn 9.92363854068676 5.454667902630097 5.652524321128835
Zn 6.71828596063601 8.81428122054866 3.3297776212838595
Zn 2.5408835220207635 5.166031448255282 7.496124292781215
Zn 5.028461584711604 6.631575367270747 3.9771634706865138
Zn 9.108379225145164 4.563949602691351 3.402912528606691
Zn 3.52313218000758 4.30656586986595 5.150154957128266
Zn 5.650542934977692 2.489194056179605 5.396554274286531
Zn 6.93180832011714 6.673993115862556 2.074537726730997
Zn 7.371514014104871 2.615978423463858 3.571956803673064
Zn 5.244705777008674 4.1498708362596455 3.2817855380938714
Zn 7.213072452159365 4.305020804695817 1.607839969123444
