42
Energy = -27.78161066 eV
Zn 5.809390504503612 8.684966842874816 8.73862184568017
Zn 7.571271832097312 7.266062676763735 10.024132215763691
Zn 6.356821721744511 10.821288255851151 7.167064411836784
Zn 5.207791525791676 6.221178714330286 9.508234214396825
Zn 3.143367218579115 8.033627424355716 8.588192795115464
Zn 8.364569553023612 9.036692377085526 8.148359565252747
Zn 10.006636979446721 6.9715768726004725 8.624974991669923
Zn 8.914768791622429 5.126994487783741 10.149777183455589
Zn 4.148663206616786 3.8637302639150377 9.351379582149725
Zn 3.9936591086543687 9.795461094037188 7.047364685628641
Zn 7.558048824214745 6.368380004700297 7.436563981715816
Zn 2.38697588709708 5.637068739820574 8.650619364698557
Zn 9.078375937733776 4.080935541441386 7.8165826157987786
Zn 8.632564261649762 10.615314327853074 5.96968004791496
Zn 4.999396428046531 6.930356188892535 6.9355703825366035
Zn 6.460823450310102 10.597014181315492 4.485689069392216
Zn 2.5127515547660075 7.433415600146861 5.632301284243579
Zn 10.15374775794165 8.475042467772136 6.345791718482352
Zn 6.607288117342067 4.156995506563845 8.68699173813194
Zn 4.721494549347641 2.055838184485589 7.6211490976442375
Zn 10.049960341313332 5.869799442625242 6.226830718933615
Zn 6.76460085142805 8.431044315646286 6.051382071675695
Zn 10.26818799638263 7.293411297251864 4.013765291687768
Zn 4.251551515517143 9.066335030427734 4.658954691620227
Zn 2.235134969434151 3.011350823964266 7.795706743680181
Zn 4.130432547116394 4.694557275180163 6.555220239324142
Zn 7.815732618889195 6.553670726603496 4.859401628892122
Zn 8.664188772675375 9.372924234922667 3.7141161713088153
Zn 1.4267076029647205 5.100262962671462 6.378148506716786
Zn 7.154596879680754 2.3929673248562326 6.815284690329929
Zn 6.44541112866395 4.709828908865464 5.791038229891124
Zn 8.905894148166679 3.7108801170305026 5.320425884098496
Zn 5.2079266731041916 2.0842032750497066 5.097097497089151
Zn 4.746388411385137 6.461858261861114 4.329102603163943
Zn 2.3991382370631076 5.145363072406059 4.105797589650933
Zn 9.019980859394781 4.956848762265251 3.081824275151994
Zn 6.3421706156289845 8.202835282636398 3.2923026626838894
Zn 8.496100495823152 7.320320982790987 2.146204144425697
Zn 2.7489435175664574 2.8681547489620223 5.258408059402947
Zn 7.094741921762076 3.255846691033255 3.5107093986928244
Zn 4.588059468433049 3.961522170447011 3.3925485992924616
Zn 6.465140435926362 5.618915651133591 2.5015041744685
