47
Energy = -33.25245862 eV
Zn 1.4738111635642133 8.027706056313262 5.0818971928854735
Zn 3.517436886160049 8.511114590521391 3.6410243399735815
Zn 2.843329801448286 9.979812904680212 5.845365451168465
Zn 2.7263260686749975 5.945963611223218 4.1211763001517
Zn 2.5541120416819805 7.797237017071059 7.472173090341634
Zn 1.3158293025955858 5.8454029612115965 6.360935027209691
Zn 5.090690308098793 10.626349713767157 5.0165085379930625
Zn 7.579043066491174 10.46307701094016 4.8649890395963125
Zn 5.100183307987177 7.919953564005038 5.958262043516212
Zn 4.837115388188103 6.349862803700837 2.705855572062135
Zn 8.445891902522918 8.818724770048753 3.065522734524491
Zn 6.487852097498263 10.136976199796813 7.335474753973125
Zn 4.128499051427416 9.643313783213792 8.039343090545326
Zn 2.5419297853646152 3.7599625585959187 5.920345084074135
Zn 4.163585588898359 7.296269342406652 9.491246903271012
Zn 10.02263010032087 9.377379285589639 4.997676650351284
Zn 6.029677104268836 8.53315767827451 3.519636471214875
Zn 7.417681918573629 6.574121034833233 2.3015481762117065
Zn 8.962633640128331 10.385086156841078 7.067111535810479
Zn 7.947803766684631 7.689600926070243 5.976460661926894
Zn 6.351502167064109 4.266330082623473 2.3544972121843224
Zn 2.7522354875870527 5.406265100238235 8.508290956348267
Zn 4.399183093805783 4.02789309891908 3.9903823481045873
Zn 9.524654857484665 6.644549822493754 3.737469090544084
Zn 6.584687489583577 5.854012500589645 4.798778161718058
Zn 5.864266482289661 9.136759435901022 9.786480085396052
Zn 4.616875269854462 5.443042318677993 6.456084911509978
Zn 8.183738187328863 8.780884188107697 9.002234446546339
Zn 9.388763981496668 5.227942067460423 5.852091607382653
Zn 11.231248845994504 7.22101856789171 5.533578296711504
Zn 3.670953262286501 3.0629050815937355 8.177198476291922
Zn 6.441649346815982 6.826695041032463 7.920491536459139
Zn 5.040261309919008 4.874288471770882 9.734956459007318
Zn 4.5352724690655 2.2182742373572353 5.870867324266183
Zn 10.297316485432704 8.321296517795632 7.702400437634496
Zn 6.813334361993493 6.801655443021658 10.503265692650919
Zn 9.141448568421286 6.426992705142713 9.258672705156899
Zn 11.225016524371608 5.955737257951721 7.703123625701645
Zn 6.690415434575938 2.811534538830887 4.504504564391955
Zn 8.610106233852536 4.255325471492647 3.5541521407423464
Zn 6.960764686069116 4.42984518365693 7.007546750616732
Zn 7.608375779804942 4.429997963343695 9.731599956540242
Zn 5.965163968720526 2.55215645824251 9.003170557794588
Zn 6.7234183292589265 1.445066689508419 6.7409148689454526
Zn 9.786899270565307 4.035633055542379 8.213312839234021
Zn 8.92695566758918 2.6800155962833885 5.953674306592529
Zn 8.388007833908553 2.0666112634110045 8.508112658492333
