45
Energy = -30.52513529 eV
Zn 3.9138841252233423 11.188486408179257 7.425373002434474
Zn 8.416266392089181 6.98440856119713 9.380743386222337
Zn 5.508442096094493 10.360570633810813 9.271730165496969
Zn 9.392448622124093 4.333312597813598 2.630183773114968
Zn 3.4827960617432603 8.9040200023538 8.51624351901879
Zn 5.968869856556254 9.433586982538356 6.701745993254994
Zn 8.426158544217268 11.199764042826198 5.871561637033155
Zn 3.6900162970581487 6.36027001677624 8.076886633978923
Zn 8.791712585302903 2.6123892556398447 9.25659584342691
Zn 5.061886317664175 4.6798595136268695 6.246412718850511
Zn 8.558589529193645 8.839291007878826 4.911057929917093
Zn 7.345745644207028 4.9032060217482005 7.453769220139761
Zn 8.771051297816644 2.599151699416558 4.66283246781373
Zn 4.667324004311646 8.589899920519068 4.603209891109087
Zn 5.001239711189507 6.113048715324482 3.797587154624854
Zn 7.2259619004804625 4.818074981417302 4.92017933323006
Zn 10.09449066204738 4.784128229943866 5.150726593419896
Zn 7.759971959093269 9.454799686515935 9.964905699944074
Zn 6.8354078399447085 7.92992775807967 3.1837828504895516
Zn 6.563129157575721 10.390217124141284 4.121518310398062
Zn 6.368870398720679 6.980112213421207 6.055695614321102
Zn 6.24505784553392 2.9012914582890326 9.179101675408402
Zn 9.821045179418682 5.010216496952491 8.6830590278014
Zn 9.133962121743918 6.660385962754967 6.561711611129935
Zn 3.799898994354944 3.7940783820521227 8.45154695881569
Zn 6.068853400931003 2.2493011746994998 4.79584342152118
Zn 2.6116552786677296 9.275132354594781 6.102762711235939
Zn 9.023813931253676 6.626557523959575 3.7863812183869565
Zn 5.119910571427799 3.7028874025759735 2.9724414453111465
Zn 6.083103249054474 12.150120517739477 6.300230658223016
Zn 4.923896131880128 1.952004458079945 7.084363472713049
Zn 4.175691846427627 11.087923879488702 4.914117503935143
Zn 7.4669886683761915 2.1191936062252994 6.962878356652635
Zn 8.43888331065787 8.987016785540252 7.480588872577943
Zn 2.6232893503184136 2.574743566314325 6.229313743087346
Zn 3.1037123357171166 4.293105227658279 4.430859607971401
Zn 7.068262722584401 5.498509924904052 2.2872185875060804
Zn 7.936167450505695 4.648362972257052 10.471073397932848
Zn 5.677340778511721 5.367254128232887 9.431854275637761
Zn 3.0798372681101225 6.739871910195215 5.511720678848015
Zn 5.960134193860785 7.704668213356377 8.593862217966626
Zn 9.849794339160676 3.090894787653089 6.990917051105341
Zn 1.8977763487664034 4.886074341846506 6.861037165410365
Zn 7.666891356948326 11.43230108549016 8.266842749374046
Zn 7.41455180469693 2.824359947532986 2.4823133347707786
