41
Energy = -27.45343472 eV
Zn 2.7426932184265054 3.6847285958359355 4.990091183589888
Zn 4.169521623451585 2.829430012192776 7.125007758893371
Zn 2.725074517995028 6.877480572502452 8.163296620549293
Zn 4.3419900024736915 6.804598771191946 10.089084605341913
Zn 2.1806149921186564 4.4166509287989335 7.441497127351401
Zn 4.49688984129332 1.843819539474461 4.727152855654754
Zn 4.224456349126538 3.4523474825482277 2.73344960020129
Zn 2.500469860163611 6.2246755853647375 5.649390890244466
Zn 2.8012001349985813 5.523174725293877 2.768217667225699
Zn 3.952258504847088 4.4103666972886355 9.320763974674334
Zn 6.371895506578224 3.715696207724172 5.944013367812213
Zn 4.57153824590564 8.767420014931846 8.519247371804607
Zn 6.262986677705427 5.297415999409343 10.695914943824707
Zn 3.2240234126652805 7.873346553546644 3.7575685632167257
Zn 6.7905549677044075 0.9550069361681045 5.256528894962573
Zn 6.673066382487064 7.8661454427996205 9.930659285971029
Zn 6.502210508738757 3.9712500779048785 8.561786890776428
Zn 4.859299816129488 5.69086575197428 7.147846509230525
Zn 3.1871918307328073 8.69450788452269 6.267577201195771
Zn 6.290293533329759 4.978724371942737 2.2446259663881927
Zn 4.931076315186945 5.488499126991982 4.5666667697445655
Zn 4.886784508823173 10.578897234559504 6.77792089736552
Zn 7.490039902895993 5.905460377080958 4.981420616980599
Zn 5.794733404670816 7.823511252347175 5.9159585192374395
Zn 8.632261402959223 5.908337128634308 9.596944586638447
Zn 6.625847663561526 2.6032977087493814 3.1949596392338386
Zn 8.679763297334151 4.3009082187535395 7.166808478746453
Zn 6.992909516499987 9.798770380266864 8.121975394350498
Zn 5.810719216199164 7.643788735064895 3.226977600885871
Zn 8.689120078831168 2.6895044139739768 5.019230654766054
Zn 4.5709874796627705 9.965766715418425 4.307948919059767
Zn 7.24054765665976 6.520121019197497 7.465720500144629
Zn 8.710850805257802 4.237611323840011 2.975478214156195
Zn 6.951466197526082 10.53588841029035 5.4022742636137115
Zn 10.043590743447892 6.55414764268399 7.251920533474739
Zn 8.22136238096379 6.707698255794218 2.500153578101618
Zn 8.987502572253103 8.322791698886522 8.925760140975076
Zn 10.205820467928172 4.743908578355375 5.145875810534322
Zn 8.093977123518151 8.8292498125628 3.9127914726023096
Zn 8.61674775351052 8.715938608483986 6.416106657279184
Zn 9.858455474014688 7.151045095224001 4.696179361776153
