44
Energy = -29.25317409 eV
Zn 3.9581325708142314 5.317209503073117 3.157158616125139
Zn 1.6946358209614876 6.348040780618946 3.700370184247036
Zn 3.47707268121211 10.081575240971187 5.662502962810917
Zn 1.7493622846630945 8.239672488901892 5.329496803509631
Zn 5.866765738902243 11.117776798000154 6.577284768909853
Zn 4.335555772077621 7.2763699248251275 5.058351277414673
Zn 6.2334963939395065 5.258498264569615 4.466336049898076
Zn 5.672647398374884 9.417424824334075 4.435238553916197
Zn 5.8725969832868685 7.293125670812378 2.8811105373320545
Zn 7.830962436115216 10.684923538544528 5.037716758532894
Zn 8.627868926466611 5.11095241690051 5.320422378684904
Zn 9.622072644567547 7.048609504451559 6.97935707137271
Zn 2.6569000086281505 8.673359437546685 7.767962554614935
Zn 3.9313065115445722 9.332454677019395 9.854737178937619
Zn 4.7899269789071965 3.055019874563523 4.3945800764834315
Zn 2.625028949221901 6.293850282321722 7.019584001969573
Zn 2.9306983673203906 4.376864288530213 5.43123945158824
Zn 3.7880359401117225 11.092157512916621 8.000799506379135
Zn 4.229473720660921 6.752796008691527 9.159038954787682
Zn 3.7757447867126044 4.216649918204745 7.991007909557119
Zn 5.375075522630672 8.425295744322982 7.242913855201488
Zn 5.877041779535595 3.0306913655527077 6.747417016389376
Zn 5.5762426780629895 5.836955873802121 6.9754454534206305
Zn 5.651812504674159 3.6751756832022786 9.52237616691377
Zn 6.218090796220563 10.2578291407621 9.0731991565219
Zn 8.220328584135682 6.149067462551171 2.8051370439541032
Zn 7.24825521102702 2.53238624545156 4.276235913756713
Zn 6.099108440053896 8.261155094980722 10.639843066204856
Zn 8.135224994043904 8.620214745028607 3.436071990317644
Zn 7.239656656406097 7.416836098825852 5.719866475013316
Zn 6.375689469213542 5.799837919553643 10.677224317578563
Zn 7.546009471178531 2.0297731781078507 8.518462140106442
Zn 10.222145770067195 7.098468019989406 4.24897311217567
Zn 8.218735238646714 4.158368833191869 10.186056007385258
Zn 7.985720181673441 9.467549530068025 7.396123063176532
Zn 7.779123910595178 4.905680223859911 7.69937597998668
Zn 7.533786440452213 7.275172745860577 8.700713322708312
Zn 8.99340122522392 3.650122445089912 2.7945780065703625
Zn 9.794021412238518 9.194080432228098 5.5082859858161175
Zn 8.769588808500567 2.6515377071918276 6.266819131390599
Zn 11.093699309224501 4.62375729297455 4.039957666387287
Zn 9.935718495962771 2.8585787559658367 8.61889789223413
Zn 10.222970699589267 5.374198767924674 8.83775239969936
Zn 10.881649297336114 4.199610629486927 6.58485345177355
