42
Energy = -27.94787832 eV
Zn 9.69498712740751 5.86212511597686 10.629356309869507
Zn 7.571790590646783 7.194575102903333 10.733613226843639
Zn 9.889186856601805 8.062929567955827 9.023255682253392
Zn 5.326240526436301 10.33778886764872 8.766582831470018
Zn 5.244626164375577 8.403144299131176 10.497232492603688
Zn 7.45691968617347 8.874535836151178 8.691362600478781
Zn 9.21810844331793 9.486955299395241 6.835088289937246
Zn 6.711825140792769 10.474247934647716 6.6912267129494385
Zn 9.745066653721029 3.764250645512138 9.034060856249813
Zn 7.473999017860436 4.414706405517792 9.981286243138356
Zn 8.151813605241001 10.383528473902395 4.631043376834827
Zn 11.067540449794297 5.836527295354755 8.470327319872174
Zn 5.396623804042083 5.839945392162878 10.250559647255523
Zn 3.2084567545318654 9.074973744027593 9.018697369632841
Zn 7.9141309355247165 6.219845309988335 8.029161115394466
Zn 3.118679823745648 6.590300662669708 9.504218783920352
Zn 10.275172045470216 7.117906617843786 6.455797445842045
Zn 5.508042147037213 7.208700245023675 7.927454123566871
Zn 4.29746149338134 9.132666252537984 6.500657367824208
Zn 7.165387037915244 7.702911670717659 6.0178373654507045
Zn 10.029608937857917 8.642109940259466 4.400360156332425
Zn 5.582500068702087 4.304944933474478 8.074593528141365
Zn 5.748440715211164 9.231158247395758 4.427065816410029
Zn 6.939415844857783 4.971635105126483 5.877750915644347
Zn 7.80570115347311 8.278155206377189 3.1707448554669666
Zn 3.0384052726186934 4.997388394725478 7.51961383884008
Zn 8.765532744367162 6.137748134979589 4.4753483090789254
Zn 10.596011499036878 7.022665512250617 2.4514908962021935
Zn 7.910767384584088 2.8263670313602063 7.574997566618382
Zn 2.3016324333755165 7.4785138562626825 7.172463654554422
Zn 4.670702556463774 6.248851888322861 5.739613252596889
Zn 9.557854305575644 4.636148535939182 6.5460301700684
Zn 3.2719897543282253 8.507663750802644 4.147287267910572
Zn 4.08484400958645 3.0628016627118373 6.199025725663084
Zn 6.104352822281036 6.449159701269165 3.5287322362804088
Zn 7.482669604841677 3.5075076976985478 3.3520953123752837
Zn 9.397513851328133 4.789415540828546 2.3339914860624127
Zn 2.468239337221568 4.37513716933593 4.757851778894837
Zn 6.381912416107843 2.314363353940353 5.60490404560188
Zn 1.5378939460182466 6.715464619945713 4.884003364189249
Zn 3.4615655383701975 6.144368360743231 3.075039190047215
Zn 5.024148587778328 4.069608472705874 3.9254838333499147
