44
Energy = -30.65559699 eV
Zn 7.0046345063841775 7.457201242668394 2.437456781449972
Zn 8.998274783025117 5.72310160172747 2.6580944741779096
Zn 9.464314133179641 7.805063723190083 3.9812096291627412
Zn 7.068145818276248 10.833266706282643 6.350800206224521
Zn 4.647354480651996 6.467628253955448 2.0703413304791236
Zn 4.659927484272967 8.450154033904042 3.683098956594677
Zn 9.571172901477853 5.358066471475878 5.275855506867947
Zn 9.22819450397983 9.60898146873447 5.7199966574680765
Zn 7.110450717167797 9.22136882403898 4.33472961999385
Zn 10.52762211732299 7.529773808785273 6.401098726047247
Zn 6.591384234689493 4.868534484242155 2.3055302522162253
Zn 7.064779607093621 6.419637730164552 4.871927109295169
Zn 4.703375725251826 10.490562872127146 5.482740875835388
Zn 8.621105681081625 9.777326889268494 8.230820126424774
Zn 8.340420799226703 3.519421048913076 3.839410766004878
Zn 7.852373388837834 7.291251981900676 7.159628083833846
Zn 2.6179037823943645 6.516613540312228 3.579138686746745
Zn 2.900757063927932 8.557898102789302 5.594186154591394
Zn 5.648006913414388 8.23634057346274 6.528452084492385
Zn 4.071004151204449 4.199242394043219 3.0067663972177967
Zn 6.150810250660793 2.536248646359748 3.147274778079073
Zn 9.944392057482636 7.689001093554987 8.954574407963664
Zn 6.102287018860697 10.169669696594312 8.721501685715568
Zn 4.182436053196446 2.1586036123953556 4.660182766243149
Zn 7.3727642469577725 8.139389804632359 9.91345053093875
Zn 7.562626975800214 4.8196524104597955 7.840970127993054
Zn 6.65769646053015 1.6194206018545256 5.525591792632156
Zn 10.080616284674523 5.374986519621482 7.81630345822282
Zn 1.7091616344132226 6.300106980775649 5.949427454317963
Zn 3.7433170927252597 9.76090200117306 7.823175291065172
Zn 5.299478032422594 6.1145727941219095 8.048281822321332
Zn 6.046819647594772 4.246345430128496 5.719546062614703
Zn 8.682951869018623 3.0453578584659806 6.354979368977729
Zn 8.655799446126322 5.809716778450012 10.078936968905973
Zn 4.505931275965862 6.192885947468814 5.460524011894051
Zn 2.5394006728891925 4.04049125594069 5.113537508067606
Zn 4.751849846875504 8.182886521884036 9.705456864127722
Zn 7.097915971118485 3.81328361589565 10.237436996308915
Zn 6.65223674638841 2.3237031121314713 8.01471996351284
Zn 3.0014259082308685 4.750167281830347 7.54774292534862
Zn 2.909276703911836 7.349149191544074 8.008053296015786
Zn 4.172792803455002 2.5130221217901956 7.119749643733062
Zn 5.941245074184744 6.058677907842138 10.62509479695927
Zn 4.7754062086132505 3.838759728111521 9.247585036361187
