46
Energy = -31.38161829 eV
Zn 10.901834774011826 8.106513670248656 6.090590775502657
Zn 9.746071629578418 8.947237347611372 3.92370390475003
Zn 9.736649833245556 5.75947560469384 5.974880225503515
Zn 9.125442966433537 6.439931956056335 3.3529482280305722
Zn 9.899220128291892 4.092319814766069 3.9532570738702573
Zn 8.653107149789031 3.3142953148628878 6.064391440508756
Zn 9.06520967283027 10.066627885094393 6.413987887976842
Zn 10.551371617681486 6.777750454272059 8.414809295173631
Zn 10.685267285435888 9.40006660722851 8.345423338752191
Zn 7.588655348522609 8.459162450416816 2.523352935145392
Zn 8.258137293898946 5.063848982608078 8.072660461428814
Zn 7.908278330190034 7.750657174160954 5.4598795682566905
Zn 6.975482517758703 5.3414723790562535 5.524602052841754
Zn 6.647675616719526 5.878987203263157 2.822044613092798
Zn 7.52849637407611 3.5189386652606296 3.4651351778799357
Zn 8.395523808087788 10.438222800287058 8.899388911524769
Zn 9.358472486808214 8.421896219704978 10.287130865035143
Zn 6.395958688178062 10.021563543089604 7.21361843621675
Zn 7.387591466250903 10.326141053875011 4.545292124921086
Zn 7.17096002530598 2.524208368382349 7.999508468355632
Zn 8.158356368318078 7.811616428100037 7.904825854199712
Zn 7.692461220442383 6.553329232943362 10.32822262515959
Zn 5.652117912480675 7.712065006669016 4.479242108683422
Zn 4.9241113723043615 10.517121717196538 5.163192904267863
Zn 5.940085291014373 6.797743560201851 7.489382048668269
Zn 6.442359611490434 4.4071685289153235 9.844956141292498
Zn 6.3174311595220285 2.2536285773969262 5.376653363629875
Zn 5.026497510402151 1.1372548318678597 7.264889119380903
Zn 5.464864580930996 9.863932706003602 2.756414058689916
Zn 6.391444662289523 8.887402915856267 9.697400535260723
Zn 4.061065952007154 6.2940141875990285 2.8751018775196857
Zn 5.053358173435612 6.791109147025457 10.208318804093837
Zn 5.347694562853057 4.24378793366187 7.276187086570364
Zn 5.138094621318073 2.247500665605411 9.585476361390706
Zn 4.383004529497117 5.84088249178119 5.604347074313603
Zn 4.1354439378967855 8.7309572704711 6.858842005895767
Zn 3.2615695448174287 8.687945630113346 4.2326232671530875
Zn 4.98498399334268 3.852580701650468 3.6998203219109738
Zn 3.8083100841008357 4.542606740011507 9.50077862986076
Zn 3.7098502067516397 2.758492170481815 5.701538145868998
Zn 3.3153098100113647 6.740060578705774 8.295139551957194
Zn 1.680209568217639 6.785681741128999 3.6058081290023862
Zn 2.400944844328793 4.5052198386582925 4.3371897371185195
Zn 3.0061950867477067 2.426545006467247 8.201231432679911
Zn 2.3320536029756243 4.639082979845707 7.061869827456258
Zn 2.0562214595150285 7.125672696072417 6.0896873844092205
