44
Energy = -29.28869867 eV
Zn 2.3170417931396803 5.985925374952553 5.9581275903537705
Zn 2.4157294102105387 8.405133079385111 7.0711805920588855
Zn 2.4906446030658467 3.9897433800253785 7.570484079083918
Zn 2.5105319748800348 3.501025339600316 4.870049638781352
Zn 3.463672350047332 7.950746931898741 4.776071647815511
Zn 1.9107391967457283 6.355787585561631 8.544134250092984
Zn 3.390245765379078 5.582692875481933 3.66243416574817
Zn 5.251807176178283 7.151582967750889 2.9020415751581536
Zn 5.240039174120453 4.492354952374715 2.35019405987802
Zn 3.8971673983929422 2.0606130948666324 6.321116147746873
Zn 4.5553521090262015 2.8323407565635117 8.657493355721119
Zn 3.3420097151888357 8.207427791372268 9.60375380854584
Zn 4.93367210498873 4.806524240315947 6.484487815718736
Zn 4.517166991422539 9.723959202492182 6.67052638119839
Zn 7.405234650626964 3.290937661378251 2.713981339439444
Zn 4.770930127264467 6.993416340889623 7.692257145230776
Zn 6.081909220100925 9.965010049335627 4.634881135247831
Zn 3.7841263943029766 5.07449037152587 9.66820849895923
Zn 5.517407904859835 2.6575068525874004 4.416092268133347
Zn 6.70362444760623 5.207603500107734 4.710239771799511
Zn 5.922861446807479 7.483328549093436 5.483244072409939
Zn 7.578396554299602 5.964271157169523 2.305364065341516
Zn 5.609819839369472 6.786428083276433 10.40553676416823
Zn 6.4078103709442615 2.415569189328748 7.008036950523786
Zn 8.118332026132054 2.763340933402379 5.2354926227167615
Zn 7.422677078633316 8.436628629378244 3.1121459910153417
Zn 7.558056381176455 4.939185067408604 7.278117661804631
Zn 8.409476829674025 7.013269051802415 5.54174819910095
Zn 5.612978980066929 9.41276721204204 9.117582306323877
Zn 6.288947573069503 4.437998018740625 9.485297083142294
Zn 8.632685938913655 9.890151654240574 4.846319893574152
Zn 7.277775354000864 7.67599473313385 7.755386094238556
Zn 9.697892463067708 7.219442512106111 3.1536206442268133
Zn 9.402992421347637 4.592977842974095 3.7382756430123023
Zn 7.534345225139705 8.345773901646751 10.729526522181514
Zn 7.033968291351329 10.348265952907921 6.967591950738843
Zn 8.243871115064607 6.011687954767205 9.6559476152935
Zn 9.866200296679459 4.269557757706839 6.298524037664084
Zn 10.06894675117417 6.400977006808196 7.664205036780187
Zn 10.928309268813411 8.708089690622534 4.906118316140874
Zn 8.2629984949908 10.19638174952181 9.167801541988805
Zn 11.061760584943203 6.19836915314277 5.2195487085462
Zn 9.717263910373873 9.178234782476167 7.144884122437569
Zn 9.743714284605439 8.088337691012304 9.488893062521969
