46
Energy = -31.2454386 eV
Zn 6.425566946722065 1.948764095169906 6.289669673488654
Zn 4.524925034565089 6.585016028428082 6.157320492367197
Zn 3.910470718099212 4.968043406585166 9.642566560858027
Zn 8.62573741600657 4.6260924526667875 3.402110033690418
Zn 9.223497617124544 8.867390459914299 5.468591528812435
Zn 4.137228787008211 1.1503126180067773 7.175033481418978
Zn 4.739124652927248 8.82225244647773 2.5555309025244357
Zn 1.8747631792253667 5.089871299894106 4.489330373460884
Zn 6.960253042468823 2.5937607480418245 3.8678717060210133
Zn 4.870536189489931 9.337009726092017 5.10898347391256
Zn 4.534626039558864 4.174381685681107 5.016553897394344
Zn 6.954535707135812 5.006238230722469 5.471043181812361
Zn 8.145091678476113 6.675925361935505 9.803347368075828
Zn 8.759722020171 7.423938795482357 3.4274886859402525
Zn 9.342073088414292 8.89958855654705 10.177679812246117
Zn 5.892103236620898 6.694899639442411 3.8738435929411996
Zn 6.789881359855035 4.444298212705158 9.851131670760468
Zn 7.00662250458676 10.203186385360446 6.467966361721179
Zn 5.608924601816416 6.713750112134939 8.701369158460821
Zn 2.6682058526927412 4.901786976073267 7.158200773637907
Zn 6.333676747216113 4.380370484192033 2.0567216872484786
Zn 7.98892592292674 6.176909764471662 1.3805109111324838
Zn 7.055390307177791 8.893273798072979 8.843528168094858
Zn 9.194831541525227 9.971635249561023 7.818258175018497
Zn 8.727306733934151 3.1613918893442365 5.829213707630687
Zn 6.944663143257742 7.434910092491352 6.327065865963759
Zn 5.38695870490357 6.610434728707423 0.9220716175196679
Zn 5.385053505792993 2.332231648000908 9.243465970089192
Zn 9.374127938022436 7.3848210251842925 7.555159749878681
Zn 4.797147499973705 9.127216544250862 7.730711634202656
Zn 2.5587700014867876 2.9400030815655622 3.4305953909253315
Zn 3.8727670285604927 5.232513367484172 2.6796626566916433
Zn 9.491112252627481 5.977252789931176 5.425809744956724
Zn 1.470435487411937 6.929458720300652 6.186056660184354
Zn 2.9381912241213444 2.821509286493746 8.603144732792567
Zn 2.6563275621705893 9.06873937224662 6.399395749906848
Zn 8.528601478352353 5.01138909240451 7.770457423290219
Zn 7.1552224815596706 9.498937636794809 3.9092829980628516
Zn 2.2420588412810645 2.647220391862985 5.985742216160166
Zn 5.458948466651612 4.363564798684633 7.385704820981903
Zn 4.518404944029681 1.3985712265827623 4.630856760712802
Zn 3.0562037635639814 7.201702251450096 8.332111318310735
Zn 7.058339135784133 8.502972039271532 1.5362995507329884
Zn 7.763999486821595 2.664407900541165 8.25345884540166
Zn 3.1153084198282133 7.51606824402755 4.134928261183769
Zn 4.779573957303081 2.4722235879689842 2.370388902630207
