44
Energy = -31.54928916 eV
Zn 7.0897393765215515 5.732177844439819 1.5037441659919848
Zn 5.151329973139276 7.351575437191646 1.8333562494874474
Zn 4.803348547161132 4.601813185313596 2.0720848217827843
Zn 7.122529469708735 8.772933058200822 2.7986664017053866
Zn 9.084491005338682 7.196218218151224 2.579102151449136
Zn 2.9126449416357487 6.336843707053347 2.413591899672909
Zn 2.8098529258571454 3.954593841185749 3.7734196447544788
Zn 4.746971323788341 9.384878805520652 3.4221290951834407
Zn 8.965249148290217 4.657537967244085 2.820363967240632
Zn 6.93296897854008 3.1902518553233437 2.7953457996022406
Zn 8.943505926414607 8.467424044227386 4.857141589124701
Zn 4.655182614378815 2.2447553399481346 3.4001227038757684
Zn 8.196759729378144 3.9236287691428817 5.211635896526672
Zn 7.0316835215301845 6.375066618455886 4.277328482045593
Zn 1.6179748880989286 6.08097638886456 4.53058103089085
Zn 6.454467982041218 8.921977536330681 5.487867397546215
Zn 9.869357591134328 5.970349610755268 4.845768995738763
Zn 2.4519346461949985 8.46395247455776 4.022972286483129
Zn 6.44740277662676 1.9778332436341488 5.275827385743619
Zn 3.064626377015733 4.951729613343456 6.377148672258315
Zn 5.421925159324302 4.508666992230577 4.879113124855636
Zn 7.5899516196322026 6.498757382041707 6.78708803047859
Zn 6.94231792241526 5.876378226627609 10.244707248386447
Zn 4.9015712845223 7.578174861682866 10.015993755999014
Zn 4.5244915200091285 5.035721798102594 10.37889839171179
Zn 7.302531604791166 8.367533121726046 9.632153634617708
Zn 9.196869365089947 6.720568986666804 9.112128677408656
Zn 3.3557964434473644 8.81095969831682 8.430252262941735
Zn 2.929093173237919 6.194268741579228 8.769972323403355
Zn 5.768309085171151 9.545839975949317 7.984732145940501
Zn 8.679248998234911 4.18062810778675 9.423165837529307
Zn 6.2791948141456055 3.2969461713267285 9.689733460257768
Zn 10.230440985193825 7.432103016260898 6.9044638046971984
Zn 3.7701830065021937 3.5567656325386143 8.436002508170523
Zn 6.01306666118433 4.633373927173998 7.383702890564001
Zn 5.117174003442893 6.989611414109735 7.227753662048421
Zn 2.2921026174739785 7.495472856079709 6.537775769093869
Zn 8.30324286297817 9.056707630198112 7.4164592106306415
Zn 9.761856471470125 4.790576591599587 7.21084889732653
Zn 3.926321054776918 9.50288385465452 5.9681824041018094
Zn 7.9443904722092 2.7025006249331773 7.4714781663135215
Zn 3.8430643207260355 2.4869599980942225 5.8687328922076185
Zn 5.53246428214818 1.8192713533147626 7.702979620555675
Zn 4.534689637344243 6.875130586387488 4.737801751920941
