46
Energy = -32.05609012 eV
Zn 10.553695527727653 9.526416095174309 5.50183133058907
Zn 10.330551211565655 9.556493739746797 8.06176749375056
Zn 10.513997700620681 7.258965981148314 6.9568905455654875
Zn 10.05006102436444 7.211696195147074 4.344906569094594
Zn 9.54397356702433 11.732685630544124 4.527797535770557
Zn 8.70114654462318 9.507460862459165 3.5268814679568212
Zn 7.929226148801646 7.289663922967879 2.709285246629345
Zn 9.035952609282104 4.9306736723462326 3.4784676240779486
Zn 10.011713177227817 5.061089247662402 5.824249554935706
Zn 7.077822212831521 5.01405526103634 1.9179525439746306
Zn 10.138639573697205 5.20511102342069 8.52310370687154
Zn 8.049418747552487 8.630353976641118 5.95651120787731
Zn 10.004867908739003 7.582230568345364 9.61631004539802
Zn 8.508489433466407 11.016449998401088 7.005451804347554
Zn 7.023224891922406 10.998870189474244 4.972218190013975
Zn 7.300325163283096 6.230449249467621 5.244195239983392
Zn 7.098439112536171 2.16810737510374 7.767177664264554
Zn 6.049846225642149 8.924519106413927 3.6302377718653527
Zn 9.507100423442905 2.996608582276637 7.199149015690153
Zn 7.797334642774024 7.239642767804286 7.993822924694194
Zn 8.710862872555202 3.277857409273103 9.526398872454653
Zn 5.316386219575501 6.5041363756710275 2.992947231772434
Zn 7.922664229657892 3.371157538924432 5.246035678925224
Zn 5.915956759345615 4.004923758136222 3.83300930803733
Zn 7.225085466957603 4.8522771596331 7.43748614904059
Zn 8.439531096394363 5.664120719076707 10.41668303533109
Zn 4.600678170600359 10.529974172959383 5.303287057320119
Zn 8.035910392956193 9.756768496242373 9.164651707307895
Zn 5.578335981126437 7.942239530606985 6.334751934212673
Zn 5.3119439819996686 3.0995504045403446 6.106961202888722
Zn 6.436094470668373 3.9549803562786447 10.260075768661668
Zn 4.61101764371789 5.58185529428165 5.3528294907041305
Zn 5.950694476839949 10.371933349727518 7.595977269464462
Zn 3.658792991309598 7.950304207869768 4.236523240502471
Zn 7.87678646841676 8.068403782822685 11.026129398217957
Zn 5.366964455095887 6.301685808440021 8.327342517132221
Zn 2.6881774735491315 9.299570099386008 6.213364860339277
Zn 4.767224847931528 3.061970787500853 8.55791710549577
Zn 3.1319042770222167 4.379667444320713 7.200011031648032
Zn 6.089342579945968 6.310363805895606 11.370558515926453
Zn 3.8778925947747136 8.667416290775538 8.312541541386071
Zn 5.750070008683809 9.150258589637774 10.030545277420893
Zn 2.5483720448696823 6.80379667353093 6.329728935779148
Zn 4.0564341876089935 4.863194176936949 10.2711783934871
Zn 3.9620770334116724 7.448387124498862 10.61695940426785
Zn 2.557616949506419 6.314306719097535 8.790541110571684
