44
Energy = -30.8402006 eV
Zn 8.79602019381532 7.2357703683870636 8.154313725648471
Zn 7.360620663067084 3.2974915876083437 7.987467564582948
Zn 6.730517323216382 9.758613917617891 2.2759872457185475
Zn 7.326433311925789 5.731367885466265 6.5181860214451595
Zn 3.3507874442064085 2.8989196621645563 5.61004901992965
Zn 5.296636755788205 7.476656717784371 6.976953211188087
Zn 5.286937000196763 4.794834629084439 1.958678208636334
Zn 6.580235002432719 7.975610443111485 9.386785592625316
Zn 8.500186250181407 7.977757974060597 2.8529575544690333
Zn 4.678850083564755 5.399792229859025 5.452472061323851
Zn 3.9373940867632204 8.188883079716495 9.534652262778827
Zn 10.368804902795885 5.876310210448069 6.342116770560934
Zn 7.5064439769030455 5.520952162397692 9.539941895839824
Zn 3.1596437741311707 4.0668808217972625 3.3171071563893273
Zn 9.22351659692252 3.528887691572518 3.100881446111411
Zn 5.983204847241995 2.948083024838635 5.8870951903765425
Zn 5.112006124496776 2.458127032158421 3.4506549987162667
Zn 9.331995135241682 5.84757018306156 4.039326566531211
Zn 6.061939712488985 3.426084018390066 10.222380705718429
Zn 3.5849482664420966 3.571842595085992 10.146184543337148
Zn 4.59756432139324 9.0589939996604 3.327942717269308
Zn 4.551779152568663 2.446458276824282 8.042349059939228
Zn 7.487830142395889 9.891723982862098 4.63706840947553
Zn 6.343222397461797 7.349243239711088 4.622615906943811
Zn 3.8970600484303715 6.533946058604768 3.1579558399721046
Zn 5.950074162354067 7.321413610421564 1.7105562524885314
Zn 7.9387555000436185 5.5712190455074415 1.7498822838428387
Zn 9.555200027926409 4.56444944715309 8.249934645735891
Zn 5.237903249820448 5.153522601164057 7.952167852276404
Zn 7.3567408059619055 9.269953793955978 7.196312877326429
Zn 5.209800328104111 6.0097494006688645 10.584324958559483
Zn 3.0948293416555375 9.430616669619896 7.342394980907464
Zn 7.58886403770132 1.8415969020341203 4.070673812183633
Zn 2.8210423956915305 5.905105234657775 9.66377731895994
Zn 3.1716991099939076 7.96442647204506 5.1683519120693955
Zn 2.544389295846874 6.884475417083518 7.368100080382402
Zn 5.279986421412768 10.151594776093747 8.402002044284826
Zn 6.774929348131432 4.805408697761371 4.16008751317996
Zn 7.094148891093754 2.9695791717338627 1.7662694176243174
Zn 8.83368170653115 7.8432223965653645 5.589196945149319
Zn 8.830185070964191 3.576255245417311 5.7456854474627646
Zn 5.052072672438372 10.01400249150662 5.773632815985742
Zn 2.0966050424454945 5.29246822965965 5.352232114789144
Zn 2.5895179956395533 4.245141522504281 7.687295969091306
