47
Energy = -32.38249076 eV
Zn 7.442483238438962 8.333776796068294 1.1314778231841607
Zn 4.939052139616411 7.914256874017115 1.7699007829080222
Zn 4.10715853287767 5.312828337771379 2.3069563788910563
Zn 6.734254976410646 5.986654297822694 1.9099413794781142
Zn 2.5729119475090134 7.465648372604211 2.846986849143253
Zn 8.979745158748324 9.887040952349167 2.386163708873322
Zn 6.076238319791424 3.7207906226840257 2.8212360488755954
Zn 6.29853659417413 10.24065916214357 2.5811314690983447
Zn 9.213825318994308 7.119844394468309 2.5079780619994025
Zn 8.215254305572726 4.9102045356958675 3.742354328648555
Zn 3.626017521579998 3.3109667622516636 3.9881443588183485
Zn 5.429338507629997 1.5412971000735272 4.096754282025232
Zn 5.509077854161428 10.050212240777169 5.200549371264007
Zn 1.9828162471400221 5.3730246988951675 3.9792837392049716
Zn 7.125554047690387 8.045440493257205 3.9875332141835127
Zn 7.678815936283035 2.4894314961442996 4.919448568264402
Zn 5.0747725904193715 6.672961006357564 4.3448023343191
Zn 7.153248808149998 6.508379759160918 5.929801660885104
Zn 3.835670396791968 9.550548578834169 3.3900522352154434
Zn 7.9981229170822035 10.939013061054546 4.4334286676903005
Zn 10.161072446000155 6.302887774687892 4.780081047789166
Zn 9.67343623198203 8.834541871498079 4.660906760073693
Zn 3.40197752243544 1.2888463935155616 5.730298568351125
Zn 5.746343478590973 4.409859093438559 5.368080481557547
Zn 1.8946354388165731 3.4764915604104516 5.930514290586566
Zn 3.043794887556541 8.121508216175641 5.380566337443928
Zn 5.977886409550941 0.9747000838833021 6.496251448817005
Zn 7.686347869415168 9.429978266508236 6.511855144938376
Zn 9.11801154192739 4.439699352160582 6.17374801377747
Zn 3.3887394964149 5.635057798445666 6.172371895709614
Zn 4.486731413384819 3.288106518000136 7.191727174918693
Zn 1.8776928102941814 1.8019463334356876 7.907393924439833
Zn 5.577921900582696 5.581401369894263 7.719518562852143
Zn 5.117809976273708 8.173495169944271 6.98763583679512
Zn 9.41755788983424 7.4626720083893225 6.891013805493803
Zn 3.864616201862255 0.31354755495200937 8.086373651035897
Zn 7.253273024653202 3.173725245792293 7.479300814021585
Zn 2.164542715072393 4.43234024041238 8.37693184258107
Zn 2.994303622920936 6.934249347195097 8.366731261913094
Zn 5.964705758588825 1.4082543743463969 8.994448242025763
Zn 7.296237077970146 7.924086156700973 8.52233871097049
Zn 8.263154647254721 5.457488632275842 8.388162156740645
Zn 4.1087092864507415 5.247793385544844 10.0134135691602
Zn 3.648037426389425 2.5823994500091705 9.664552979697792
Zn 6.2401924330986756 3.739441272689843 9.894806917012462
Zn 4.911048352448803 7.905628638308034 9.66471869885686
Zn 6.627305237837757 6.185854805623559 10.27131305614001
