47
Energy = -32.07273867 eV
Zn 10.47872346094001 4.896831838821749 4.983421743554146
Zn 9.755016946140186 6.297893673488962 2.8022902543314143
Zn 5.952784182873779 9.973459858134262 3.911923662736696
Zn 7.923549536829004 8.045495542654155 2.415632418349366
Zn 8.203092544292351 10.485015606210071 2.8008377698220213
Zn 9.269362419701924 3.6979815096928337 3.099943024037056
Zn 7.707574207748013 3.4268925902866667 5.364242213962443
Zn 6.8185723428937015 3.1515534048456177 2.79749577763071
Zn 10.310641071869629 7.469639289410561 4.990025669979117
Zn 4.970518573603039 4.893154385774411 2.7935735509613657
Zn 5.495947432170115 7.486480915894009 3.507134016386026
Zn 9.900224709252138 10.00807170327822 4.622319638760901
Zn 7.773033220218206 11.22523743364336 5.240437178080329
Zn 8.152666617983916 5.978983338812981 6.353871558532464
Zn 5.114636770921109 2.46837912013717 4.539645296268754
Zn 8.813310986186123 8.029128255356163 8.659953033510522
Zn 5.71679804432297 2.431821776777396 7.056934841145535
Zn 10.383095686134332 9.128466873781514 6.980447022675129
Zn 3.270657038447654 6.481836214069006 4.299340416678965
Zn 5.680683500162027 10.253503864847508 6.551938002107801
Zn 3.922780874980848 8.895218770572205 5.114346381926312
Zn 7.800744716422614 8.277466423668702 5.230506754266724
Zn 7.326782358698415 5.726049224778128 3.653887425740594
Zn 1.9327982271344077 7.815157747726903 6.19449834495955
Zn 8.135461432765354 10.239605094364743 7.527441095997353
Zn 1.528333634856806 5.120669378411911 5.68070309610624
Zn 10.49372680520834 4.051112087072594 7.3110433929264005
Zn 10.83679791686059 6.60178045072311 7.375116258888537
Zn 3.0014018179844286 3.9089397691803502 3.999291245350355
Zn 5.8411903116848345 7.391340224981893 6.476598002045153
Zn 7.0911365682620975 6.647012953411463 10.002859036218517
Zn 3.7468811796688737 5.953301511640359 7.1051408874265825
Zn 0.2019802284831094 6.473260345373079 7.42633349002299
Zn 3.774100080407411 8.798076818652426 7.788578722205791
Zn 6.260839429698052 8.857052561383206 8.745213307047981
Zn 3.2528441319882195 3.167185755933145 6.4559666751887255
Zn 6.114109196356844 5.273870912803351 8.013703653526251
Zn 9.378313863718756 5.524996160332959 9.14736155439254
Zn 5.501230407707028 4.99134055671 5.48921074384466
Zn 8.054857443629961 3.4651015007157544 7.93361078970559
Zn 1.5945789273060977 4.5389752460972606 8.290664991283437
Zn 4.510183983847986 7.058319494385036 9.663553714970476
Zn 2.0812535684145197 7.0900605052768055 9.016189368160083
Zn 3.9070082634895122 3.7784461382726664 8.89830241036868
Zn 5.293067205051378 4.8782574188165775 10.750738106997924
Zn 6.143161642838575 2.671548326139289 9.567503283258908
Zn 7.798094485576639 4.183315245967062 10.620021786071446
