43
Energy = -29.29641018 eV
Zn 3.9208866682607515 6.898357579732107 2.5254931167617793
Zn 7.06248780953363 2.6668494344119935 1.8329254543112365
Zn 9.386498963820715 2.2941360971474802 3.025823943049075
Zn 8.772818785745766 4.511054170346579 1.8362806056912158
Zn 4.5497134878898855 9.235953396669158 3.235304724269604
Zn 3.9317724790324533 4.679546912197001 3.815995055701082
Zn 6.121164853982432 5.13860507198372 2.3340109143338643
Zn 6.449373063305694 7.453037258700314 3.573432067607083
Zn 1.8370106563609025 6.197366013663308 3.994487377514421
Zn 7.170189877815368 1.0227860644983862 3.9593400828026653
Zn 6.468923025350328 9.75259297272737 4.8508318657349445
Zn 5.120066913915761 2.434739170458366 3.422451602507765
Zn 3.745572053679803 9.75525036713613 5.595222403816457
Zn 2.1744984066513737 8.65165639783376 3.8085203412762425
Zn 7.407617859408737 3.6606206670304355 4.621221097085025
Zn 4.355430154128612 7.086418922997931 5.269742715251598
Zn 8.789940545660304 5.975900036423067 3.823796946121952
Zn 10.236250861116057 3.814626119548812 4.88675791986593
Zn 9.315725536922313 1.3697972787451689 5.390851437069875
Zn 2.7624676899491023 4.989312670808329 6.123011139162332
Zn 8.49844617454133 8.097441090981041 5.22664710268264
Zn 6.872063967788681 1.2305547175150287 6.459031485186775
Zn 1.6933075712015193 7.589988600135631 6.154007999619075
Zn 9.463140163217375 5.762927341869513 6.3171032240710625
Zn 6.562068747037192 5.729889219342806 5.62353676887812
Zn 8.735427685096568 3.2073468041113866 7.110515767059897
Zn 5.0013622826388096 3.523394817057642 5.888191883523871
Zn 8.303806452601052 10.347330311678268 6.585810690556797
Zn 6.1833794144542304 7.993196909747755 6.843148447554555
Zn 4.852419565301211 6.001984396287716 7.559658016352711
Zn 5.626528066417322 10.580999207096367 7.201826538739533
Zn 3.6675195975876544 3.714657563852642 8.1918425391385
Zn 3.5187468838742553 8.422135696613726 7.779148501518963
Zn 6.226829049544146 3.0313746242570843 8.146412655575189
Zn 2.1723404958650607 6.225127835273632 8.355213844395275
Zn 8.67120538641942 7.774367652787727 7.800671760356928
Zn 7.584621813972278 5.325731224883355 8.115106291152443
Zn 6.711632905497736 7.278368249429723 9.486408014517584
Zn 5.588713533496018 4.86608973624506 9.86329324960326
Zn 7.607848334152197 9.851240625510513 8.907078821403342
Zn 5.200535058237581 9.358093360038229 9.46418245776154
Zn 4.135960445683342 7.105560018484504 10.103516502233706
Zn 3.0134710110152616 4.863377691911969 10.361930926354319
