41
Energy = -27.68303547 eV
Zn 6.911805210027753 7.174052298963124 9.111629108608684
Zn 6.20047710453461 2.010752185076144 6.155192428197369
Zn 9.523279114819996 7.052182641549371 8.75304244642652
Zn 6.4352762970436945 7.293267811111014 6.481453803493811
Zn 6.453380605923886 7.465245111012289 1.177319227534254
Zn 6.472241488658327 2.725411739109879 3.628437493173563
Zn 3.8831185247997904 3.3943840421753544 9.561593782872718
Zn 5.382753333804614 5.627354559765079 10.52206771101999
Zn 3.8967845755339963 2.9127255010312534 6.983500826475425
Zn 8.669820337157303 4.129145086772843 3.2202630254698636
Zn 6.523128195001052 3.361911232957301 10.354169917755144
Zn 7.822198953605986 3.0281048667059935 8.039533217395014
Zn 5.931048666718834 9.891559029139378 6.059342129783559
Zn 4.248654579381467 8.557830816366417 2.201871856549106
Zn 3.037854292221508 6.691875001757822 3.686000439656522
Zn 5.802648851902035 6.9401409730616335 3.99335395767307
Zn 9.805481362243272 7.681941020539252 6.362054907001511
Zn 8.341733586444706 8.536118424668597 2.6438384241274644
Zn 2.8669189082420785 4.585972000139306 5.219297271352215
Zn 3.897955818436979 6.764445162357898 6.238730076297927
Zn 8.309705613659931 4.9828665777654635 9.643224188908926
Zn 5.740350678336521 9.446180780398493 8.57312839031676
Zn 5.5389261163229495 4.997866932918337 7.796196075859003
Zn 3.6167250179741446 9.280316563718818 7.177125078919702
Zn 8.345475174227182 3.193731326932546 5.477199138271426
Zn 8.67607284878707 6.211020373043774 1.8222056329289673
Zn 8.122999480578365 5.385915361198673 6.965849135699052
Zn 5.861876829049052 4.75414265851617 5.274575579289086
Zn 8.19999821615891 9.179354476611461 5.05544974297332
Zn 8.327765302743023 6.454303225612681 4.5868382861817
Zn 6.168207091877976 9.682537980550626 3.471159969737291
Zn 4.238649356822378 6.203757779120656 1.358170374180197
Zn 5.5800184768580205 1.7727862706148103 8.629593693966926
Zn 4.24016870580532 7.350458234440728 8.834712785999113
Zn 2.8144780688456197 5.626424654625976 10.122691961978422
Zn 2.502960796136923 4.925932169999962 7.762002741889863
Zn 4.142102791050303 2.2899102049757167 4.506918870373659
Zn 4.0237176065197096 4.2385933329673415 2.9543300789501656
Zn 6.381382399531621 4.97241918255458 2.2426235011210025
Zn 8.146560301152038 9.144506675514302 7.686287012551457
Zn 3.8712299038361855 9.038486316434026 4.622956291814837
