44
Energy = -29.57195532 eV
Zn 11.180907567173687 5.376437612520327 7.786999284581155
Zn 10.841286055616445 7.925666760649456 7.557140022758406
Zn 11.537174204104439 6.43462789131277 5.590958397767702
Zn 9.072874292119868 6.431775244322343 8.815181695737307
Zn 10.010442841713669 4.011751268165897 5.935794410455947
Zn 9.69456641089746 8.14014225998031 5.01528660058751
Zn 9.360222105117913 3.673510630587224 8.527639678167509
Zn 8.497168873393953 8.893938389807115 7.567116170947397
Zn 8.261564400036077 6.259497035873949 6.2363717937363194
Zn 9.883989989270228 5.7160333523627695 3.8276912756259893
Zn 7.3433566440638325 4.757380701671166 9.812934020841851
Zn 8.25836920707372 2.1128836841444634 6.368357567680156
Zn 8.387955890993375 3.4419572608465807 4.089102642794459
Zn 7.654085111089534 9.605573431871413 5.1333721453257315
Zn 6.6563528749640675 7.103819046077527 8.482709443801717
Zn 5.489991767825758 3.040884536294881 9.36761074027506
Zn 7.5827373932557975 7.200100307694713 3.660938088249638
Zn 6.217767732734652 5.064845665634275 4.736781864512599
Zn 7.0865351280379905 4.241193848519501 7.187617234226872
Zn 4.877632541871423 5.525917840908371 9.752106763818045
Zn 5.947282356921853 7.427758278479501 5.920777302247697
Zn 8.178290844624387 5.030931101661142 2.1109871691369047
Zn 4.856776965043267 5.305939505604989 7.082608365264226
Zn 5.006640735101464 7.678587252072975 3.438404977562941
Zn 5.476140342482844 2.2297603313753998 6.952274155517665
Zn 6.106775262423173 9.737151056432845 7.322621748593899
Zn 5.25789026415038 10.039770242016301 4.7930273567075545
Zn 5.910801885618283 5.964635599297978 1.8465902927442337
Zn 3.3105887901692888 3.2785355536610936 8.045277039851351
Zn 3.89736672478927 3.6111191966667873 5.277882286166512
Zn 6.126493434971445 3.3954452121635086 2.211094312191689
Zn 4.1834230360980555 7.6850352622372196 8.290634386953755
Zn 6.047593415297185 2.311953753014713 4.484744550726839
Zn 3.4526944992196267 9.370672237344177 6.582258702349808
Zn 3.059561800425272 9.25654043233723 3.9240297641019457
Zn 3.9374844040295356 4.868099785072215 2.9704519830464746
Zn 3.4874300904221585 6.651059105144345 5.4845385957819515
Zn 1.6146436624384222 4.634714424754138 6.708054110839378
Zn 2.464366857273047 5.60265449896321 8.908669380870888
Zn 1.744381560722928 4.648708901216352 4.169676871128869
Zn 1.6980078880797367 7.441952908242918 7.356600693747302
Zn 1.0076250930724293 8.552835662519236 5.15856674628963
Zn 2.194508485058448 6.991294499127007 3.19455412556521
Zn 0.050924260856312464 6.233193241728413 5.253016943434075
