47
Energy = -32.51681126 eV
Zn 10.467446917065217 8.215640393636294 4.607557700176957
Zn 10.012784142675349 5.894598281977835 3.490035789741527
Zn 10.514855246416749 8.274745997704589 7.189248808125837
Zn 8.963890891887424 8.027926824413065 2.2734128066335484
Zn 10.54155749015445 5.939043030237773 6.150421187505797
Zn 10.525243808081505 3.7568107546539378 4.783488023488703
Zn 8.535662027616619 9.526633818789536 6.146086067803331
Zn 9.035584447336683 10.131636605545847 3.6042436693438504
Zn 8.175370104219645 5.707478476654874 1.684397442260879
Zn 10.517601105416245 7.440251778870957 9.510075886137962
Zn 8.726070618188611 3.477067368156688 2.8101530586400263
Zn 10.149172595227238 4.990896402094743 8.97925218077575
Zn 8.217541397864496 8.566019534706076 8.662097218180733
Zn 9.310333351718569 3.574961563649574 7.083276598072299
Zn 8.168203255098312 6.3071499926411345 7.273785169279878
Zn 7.878741386963828 7.310946273211247 4.855589046779611
Zn 8.928515599954421 1.8525419736356297 4.9472643348077625
Zn 7.952948890279208 4.826407649492388 5.09889061870154
Zn 6.206490706327349 8.569157589970043 6.867657731367543
Zn 6.31726500807806 7.2268966581286165 2.8060778965602626
Zn 8.230730903292063 6.446001439878326 10.278860508028057
Zn 6.628567292405285 9.67571840006215 4.245259921781292
Zn 6.2638176754857655 4.601391062568491 3.1154742191036577
Zn 4.730664413132717 10.580642410738102 5.850499427457261
Zn 5.8774665740858225 9.180104126196632 9.686665145332086
Zn 6.656007229994609 2.154056402956469 4.077807850467193
Zn 5.853438946293734 5.958999623977168 5.940662818490633
Zn 5.926734721958954 6.470878838355219 8.548366743076995
Zn 6.042878613136181 7.333777838177872 11.492999527318025
Zn 6.8169369723634246 2.9754553646615602 6.673149594419357
Zn 4.50706669987609 8.225643928221231 4.472619091335072
Zn 7.327934540617767 4.258708215374298 8.889558020749805
Zn 6.490891429074423 4.872809341699525 11.335236761671862
Zn 4.116813848196708 5.724536602782209 3.828107275596504
Zn 3.928900722548003 9.723187540808029 8.178372448856772
Zn 4.79056104261508 3.499890605330223 5.098060744986614
Zn 3.8811829732671783 7.170334993882007 6.991139129903287
Zn 4.671693020850063 4.0127473490144725 7.782561312058408
Zn 3.8648650882901956 7.474149721287135 9.972780461927647
Zn 2.50741703329781 9.35969641051512 5.968828749214455
Zn 4.280554447838794 4.723142223026689 10.280082833345908
Zn 2.1304922847399443 7.011052885556461 4.759148822544125
Zn 2.86997918283364 4.855674420145124 6.053575373066188
Zn 1.869510248757694 8.063745341913611 8.456521509789953
Zn 2.5304670717920197 5.489408274004846 8.663647456777344
Zn 0.40358411031640634 7.9438719161810285 6.3795696877756045
Zn 0.5524186206866485 5.4993504480971085 7.022916121045314
