45
Energy = -29.99028049 eV
Zn 6.644011029601468 9.812574765593851 4.496070751589309
Zn 9.11448452955572 10.265006336665682 5.617384829507092
Zn 8.884870697187308 8.689986657640038 3.7008365734021362
Zn 4.87188614259379 11.036733399611087 6.219976923852383
Zn 7.09864236386233 10.282001822777609 7.124351098047349
Zn 4.1306644992651895 9.556443594348226 4.319526777363331
Zn 6.748846983318192 7.273140658706312 3.3951565522353637
Zn 4.434089958496334 7.870335967819959 2.535397373753324
Zn 10.548809993030735 8.045764728085917 5.695134995044112
Zn 9.122719264491217 6.234379443727696 4.501243644755562
Zn 4.862570106345086 10.222666211018554 8.617099846921302
Zn 7.295734048215867 7.615423483292959 6.098269959180433
Zn 6.871525621823531 5.01041998536884 4.868924195984468
Zn 9.119666818988675 8.693148216773547 7.741456234888746
Zn 5.136580143335999 7.942819154659997 7.4006086030251685
Zn 2.7814331010447386 9.642781133778945 6.6773252033651245
Zn 4.944346657490899 5.37161986922369 2.761179392471449
Zn 4.8178313863275015 6.733339833074935 5.221474347188993
Zn 2.2763493294409605 7.859579041115897 4.70042100615292
Zn 7.143567243744536 9.19143027543327 9.449641933984072
Zn 2.4930104896413035 6.2097073901325155 2.7035200872338057
Zn 12.13189746846191 6.1427525296566685 6.386681927753999
Zn 5.750762732708831 3.09112296344278 3.1508469692627057
Zn 11.167566881139587 4.692253222234787 4.594925065759355
Zn 10.700756125107183 6.500064777170822 8.444997664259828
Zn 9.531684375720923 7.948764321729616 10.20176426223985
Zn 2.5374893665267653 5.283049925458633 5.1105129729246
Zn 9.027515758696682 3.5063738186731594 5.152101277968904
Zn 2.4525866940449976 6.967265590529141 7.116698466678499
Zn 4.520565190826839 3.685474681311333 5.365012523062971
Zn 5.9769834030354545 5.495972410614924 7.369124927698475
Zn 7.231549802229414 6.649149389708499 9.324410643982835
Zn 8.581013887704202 5.583309677804682 7.193040558604185
Zn 2.8097899434749007 8.731373967543663 9.09906329759825
Zn 6.762139859494501 2.1894491738601483 5.354843965080208
Zn 5.012013717291629 8.076943871592707 10.308780345745472
Zn 10.748536076682889 4.0300504625223725 7.2081343110698
Zn 9.308971622717422 5.427518101200228 10.593325887485863
Zn 8.173217892566086 2.656648647310099 7.481195941764703
Zn 7.229614036695023 3.93673181965737 9.547574902082436
Zn 3.5150660022122766 6.262401475721098 9.355233290616527
Zn 3.5157088945926835 4.521481986541038 7.528111944736827
Zn 5.4143038960168735 5.261401715459328 10.675223006544579
Zn 5.628478625465599 2.9030390817783434 7.686898842527863
Zn 9.841768948205468 3.276433303845963 9.423284351651509
