48
Energy = -32.96238615 eV
Zn 10.888759409518212 4.466342209827099 2.889978560794813
Zn 11.53833458637382 5.646708543962768 4.994271553744032
Zn 10.178739080345132 7.058121251971005 2.9526903283076935
Zn 10.65413608079606 7.918121115125046 5.753241575487348
Zn 10.250922239408537 3.4931857214996302 5.53950674998509
Zn 8.608436056850456 5.017808612788932 2.041985023721214
Zn 9.868613235303895 3.6175307279551165 8.066133368708138
Zn 10.708990758445639 5.942565479538473 7.418788811825021
Zn 8.0439640605042 3.3081436367352914 4.020249497643394
Zn 8.812968574387135 5.799684330093233 4.755654815489994
Zn 9.46752696352453 10.048013317070048 6.362738022401281
Zn 9.773838304471788 8.218121007655107 8.335779570602458
Zn 8.920570765583312 9.167857654119945 3.8767467682028722
Zn 7.576476790064284 7.350136001715288 2.4952476792572567
Zn 9.070589510198 5.869619706726373 9.40010682995885
Zn 7.931486966021614 2.6507821004355936 6.533012118590961
Zn 5.686354604335953 3.3940059425983424 5.072753034647888
Zn 7.473221807690098 3.649918691336452 9.071782090044453
Zn 6.113183919599432 4.584304584308105 2.7408860286244807
Zn 7.946682447645681 5.34340606737772 7.012851968737509
Zn 7.868100600342229 7.888325485743682 5.96335458108999
Zn 7.775066039279177 10.022972208933936 8.21678906240034
Zn 6.988121751580944 10.487095082013283 5.691640277758778
Zn 6.267663787406146 6.025130479481171 5.034610581144578
Zn 5.5809007623131075 2.6605066870536414 7.520902542732566
Zn 6.146299791051546 8.935913642668561 3.790613995742332
Zn 5.0560219245981 6.881624114157905 2.6250125772360455
Zn 6.741471484097451 5.6419101258038 10.51009519639954
Zn 8.089744183579167 8.293843088352645 10.478043603777977
Zn 7.048052301134275 7.3915868367975985 8.310400486420246
Zn 5.1707570289434495 10.502178245720545 7.5866778724675745
Zn 3.860039291978194 5.296127369983011 4.218534406919917
Zn 5.898487508204805 9.775927695488779 9.914927284960125
Zn 5.432452849354767 5.443916511193909 7.461613467933311
Zn 4.488746138823978 10.40127615109789 5.083741820966937
Zn 3.5036456589632117 3.9892158592891684 6.371224069317153
Zn 5.285619046269788 7.96242598948828 6.366852802237509
Zn 3.4896893975102397 8.069098542928362 4.248614523364004
Zn 4.009807430096831 5.880875358029541 10.94621105487506
Zn 4.929541272033941 3.877626305098196 9.663676992340333
Zn 5.687549875388632 7.7626355823562285 11.430933646186103
Zn 3.230157563296458 9.783203120069103 9.167147930184822
Zn 2.772226772121292 9.23977068603721 6.501074813978648
Zn 4.592564419858923 7.477746742713454 8.830761006551226
Zn 2.775505017288907 6.509907978461041 6.277455526308365
Zn 2.888804492720016 5.170322024750049 8.640199035704152
Zn 2.65080189654334 8.07246791798624 11.014369688647587
Zn 1.940333977911835 7.693961889221073 8.482085179339697
