40
Energy = -26.64848101 eV
Zn 7.933030040248104 5.522772793758747 1.517857742231424
Zn 5.849441871888699 3.989607278989011 1.258108112962117
Zn 5.750629863613281 6.463041773644336 2.344545623959252
Zn 8.063091040210907 3.072430391796065 2.354055965653256
Zn 8.141302543189893 7.636935931758446 3.0510010005369623
Zn 5.5098664874395045 8.68879479591238 3.532125593324007
Zn 5.881439072760049 1.650641437667114 2.4582553158790965
Zn 8.895142891239496 5.198600964062751 3.84571013750076
Zn 3.853052173342434 3.26380170242743 2.64139043435274
Zn 6.090601741164198 4.355353995701103 4.144552013161752
Zn 3.984282590063705 6.541690043893873 4.16690840503794
Zn 3.0529991234516896 8.936278969231788 5.173828893317795
Zn 7.578631627832202 9.10946453815973 5.251488497197766
Zn 5.2522612826411885 10.300174149636469 5.39562040952939
Zn 7.449001991110093 1.9621323234819879 4.538758417903351
Zn 9.404357227598881 7.078474890296981 5.479684972448919
Zn 2.4348844722396277 6.453232934969704 6.1960924630493865
Zn 3.214625444543218 4.155217760503319 5.011515785156373
Zn 6.691448302646161 6.593578686707535 5.0616570273290975
Zn 4.771893646459446 1.9288262444514503 4.7722233210208564
Zn 3.7920813725786364 2.2336952665311505 7.126880540229537
Zn 2.43724477895376 4.265510142137735 7.561158362493581
Zn 4.950182861281421 7.67713828122243 6.613568369478837
Zn 8.875011667391572 8.602186044663954 7.447693454386185
Zn 5.148738571917495 5.128514300506749 6.554669455498119
Zn 6.332250988447587 2.755646716027941 6.8361306139321405
Zn 6.46932534567659 9.636723085790038 7.658387385170073
Zn 8.167585185261338 4.497210697903661 6.209833819733401
Zn 7.068743003239724 6.6662098111050625 7.601582610897915
Zn 3.912800711395771 10.3637096196256 7.5565593621945935
Zn 2.2393793561585764 8.53113381677726 7.68972379698314
Zn 3.5169130852048736 6.344669299312299 8.641745754034776
Zn 4.766244427442259 3.90632987881145 8.88859407263031
Zn 9.649280742121547 5.876686034365231 7.92325421982641
Zn 9.759877911946077 7.771040997646167 9.706569749502345
Zn 4.669091560677823 8.56643050294303 9.280305110099297
Zn 7.405812657467336 4.183066324702051 8.702447033809284
Zn 5.7539671632417155 6.122406348277435 9.904515821363725
Zn 8.301009532921025 5.850304828853276 10.36003206224612
Zn 7.2180863403415545 8.35594709309536 9.77657897128556
