42
Energy = -29.00934448 eV
Zn 6.157848588674438 7.869520528070845 2.3763174942194647
Zn 4.95294577964921 5.645972488506997 3.197678614088291
Zn 4.554938544490875 8.00876425625805 4.316991562698704
Zn 7.195227399750858 5.675947134732271 1.7016300133508695
Zn 7.336336039916576 9.332575860866546 4.197479154299283
Zn 4.0577651334988385 3.626250056094923 4.405326295343562
Zn 3.067800310297101 5.934784683780875 5.070484795072428
Zn 2.9947216683366555 8.467965396101924 6.279534675844079
Zn 8.705142786487425 7.362466157464715 2.82289685778525
Zn 7.529145105034366 4.424847343663272 3.819537407355039
Zn 7.6682651169816305 11.151066868909112 6.004305814763048
Zn 6.811736273849959 6.665306143287108 5.000276822149252
Zn 2.129498812166933 6.371029725324822 7.486770007489895
Zn 2.8164851484741553 3.9712255227627797 6.7794052172833785
Zn 9.92335747202856 8.593346306437533 4.571731889112101
Zn 4.325301594142858 1.8533036468527824 6.219953106816819
Zn 5.280088654046635 7.233479814519535 6.994250052983481
Zn 7.717072642629329 8.424423311741617 6.74956470627075
Zn 5.637514657596502 4.68988550058771 6.508034317438444
Zn 5.303682428619862 9.918454877435945 5.882839608507587
Zn 6.368031861934726 2.4142410228770936 4.911748727823764
Zn 3.723303590171393 10.09456630450999 8.069191737713723
Zn 3.596257889514711 7.7643710856395405 9.09572478836006
Zn 10.034930049527093 10.20206800764458 6.505153886694809
Zn 5.910293491474421 9.099696967271754 9.135912479358597
Zn 3.9483732759948915 5.225745469830898 8.890622642114378
Zn 9.345986561471804 5.914597109387056 5.033873414761796
Zn 8.20876871160917 10.46587688605943 8.703887669272907
Zn 4.328914294965567 2.81885349779674 8.528310997368912
Zn 10.665684612226329 7.529103968015482 6.74939206495842
Zn 7.676580651557153 5.96168146130358 7.463585617985699
Zn 5.975841815082208 11.433056011412063 7.941991706118022
Zn 8.40081254590113 3.6047435266946324 6.112102162445576
Zn 10.424762098741168 9.198443707406424 8.809193848399909
Zn 8.220891609330469 7.932684820387106 9.420053740961201
Zn 5.990752041144054 6.5723414608780955 9.700315645576145
Zn 6.341357771227217 3.9928895123044477 9.471575969995415
Zn 10.19393841676485 4.938137662523533 7.378772491624404
Zn 6.640216197494579 2.1416132332640165 7.551197057867617
Zn 10.53005384361742 6.64163784715647 9.193815059888989
Zn 8.457367528673991 5.4052632443015955 10.036635576979839
Zn 8.734368461952338 3.27661075269392 8.711571425626532
