44
Energy = -30.19109275 eV
Zn 5.664689324456581 1.5226684604429939 7.516936146142979
Zn 3.321170134416682 2.608399265471634 7.861156463142097
Zn 4.501137123118459 3.0912778074530505 5.677983211456391
Zn 7.286551901378055 2.461561637468668 5.660800335985876
Zn 2.0716131061323493 4.130071904257077 6.269171496397512
Zn 7.781937043611758 2.7118306879356378 8.419028428817601
Zn 2.7298176998679016 4.664758542739696 9.17756945265403
Zn 5.151210570454575 3.4451329792566656 9.389522323593146
Zn 3.4484514837775753 5.053881020181629 4.197846995227401
Zn 6.064655944451259 4.162890432290631 3.986261712649591
Zn 0.8227819532140039 5.794863252765757 7.747510704996583
Zn 9.615677258790983 3.2773804381671727 6.868756627121125
Zn 8.873692928085317 3.7469529315248864 4.149023222678965
Zn 7.174177530745842 4.790028769933901 9.879849720164879
Zn 4.827164199708639 6.012486359905658 10.114227196113356
Zn 6.3991352026595 4.554399534999048 7.03877197252727
Zn 4.165878875690737 5.624414636095463 7.095070487892569
Zn 4.831904576687135 6.019432463316224 2.353735672425984
Zn 1.9790050174262719 6.746225198078822 5.676926413763911
Zn 7.408878980767672 6.155621973766589 3.1136781503672695
Zn 2.728380281642505 7.1972328982799185 8.721434813218831
Zn 11.004443953925808 4.805556692237236 5.490982826106373
Zn 6.393831600201822 7.025400852803339 7.648332652015163
Zn 8.125617783250302 5.775714389291882 5.6800069355808205
Zn 3.94060344639608 8.27759502687271 6.628482615234494
Zn 7.233308728694708 7.268541106273008 10.2084207798413
Zn 5.692738171970366 6.6181135238714095 5.18813074056878
Zn 8.886222482267334 5.541011632184509 8.144241808463315
Zn 5.94959141557693 8.253598226724382 2.461970632926163
Zn 3.553925237578738 7.740388870237837 3.8807231847357904
Zn 8.770584682119267 8.177521141744744 8.284813573196272
Zn 4.794369050199469 8.546026252576002 9.335048792984836
Zn 7.740795786447683 8.282394300435607 5.65072345380869
Zn 8.867853249882844 8.007314408701275 2.2961520242590656
Zn 6.987594813745827 9.697976320527381 9.7349870647438
Zn 10.053429067138202 6.095349844356057 3.478246000042407
Zn 6.035133159293079 9.6924445117558 7.271123479409769
Zn 10.369810507036208 7.239733665916593 6.1743447178887845
Zn 5.4296225069424775 9.363549806638757 4.754568916362695
Zn 10.31050379925837 9.791137757082103 6.740895300765143
Zn 7.6373640588942315 10.003637218262288 3.297443336174693
Zn 8.37177589216301 10.867515285984371 7.949079958798061
Zn 8.14520255796995 11.0746498096043 5.473112944393163
Zn 9.927678048161615 9.068452837528216 4.306835063070185
