41
Energy = -27.44570108 eV
Zn 8.673904362127367 2.744609187543415 6.602090593964242
Zn 10.475622477024414 4.529345171743513 6.00444702549447
Zn 7.487413417629564 1.394474271396965 4.746928621235556
Zn 7.154917273825157 3.4916496394021896 8.583415993474953
Zn 9.279257480318773 3.277613573548382 4.035324495794055
Zn 8.57928588078823 5.324873072635639 9.748735761657878
Zn 5.905993348350009 2.4065204419020265 6.61614505318214
Zn 9.95400980592621 7.265503298697932 8.792955342219004
Zn 6.933325352261777 2.6496324792052124 2.5409034975511773
Zn 7.994853826538313 5.468814562961529 6.968567686646376
Zn 10.072933034130408 7.076917262950475 6.304970698632449
Zn 5.0439930862977524 2.0840515182537223 4.162500048725311
Zn 4.516189489868328 3.5835933847646757 8.532240243171062
Zn 9.235677379367004 6.026264432331107 4.125896042192999
Zn 6.1646595664972175 5.885364019197291 8.962520781380682
Zn 8.097609396388549 4.846799633371878 2.177130073002146
Zn 6.889355233345955 4.440276088901806 4.759936786181213
Zn 7.839904126447191 7.875397988236552 10.055679539894438
Zn 5.284064146674419 5.1982554871813615 6.583555531343609
Zn 3.441198068408613 3.110887356859179 5.9037470093755955
Zn 8.031089143471263 7.507536772272165 2.2909245023049487
Zn 3.6911109379462026 6.241509523067638 9.114601227290644
Zn 5.906600000981725 6.117915790039594 2.2858770281901637
Zn 6.67310443417992 6.920856127806397 5.076304424846285
Zn 5.32376772916798 7.975565367119987 10.413612121655449
Zn 2.301891607784736 4.513523512204282 7.758115615886694
Zn 7.884500137836537 8.142956486940996 7.260994356705615
Zn 4.381184002543977 4.5191481971223055 3.7107225829117163
Zn 8.631920846472246 8.57918583737089 4.614292588651275
Zn 3.5907027387698336 9.021476488102513 8.916070230044623
Zn 4.953112531144424 7.724307447432963 6.834270304916419
Zn 6.414692046215204 9.694055073288286 8.791161253868863
Zn 2.0681916444893433 7.270133972533373 7.4976253200087495
Zn 4.299046316207059 7.196763945682025 3.824119742655535
Zn 6.256889226402059 9.026502335162995 3.2107584175726367
Zn 2.886023596947356 5.641904645566793 5.527930319755421
Zn 6.7001282650292655 9.8272668379395 5.7072487804976495
Zn 2.4134377494619517 9.840179238488506 6.831476749407769
Zn 4.759135308788172 10.709515149790327 7.159626964593005
Zn 4.283886163321352 9.723967379818614 4.757926405733391
Zn 2.278392448499031 8.126832864703939 5.0986444877766575
