45
Energy = -30.13253069 eV
Zn 6.529241268049315 3.7776372417371546 3.6967964038655734
Zn 9.126986800439976 3.4084932616671977 7.344854241003745
Zn 5.290536713165429 1.5965174467865522 4.186800750960009
Zn 5.124259195122244 3.653870700146158 6.446496144671279
Zn 8.892425059042784 4.026838715514172 4.7742862186607775
Zn 10.847768725026455 5.115763861524168 5.983931177823045
Zn 6.848631176967843 2.8250885681363362 8.376627636355197
Zn 11.303723505808902 7.531078578425453 7.013510570828617
Zn 5.368455797064951 6.0826063079515515 4.141458695981889
Zn 11.692647690805911 7.19153646887654 4.420967033765601
Zn 7.08501993087974 5.2644047942396925 6.3352416890887335
Zn 8.870669147853702 6.990000868636361 5.653911520965173
Zn 2.5016319960884603 4.294893098460063 5.854397210401646
Zn 9.957894282193005 5.520320860630409 8.423958291386164
Zn 6.844781134769771 5.257380166250447 9.128748959700332
Zn 4.651226789829117 4.058637359621185 9.244554405264559
Zn 3.060100021042599 2.611954880859155 7.8594631554123415
Zn 4.1991183637419685 8.394450348283467 3.4078825242856303
Zn 10.214205059533631 8.01906026870734 9.233257646261007
Zn 4.634494870058543 6.095931208544829 6.933479218233894
Zn 7.244180720231367 2.2544651415107864 5.87490967042255
Zn 3.2134146440688003 1.6459772445981016 5.496732520641618
Zn 7.809779093089806 9.37431517860088 9.508247651813639
Zn 10.357676588305926 5.535164808815013 3.227872476426485
Zn 8.057598606172915 7.171955510415411 8.03539879960635
Zn 6.386359633162707 7.79397454724033 6.095627756440907
Zn 10.546896245832498 9.252108974950461 5.209879484298242
Zn 3.9160653059828245 3.7969603268045913 3.788221907624504
Zn 3.6807650568559844 9.20247038178788 10.171037703604249
Zn 2.8310225448284716 6.2631241925462255 4.149916142050985
Zn 3.8169016694284115 6.570256446780683 9.959981873724029
Zn 5.7354609630936135 7.78949527697143 8.78646661610826
Zn 9.35880218310098 9.633346994612268 7.405899567547951
Zn 9.399985402362455 8.111511231336564 3.1981693980906467
Zn 2.4480093737252995 5.123302136741749 8.375883767400211
Zn 7.798148050139525 6.031769531780578 3.3575851183773744
Zn 5.64944801881667 10.583340976756155 9.763970998341955
Zn 2.448906927689217 7.998187696601117 8.2490078911908
Zn 1.5152206526616978 6.592635088987491 6.335600940697142
Zn 6.800450542821459 8.503888387869619 3.308857624557083
Zn 3.4360348365768476 8.320866660717163 5.850304970343184
Zn 8.059377565772163 9.835987352797774 5.095241650008869
Zn 5.416296384672755 10.007231063059296 5.034359098462952
Zn 6.826268004015935 10.613089957401204 7.285639696240383
Zn 4.32635115618776 9.953448798951685 7.573349244195817
