49
Energy = -35.24314668 eV
Zn 1.0974388710961251 3.9069155788417516 5.5506551484591204
Zn 3.3233433710297153 2.740239070953108 4.513767586512619
Zn 1.914123940620051 4.621544380086055 3.336179795206015
Zn 2.853951940983026 3.1017100760599705 7.182262365826021
Zn 4.639416238076925 2.5031273083405705 8.858770706921145
Zn 1.2566943978367042 6.439159142051211 5.085692141650017
Zn 2.2648908903984837 5.561288826228099 7.31988654317118
Zn 5.096334079391336 2.2695575834558372 6.321421103175859
Zn 3.313846958752777 4.545641829174237 9.452956816774567
Zn 7.013094463492379 2.528072895708402 8.100249089572417
Zn 5.7867028950940425 2.661089258991597 3.8033113540474677
Zn 4.134714768366554 5.211009780738499 5.423836848027178
Zn 7.489995957139582 1.7358345523294771 5.647071426641314
Zn 4.354524606883837 4.471132532939855 2.6357893979259845
Zn 4.845254762795548 6.149386556159304 10.635166581873214
Zn 3.3030855312493057 6.742131997519049 3.1514425034381373
Zn 6.1737359079140255 4.042910478687622 10.176008305143796
Zn 5.536240237971267 5.231872900628942 7.753291980147536
Zn 4.816328301355928 7.467036147968464 6.619260089813314
Zn 9.200535418460808 3.0708540939822293 6.984244700267139
Zn 1.874266689909328 8.120025683228386 7.017103928448162
Zn 3.0913967311590334 7.160658799143405 9.107151195314575
Zn 6.848825427194267 4.729222712425906 2.5253430747166696
Zn 4.037588316855992 10.091020601684653 5.792054829125968
Zn 5.531626548732879 8.219211178503425 9.336818160293596
Zn 6.126588738795523 6.7334610375073805 4.479854120325642
Zn 4.503692730533744 8.976990912869129 3.3641059884204054
Zn 7.274300988844308 6.501520496067697 10.024462355748604
Zn 5.528990196942762 6.814972799131922 1.841732161959309
Zn 8.347890131830514 2.8256822535667636 3.5331782251365933
Zn 6.010232051359458 9.919274765301198 7.493528807524819
Zn 8.400623700219153 4.527698647738729 8.928036315840961
Zn 6.863831876593629 4.503405089626008 5.588791604621703
Zn 2.374156743192826 8.62173587273709 4.621981885099506
Zn 3.5777884711482786 9.556780198391964 8.273158048109991
Zn 7.4729115820986145 6.752835562568837 6.848384107464105
Zn 6.425562045576932 9.670901151949533 4.939611115755143
Zn 7.97368650864467 8.759873436538598 8.812333529517248
Zn 8.611343336030604 8.263489046534092 4.415140610885316
Zn 10.127006465194402 4.05471004531297 4.8881010833590715
Zn 9.638115224330278 6.8330667642257135 9.073902347085237
Zn 6.859379111879679 8.962677517822272 2.546845375376502
Zn 8.248490665808873 6.946659374419033 2.1572873731545195
Zn 8.371441929687027 9.853758287951505 6.524407378495472
Zn 10.086657767078652 5.448285444998292 6.997649293001504
Zn 9.464083815569198 4.902951524536019 2.6156504428053293
Zn 9.924544686244198 7.960850656264223 6.764633467045116
Zn 11.347187793557254 6.607541139505315 2.249745088069324
Zn 10.603638350063374 6.640326172588878 4.647845766688615
