47
Energy = -31.17095316 eV
Zn 6.219473546549051 5.184851326942887 1.2262060258182519
Zn 4.833902080188511 7.477555883128314 1.5149817470355054
Zn 7.254209012090447 7.880400448737051 2.292192091956034
Zn 3.4214886710658488 5.390771134973243 1.6068796060539265
Zn 4.470085242169888 3.2205242646163037 2.2247713628613237
Zn 3.139877000861777 9.668836444028397 2.7581865563666357
Zn 8.39217742998646 5.507763140842593 2.88686675772579
Zn 5.653367025200081 9.95805216007147 2.20289797659061
Zn 6.8779114193685755 3.3304754833122265 3.0915020517780367
Zn 2.51458743422888 7.223681264686253 3.1800298419215203
Zn 2.7715942995012353 8.941010737798907 5.370206662129111
Zn 2.5217110959830165 4.453311502028363 3.851891706040762
Zn 5.732998609397072 5.865164735373767 3.666838584876814
Zn 5.101230681410035 8.235560561062115 4.091788867840428
Zn 8.259483515458802 7.711014636599563 4.648697352567887
Zn 4.916048164576925 3.664193690133072 4.988326377905035
Zn 9.852364591808646 5.727301553573594 5.071958991720402
Zn 9.068116253292853 3.3447857029055914 4.493573750266113
Zn 4.5433852423449785 10.993347971581427 4.351356629029292
Zn 7.029251615113947 10.097511101786179 4.674929743089163
Zn 3.8040627186131246 6.3221258731715535 5.263498142535854
Zn 6.898703197764886 1.943786660159933 5.380880989380484
Zn 7.213558807671869 5.138419711390566 5.507766863059839
Zn 5.045696975424439 9.866174145625326 6.528207634396956
Zn 1.466802075938231 6.166185814570263 6.0910419186758835
Zn 9.08744637942888 2.067036509718622 6.73120268040992
Zn 6.08323085786083 7.426170343585049 6.207740270097277
Zn 2.6771301204878153 3.7720506106472813 6.441460786056026
Zn 9.497629764977876 4.53142941136047 7.346949373485748
Zn 4.84988082679596 5.263710375395254 7.19939704538784
Zn 9.503367148080487 7.128144803388114 7.181116165590218
Zn 7.957550606506208 9.293087299950114 6.983057113183777
Zn 3.6397150658390403 7.803298212544701 7.58993784482924
Zn 6.751424311423361 3.66336800771076 7.448402506519485
Zn 7.1268418647014276 6.100420405990334 7.981373137219768
Zn 7.0309052281249915 0.8929850620903939 7.800552853832952
Zn 4.675230330442473 2.0764172973403885 7.144241164774624
Zn 5.970626100662321 8.582901938901674 8.719036905784092
Zn 2.3895414105978556 5.614697125039719 8.391190810094868
Zn 8.559397522465819 8.269203981668873 9.275654516269865
Zn 4.601877983572188 6.40237693649061 9.646521750738101
Zn 8.933372816778954 5.503293236073073 9.779980156404765
Zn 4.029246387277655 3.727951794105792 9.241133518177852
Zn 5.85042071312284 1.9832252291600234 9.62908538973269
Zn 6.904017702039539 7.001396824503702 10.674001763071796
Zn 8.371438699101164 2.9478526659008364 9.271767635319645
Zn 6.373037337763072 4.501591863393997 10.21613426545776
