43
Energy = -29.78307978 eV
Zn 7.439190735987381 4.436783037029462 10.4795700005384
Zn 8.211543691320749 2.6813122644865977 8.735001280717443
Zn 8.961133749224771 5.143797319051357 8.430496892900653
Zn 8.735042449656948 6.8661788339391885 10.432024874803433
Zn 9.810243956806477 7.612402351559234 8.221068601538413
Zn 4.9581208054466535 4.504241066452616 10.750731402146572
Zn 8.41087246625934 3.520365277819248 6.143848877966883
Zn 7.440205060465071 8.922827547776652 9.5912771644741
Zn 8.97676494175597 9.939285231309567 7.7954959111566025
Zn 5.954005333439247 4.832517325543739 7.682893605266567
Zn 6.148057297297452 6.76689711947609 10.215085802531592
Zn 6.758257292691409 1.431688452259544 7.123184197591278
Zn 9.463786523098511 6.11141523195112 6.085765404116939
Zn 3.278098533174859 3.475810687275492 9.092821483904858
Zn 8.087195100477656 2.6844084371827783 3.6006439899548908
Zn 9.385642527810745 4.722106929899108 3.813173151546573
Zn 9.865106611911182 8.69586631077789 5.700403384421418
Zn 7.1680084166285845 7.098876270761125 7.5746781402242735
Zn 3.805424942026732 6.06572723669442 9.130771633109145
Zn 6.429813711013337 9.907736538906793 7.347102169635598
Zn 5.731324570899331 2.6005283343988372 9.244671183015374
Zn 4.316346224155456 2.571858596596174 6.927236872384828
Zn 5.992809546964749 2.380938716016489 4.961416009251392
Zn 8.203065335073424 10.720056044146103 5.468510327972825
Zn 6.9833669709302635 5.577329498689778 5.313776086167459
Zn 10.081446080610315 7.081461128570418 3.633190574564935
Zn 8.844563483386718 9.164137268008218 3.2914479877810034
Zn 4.783847982940777 8.450269385247823 8.73458491090811
Zn 7.177119724665806 8.171463768838509 5.231671687443907
Zn 6.207818717923103 4.274012571470308 3.036561671800489
Zn 3.955667928260036 9.611315984148836 6.5638845312402285
Zn 2.6153992635261925 4.762410806278805 7.006682986475684
Zn 5.019756995898775 7.033913596974181 6.2131872780481245
Zn 4.514476773049591 4.496580488357257 5.1487390714826615
Zn 5.664287415339726 10.60207017136698 4.926563485607878
Zn 7.313850644296134 11.146432868025625 3.04560480821525
Zn 7.668783264957827 6.472321068734782 2.7057219149604
Zn 5.013317149629911 6.5134760390879665 3.4346096873209646
Zn 2.6371929892683337 7.4385535690353155 7.387134649282407
Zn 1.9101930831517078 8.680560606861093 5.264670028599194
Zn 2.7568029570035373 6.341782134018356 4.873327999964441
Zn 6.328823858754652 8.727438650874918 2.7636139022232222
Zn 4.061650219610868 8.829270560891791 3.945579703533584
