48
Energy = -33.33361468 eV
Zn 4.397156291028269 2.8274126294392223 8.43418723043154
Zn 6.062111758700298 3.9931581461922523 10.059972008862212
Zn 3.7459772555585715 7.863868359261436 10.08107444338095
Zn 3.980493355754289 5.311277096997578 9.35306204293311
Zn 9.458935524462873 4.135303301076107 9.290138034047903
Zn 2.0661146246919286 6.805385547668909 8.406819728616817
Zn 6.015686383819522 6.622629582677994 10.658005743420285
Zn 5.363724199468559 1.3387879670953926 6.649607816031192
Zn 3.6333912872701606 2.807283418557053 5.591525640325198
Zn 2.540397941627985 4.3842538901657 7.359690627581644
Zn 5.736854834035622 9.340356142280543 9.304613092371893
Zn 7.163899271565666 3.013666572573259 7.74838772898928
Zn 5.337541161611239 4.792538658695813 6.765677699127353
Zn 3.385209858855715 9.157251857169744 7.904584291558113
Zn 8.096528174753344 4.849379563127981 11.420813695556701
Zn 5.42406748488377 7.123648715061559 7.849188961333135
Zn 1.143287637676836 8.505813886351241 6.668235418587673
Zn 7.410672148037022 5.702068195863018 8.475706219586778
Zn 9.100395744841668 3.260340659329264 4.514032819677814
Zn 9.7045470791321 6.550482645365108 10.429052482427604
Zn 6.489007493743648 2.9432655029922543 5.062762427011245
Zn 9.693156813847938 3.200521061369995 6.996313771105226
Zn 2.237869031714039 4.88031934299446 4.6223824374207325
Zn 0.7114105914284089 5.956448059917112 6.32371421649046
Zn 3.5820256292497556 6.673060413510487 6.180290165894671
Zn 10.053420930920593 6.339657554211205 7.849234684273803
Zn 7.802885394422299 5.226333244268819 5.991195803855094
Zn 1.2511186333140514 7.414585350505665 4.3564519188827
Zn 4.728762499424519 4.691335511001613 3.9876441532144535
Zn 10.432248106293914 5.444087773097388 5.410208256338259
Zn 7.903274795071492 8.238418617059482 9.787184315072492
Zn 7.21778455947691 4.72995620638801 3.2679897082195963
Zn 5.927516583546706 6.913877009763842 5.2202810081559585
Zn 5.519506182358357 9.42805925561435 6.490043745211382
Zn 3.605464636662635 7.120162845732303 3.5005490365947023
Zn 3.1539135829387424 9.169757724145581 5.1977638713127
Zn 7.882810741859755 8.004218993241187 7.110374071909584
Zn 9.823190246638836 4.8947220606311 2.743049199735706
Zn 8.266068475490746 7.125873972768316 4.343270712414844
Zn 10.423219524714971 8.11570662377428 6.050920835570814
Zn 5.893172535136285 6.865770230272215 2.4228431874014356
Zn 5.304064117576577 9.181112583611311 3.754159573775891
Zn 7.651936079352699 9.680183261794417 5.080651821122644
Zn 10.76706641026712 7.186709433584016 3.432453116057415
Zn 8.368931682681207 6.65647561394737 1.5791679471418958
Zn 7.50673578681547 9.055714980394031 2.4660826348938625
Zn 9.94538090573685 9.577378757654492 3.994759057106022
Zn 9.839973868711569 8.733100660625787 1.5791378468362613
