48
Energy = -33.62042158 eV
Zn 3.726325972613737 3.969607537575382 9.134020361853286
Zn 4.389595156637042 5.571756946876387 10.970217090856242
Zn 3.152130391233957 8.751744499126332 7.074208969012127
Zn 3.0413846825300865 6.315035695964049 8.225529041079504
Zn 6.766562355793205 7.045388442192818 11.24225525420678
Zn 2.218389488588012 6.674590801153925 5.7225693730717255
Zn 3.3950664234063295 9.126497603527497 9.607666859956469
Zn 5.724725539155255 2.508575470126347 9.027776176963037
Zn 5.1851702583767665 2.4844484795349424 6.586742081241079
Zn 3.1699041651014364 4.213613839805691 6.5952865676007235
Zn 4.881271024131078 10.599107122439133 5.574405250751183
Zn 6.581409607809819 4.8438169536430316 9.67206761245694
Zn 5.573728513628316 5.2099722390952525 7.186301188453552
Zn 3.44585722377259 8.654324626025325 4.429668024121034
Zn 4.341374184570152 7.980372263125056 11.624460037553163
Zn 5.667094026904977 8.044933736683884 6.289546023749351
Zn 2.315259599744742 6.830488535753879 3.053072902330735
Zn 5.448488328936406 7.288112555453385 8.7161173634162
Zn 9.794935814199395 4.501010442777522 8.502538843105189
Zn 6.073606469684585 9.39952414198173 10.156809721273145
Zn 7.589169781294697 3.520926327508502 7.558268787861711
Zn 8.908159143051183 5.9306172129504935 10.428028317214197
Zn 4.50851191433709 3.3175008668067205 4.318065749778767
Zn 2.2493804127575903 4.504981131007598 4.257694738198031
Zn 4.726156865033907 6.060180620981885 4.9481723513922695
Zn 8.561961926427516 8.54216237134253 9.871796418444418
Zn 7.792431673289171 6.522576925785105 7.900005650700137
Zn 3.779882098384594 4.867535882373568 2.277096947378529
Zn 7.002059971868568 3.4862393503118243 4.968319965188482
Zn 10.446815080356995 7.052160431294046 8.673298595491026
Zn 4.874935984241501 10.497262374171333 8.044514450083225
Zn 9.347803119252017 4.244055031602443 5.867042492232288
Zn 7.227441011620716 6.19918121674367 5.313957603419366
Zn 5.947026696689216 9.1337499161561 3.759133532239482
Zn 6.265818973889347 4.75993565439235 2.7665764117792677
Zn 4.847175918365312 7.188854609683402 2.4856887557361476
Zn 7.2201608390965735 9.510450262211386 7.770201941373284
Zn 11.617973923780188 5.5507464223407155 6.764941113780667
Zn 9.455602308414946 7.047333703080755 6.106182485502511
Zn 9.75610768651514 9.505073295758047 7.6734036009410795
Zn 8.7662848754394 4.968922528806109 3.276254165369399
Zn 7.386422650891402 7.240896498020415 2.745676235000009
Zn 8.022896498037568 9.158251732119247 5.246720161497233
Zn 11.935854658804505 8.197999285922446 6.945554244699083
Zn 11.114866060083873 5.306927104872816 4.255492339774055
Zn 9.759870787575993 7.533380124580885 3.534427607652707
Zn 10.63367110995393 9.491261338761351 5.141357410547827
Zn 12.229172005791659 7.513809049614618 4.576762385735216
