44
Energy = -31.55723716 eV
Zn 9.616488758545476 3.9293889131371826 4.117728487122419
Zn 9.811138865419299 6.510526153776755 8.551091907996057
Zn 7.41603909106819 2.562118774056837 4.083583642024997
Zn 4.768232011582063 5.340843136923431 7.589467298491571
Zn 3.9877335195653014 4.888174040899797 2.287612478954679
Zn 8.213631061312777 9.020909462989533 4.33632316245929
Zn 8.464844249007372 5.09618717311757 2.1641805884321603
Zn 9.556811191912926 6.659314637984502 4.102416651687994
Zn 8.232423614662434 7.6747069873308735 2.1591704630648128
Zn 3.4041869681905834 2.9376273727068245 6.330863502230463
Zn 9.512198085201499 3.995672882998492 8.57239720755049
Zn 9.99400827419436 5.25430731434593 6.284477687783656
Zn 2.1395361024078787 6.593322578835728 8.329408270028187
Zn 8.669059688625943 2.918876352118696 6.376777904242828
Zn 4.650816032796295 9.787194060683559 6.718777420837174
Zn 7.372153949578175 9.828608260303525 6.765584796287669
Zn 2.5792650795717478 4.078188796692636 8.564043500131424
Zn 5.974612249690901 7.248646281384165 10.13552988214217
Zn 3.8562800160247033 8.952865970998113 4.140339124171598
Zn 6.026976662322044 3.0171819444836983 6.311822145205585
Zn 6.0084783922018365 8.925414103568437 2.405400641606806
Zn 3.707323230686679 5.977976762929016 10.176140394761665
Zn 7.253406308171856 5.205395974033055 4.740950810635084
Zn 4.780649989196436 2.7469065327390623 3.924306839976535
Zn 3.3696479988990298 7.560361603198652 6.256934426891468
Zn 3.8946338191099836 7.488114124920595 2.0411709223597274
Zn 2.051144224916455 5.231114999127757 6.190348643646083
Zn 7.338903978814135 5.304814950560981 7.320607407419223
Zn 5.7466478510882535 4.48014937247246 10.257081291305449
Zn 2.4725904563991925 6.551904102169653 3.904938314937105
Zn 8.140575385579524 8.303155794504574 9.054928529058282
Zn 4.717907856711695 5.276596118768147 5.038982857596484
Zn 6.065291554112254 7.479764599721474 7.202562795316841
Zn 6.0481282036357245 7.404933521327647 4.6155440735956
Zn 6.018846446985031 9.672630654395228 8.95226842037041
Zn 4.72745681480325 2.7176334975208656 8.649142219513337
Zn 6.1170027056713305 6.290200838843373 1.656824609271806
Zn 2.4937390273759736 3.886156491207619 4.079253702842524
Zn 3.8362508383763188 8.396095563591803 8.92955485987511
Zn 7.25442088128069 2.892979062742399 8.806970637257852
Zn 8.015099893883544 5.61846812160628 10.075083147910751
Zn 8.778542479836986 7.630802235057951 6.452831203471805
Zn 6.010403960244102 10.30678306472322 4.595950724177137
Zn 6.30134522559961 3.751859809761023 2.1454994006169525
