46
Energy = -32.12576444 eV
Zn 10.144106662279466 3.483862211588381 9.07277072137333
Zn 7.852474874613935 2.7252407565968557 9.630516992797796
Zn 8.800832986427135 2.1260727028973916 7.203252716547326
Zn 10.743287627823788 3.747060247838385 6.606434795799166
Zn 8.37060307230103 5.345142610239895 10.076943433749689
Zn 6.123986859222503 2.5100094867071774 7.649172637555952
Zn 10.142468277165436 5.865684400557666 8.029649856554187
Zn 5.95994332336494 4.541867074075393 9.316448212421777
Zn 7.819040042652019 4.769967208015172 7.423303693025532
Zn 7.042809537350578 1.9245388047964616 5.351246897200636
Zn 8.800960216471205 3.8092481855347433 4.951134645129027
Zn 8.063767767869958 6.659427784967511 5.721181288479611
Zn 10.630475640917078 5.830120727169411 5.157416373567865
Zn 8.508594320549198 7.721324922539939 8.896423297626901
Zn 3.8069107528276853 3.5787901315809076 7.9442786767120195
Zn 4.581314337811911 2.742924330277286 5.4374075565754465
Zn 6.3537183870407175 6.941937814400177 10.359910809967202
Zn 6.645659688304779 3.580312303177932 3.4856650846181805
Zn 3.8422267300522477 5.871920099029322 9.295872121727047
Zn 8.684448095454696 5.6555451831797265 3.194248653091003
Zn 6.055933892509424 4.944159513293833 5.69204694198111
Zn 10.177474936645739 8.072023746105055 6.816185114135188
Zn 6.454715001690058 9.38106486495137 9.13453105755788
Zn 6.23094778785663 6.956624430558158 7.685690833694034
Zn 4.071195137819421 6.328671533172549 6.569619567072559
Zn 1.7018304001101543 4.966174172980966 8.057573103710611
Zn 8.505033443347497 10.023411276667431 7.695731931083467
Zn 6.232859019824541 5.750438634957331 2.343609254522035
Zn 4.269649195678044 8.311571932445128 9.774946413827832
Zn 5.218572265013999 7.095608364577001 4.32648404709159
Zn 4.217165540655896 4.621674278817669 3.5933032657303854
Zn 2.469779111191116 4.242517115109697 5.5759240695729995
Zn 2.27521027343462 7.660725660115472 8.182246883002728
Zn 10.016620127954932 10.269906353409661 5.628656509011887
Zn 9.873622936610314 8.073794211605613 4.088695630926151
Zn 6.676595859614736 8.798630111603936 5.6611190724329425
Zn 2.2178990603471287 8.662906256235773 5.718616572516507
Zn 1.0461227269904825 6.428285352255496 6.182112059155818
Zn 6.083063104059856 11.122814255082085 7.237373566959558
Zn 2.6257690065395805 6.594680325320004 4.164395208796916
Zn 8.03346378193723 11.833127226826102 5.747383446855692
Zn 7.416006351773345 7.9002733197615855 3.141054088319981
Zn 4.442043369564182 9.029955564136387 7.213369178035169
Zn 8.2747459340519 10.204368991178782 3.7338912147559107
Zn 4.1113133121735235 9.568161723567002 4.35257772877706
Zn 5.909824650447397 11.267229902803297 4.460541249709065
