41
Energy = -27.44927682 eV
Zn 4.604532921967599 4.14402584475969 10.430988308101922
Zn 6.715381190819845 2.9602884052354335 10.185566506311014
Zn 7.635016449414372 2.8637656831960143 7.869145372409306
Zn 8.096932359461702 5.046069904102334 9.282938468123549
Zn 4.818591227184984 2.4462697625774745 8.377395108168223
Zn 3.481908033890186 5.853299330386929 9.055205843888542
Zn 5.913723254894552 6.505788007598105 10.149986800748026
Zn 5.8785878647186784 5.141524364125989 7.640784398186963
Zn 10.054232110176782 6.392351366065717 8.402067525418593
Zn 3.434559701115903 4.3858093559828895 6.8946859351921885
Zn 6.385731446796397 9.051769322155943 10.214802397600748
Zn 8.189930144635914 2.8277291525189585 5.445486486915316
Zn 8.422808490020383 7.587753852815697 9.966647081089889
Zn 2.588441727158961 7.336807372788658 7.285819115277959
Zn 5.668343348869482 3.0085747621185353 5.903298474023859
Zn 9.594870096739271 4.3556058887827405 6.979393434689776
Zn 11.11795443634108 6.019758712178448 5.6885517979949825
Zn 6.676722855206041 7.561192681740926 7.715336846656487
Zn 9.564087405357007 4.509761347920502 4.220496592143296
Zn 4.260261329046173 4.5196280445864545 4.352320396138275
Zn 10.03213760809037 9.141317917172335 8.466496633715943
Zn 9.418737875162549 7.041651286043365 4.0644026064103205
Zn 4.996863807934795 6.847894448116699 5.797832054774468
Zn 6.72666588901952 3.868829785208236 3.6974278280730704
Zn 8.161997887917972 5.526149885807172 2.3572811143316676
Zn 4.265999598386461 8.316806605353241 8.918892869700818
Zn 2.2407860481682946 5.85947899435625 5.18887862465898
Zn 7.481062349391301 5.740609915557716 5.743465651774664
Zn 6.377913471788106 9.668410776365851 6.1683899279768
Zn 11.743936544467111 7.935003140461504 7.092908172829908
Zn 7.862148010757926 10.235827692846716 8.409874906518944
Zn 2.3547611530826256 8.419049247594721 4.996636938457373
Zn 5.565522801358769 5.701914344253637 2.347404557710443
Zn 3.683982459010707 9.74661319360282 6.741301314746355
Zn 7.209286557511281 7.550320032234865 1.208026245851864
Zn 3.52564340562088 6.901876927575581 3.208947875845325
Zn 4.6471547664112425 9.200634281252555 4.289617466968055
Zn 8.728524262058928 8.291588442802572 6.275999597604158
Zn 5.363831588722181 10.619069640812993 8.415404514682347
Zn 6.934830424660442 7.826622986385306 4.148324637223241
Zn 5.026248219645924 8.493208417540147 1.8522206940485848
