40
Energy = -26.45281865 eV
Zn 2.7124335785912645 5.5085101706958906 1.6507012494663487
Zn 2.2496920553002537 2.9669131300122062 1.8493355583311566
Zn 8.172407788038452 5.992465312697443 2.3308309974577828
Zn 5.830331306599634 5.922435449546541 1.3727601263928964
Zn 6.747490143689739 8.151228485237821 2.7261579457279477
Zn 4.156948315458667 7.284253830972508 2.7926367693760525
Zn 8.80129303959724 7.213401010653656 4.526586644600588
Zn 4.6552058367259 3.632477449616161 1.2366012052567865
Zn 6.681251863844879 3.9530948309447664 3.325099440973526
Zn 1.244565536819523 4.533218828667516 3.6767488364193066
Zn 9.026332089072044 4.548127417581243 4.311278627916237
Zn 4.955549492639235 8.90903694315195 4.512699479912692
Zn 6.115963182095545 6.324048637014595 4.5236721020063575
Zn 7.328319437431269 8.948331777167082 5.66005210021965
Zn 4.16146479952962 4.693522487435785 3.931069303137857
Zn 3.323326694767642 6.856504119054403 5.371449232501346
Zn 5.164835766718864 2.3440388997865016 4.940034102249926
Zn 7.460262765097719 2.959230909336803 5.817417899090749
Zn 2.696390214389211 2.20922904438245 4.179465288137476
Zn 10.525472866979355 5.830014919693054 5.967878174666253
Zn 9.869022660503884 3.4489413516358076 6.727488584268453
Zn 5.131156110536696 4.643442080204487 6.3657821269055574
Zn 5.177663775772149 10.123483588774732 6.6919334461631115
Zn 5.633893490866818 7.210552957662766 6.859092357986373
Zn 2.4339520194316453 4.392736168704042 6.019440890584001
Zn 3.314769879356807 1.7564027236064554 6.58115690736636
Zn 7.544971232617243 5.51146260204279 6.452200141587786
Zn 5.642864851670352 2.3412231219709 7.713945724340794
Zn 3.284606019270981 8.44297300580354 7.43460539043434
Zn 9.055245680055544 7.6251726549885355 7.205264916207636
Zn 9.88329987874752 5.371548326920738 8.40677309459232
Zn 7.829836250752955 3.548446600567192 8.433196745826205
Zn 3.303315922452386 5.964026073194923 7.988868554179418
Zn 7.179746115761524 8.692829978518985 8.546992740483962
Zn 5.48310347670138 4.619454795606323 9.077544326206704
Zn 3.2791255838882973 3.456119795121461 8.350395122738776
Zn 4.676572461201248 9.568411833689648 9.234933894614509
Zn 5.157082633641245 7.11079226848395 9.506394015911841
Zn 7.583367529850517 6.165105062813816 9.131088640496909
Zn 6.612833330604381 11.312757033108788 8.65639297233364
