41
Energy = -27.30953827 eV
Zn 3.693642225612701 3.4808089610868898 6.791414467212737
Zn 5.719703651291962 2.7173613984569793 8.002274291654937
Zn 5.778531481443111 2.9970563542424515 5.1832262602287384
Zn 2.223556009957302 5.308740421583597 6.063006528806789
Zn 4.174369709590854 4.745342081933137 4.337215874116365
Zn 7.825808709591794 3.2269513518519095 9.239757973784275
Zn 3.2672755385477474 5.676112850600014 8.645087024936135
Zn 7.930192690876287 3.066079933299176 6.514797976128513
Zn 8.152203955502822 3.0820243615832252 3.9429320117372724
Zn 5.600351741478295 5.58840686047249 10.147436354396456
Zn 6.191823603002177 4.280450039008266 2.738679959426575
Zn 4.434131279220494 6.141693825129402 2.0283977487637532
Zn 2.6155269113495714 6.764934670401535 3.7176971795149414
Zn 5.594345950112601 5.348316958428881 7.444806829314006
Zn 0.960399392877327 7.408396418072095 5.556792825899728
Zn 8.014883140281482 5.295792881128114 10.816982272945914
Zn 8.166220782043348 5.548783407803673 7.802408245624045
Zn 2.677349718619386 7.789641715543296 7.403652770040071
Zn 10.186843278022826 3.222021462877788 7.515880364391168
Zn 6.878720623027487 5.467474921334696 5.295948456556414
Zn 10.10528895869525 4.3404093685738285 9.83203443683416
Zn 4.681802198990132 7.05745834028951 5.566494888255282
Zn 4.860075504999108 7.780659605416219 8.899630304151048
Zn 2.780901608998447 9.15705057584738 5.0520357862957415
Zn 8.679474641830835 5.276382023100489 2.8777274736068996
Zn 11.105901609483807 5.523212305253804 7.662671539922306
Zn 9.740204111561253 5.047145751261347 5.439612177614486
Zn 6.711634781121303 6.995346768406419 2.8078147305876078
Zn 6.919462156633044 7.575113873940652 6.94363481189992
Zn 7.36001609638951 7.633332513456835 9.63324286992388
Zn 4.510222685942527 8.528041268253794 2.8626170350332987
Zn 4.614543689570675 9.517418099618114 6.898047584718509
Zn 9.855790355107736 6.868417421077769 9.503566629613509
Zn 10.046285794621554 7.603156795954624 6.804291854666996
Zn 8.678658658312559 7.288335267248789 4.593704045439207
Zn 6.5087939803689325 8.854222451417929 4.6219427882267645
Zn 6.676187125078774 9.910918949584502 8.415838904927474
Zn 4.590668291776148 10.702108699629864 4.290151783964427
Zn 9.131729183979145 9.24471690015336 8.666649563143471
Zn 8.608650397204363 9.59736900200994 6.17606968753604
Zn 6.55050704140383 11.071322904094107 6.069577092274778
