47
Energy = -34.39750624 eV
Zn 8.939963097245705 10.61141497688568 8.43094811801593
Zn 8.528136609813279 8.701134726464176 10.249436107590078
Zn 6.783080540596554 10.524487907671306 9.715541263754478
Zn 10.493172129940403 8.316886730681926 8.649712167273949
Zn 7.578352052980203 6.364892749428748 11.20078532924347
Zn 10.013067632540183 6.6300868671393856 10.486110494470076
Zn 6.003206605598929 8.41774060544229 10.736648204978827
Zn 10.387868770649526 9.756798734899467 6.591766038833237
Zn 8.237421972990784 10.784095987108978 5.763694648869866
Zn 4.567583641016086 9.602925687721527 8.740992541154094
Zn 7.228959983917962 8.673766197587808 7.325338134994723
Zn 8.160311746860156 6.246067672408737 8.204357335232274
Zn 6.134354232443864 11.235310910295476 7.446635450613742
Zn 5.5122964280130375 6.956109975440069 8.188988018603197
Zn 8.88820795833509 4.391145891865277 10.095808264442091
Zn 10.945803723543651 5.769192525418312 8.270211461846738
Zn 5.0243786778714075 6.182851193636801 11.332962040185684
Zn 10.96772016457291 7.339553642620472 6.2364714533590675
Zn 3.462869418192801 7.808841520901668 10.159606361843007
Zn 9.74635618397119 8.839894015751183 4.342474035235793
Zn 9.90743942489116 3.4864710570659962 7.969331731251643
Zn 5.793175146070998 10.987339397165105 5.034145718050547
Zn 3.931827334430253 9.678832343660748 6.247418454560369
Zn 2.8535190845686085 7.817608603544015 7.721850565823142
Zn 8.265815697697374 6.858693643616465 5.669321809187233
Zn 3.567838240563461 5.34020672918976 9.399416142545697
Zn 10.50780351202531 6.416380987415449 3.8362164676426023
Zn 6.248868694938821 4.534701516154209 9.895218052753286
Zn 7.29661670164307 9.282483109558987 3.918837873564243
Zn 10.356852308835359 4.8631726586487165 5.8695093466019985
Zn 4.434853421824719 9.395353734379036 3.6902693995249685
Zn 7.519857608275749 2.851413644198536 8.489921440738462
Zn 5.741986538743285 7.463499951104895 5.400172279059049
Zn 2.9699482459406727 7.445046688984504 5.25519179262641
Zn 4.768361159576274 3.4351134276586794 8.206791933864011
Zn 6.38181498685472 5.115140605380958 6.548924830075883
Zn 3.222206057286592 5.380571894185909 6.870955508623726
Zn 8.341774603024316 7.21656884833554 2.7241512179529996
Zn 6.001498568803174 8.059846323059853 2.1120848617296306
Zn 8.55931632276608 4.706141987238465 3.81111390422616
Zn 8.42976184076774 3.2098724430746275 5.8905981063806925
Zn 3.8388978572429413 7.115211823423411 2.8308235391699963
Zn 6.225611460153519 2.1303196410320897 6.488546809277304
Zn 4.167618595567423 5.27229556065812 4.434444118231397
Zn 4.066676598190943 3.2138321644112873 5.770434725837147
Zn 6.2812129129888685 5.645093625043654 2.9988901957016476
Zn 6.262860754433079 3.4727143216394616 4.294056953657817
