48
Energy = -35.04755429 eV
Zn 11.899345101052676 4.8126417523826515 9.500325615406084
Zn 10.906964019330301 5.55592279428914 6.486218660965726
Zn 10.985703188918656 6.985562575969479 8.671184509652917
Zn 10.228477389079487 8.154530650300089 6.469310789722998
Zn 10.027426518119762 3.20671732066567 9.24696031707091
Zn 9.535409956133025 9.052070416672256 8.88549830550785
Zn 8.657394636263115 10.237229299696239 6.323905296580807
Zn 10.4054794072155 6.67815011258373 4.319118260144919
Zn 7.678133186585004 10.736864760758918 8.621280288345712
Zn 8.774977512394566 5.5355062105246216 7.965229440740193
Zn 9.616168922594635 3.364554431925886 6.521817100361513
Zn 9.17930185340888 8.886939846406262 4.222713272266591
Zn 8.841945847863494 6.798595237237836 10.228692027831775
Zn 6.043850234769585 10.731120677590571 6.599779435580878
Zn 8.389127453310081 6.4408069196598525 2.8064378246816384
Zn 7.505900205013939 7.893272370158868 7.5240599506997246
Zn 7.043735792914381 10.519842004651341 4.238648632463055
Zn 7.1734337742469965 8.694061060305462 10.21879905671182
Zn 7.528948619707493 2.935913067715168 8.027230733802758
Zn 9.275685397111758 4.3330803710606025 4.100091816927075
Zn 7.895432676732265 6.138480747246505 5.5783000057642935
Zn 3.48596359797895 10.226957233891627 7.2369876019293
Zn 5.300796348488383 9.988917505085716 8.971858334970001
Zn 7.536697772561795 8.769320168029125 2.3504569312151213
Zn 4.251112304481505 10.091337632393138 4.838397443855856
Zn 6.302496915764508 8.131919900908597 5.162078563246587
Zn 7.9873588465787195 4.3297135766510335 10.25070847510691
Zn 2.7283765543607807 8.162419037866863 8.699190642722229
Zn 4.671735266472179 8.060416627557634 10.376843436306928
Zn 7.396547845947964 3.026923928870056 5.329920613969366
Zn 5.286301352741136 5.71207494860421 5.449100696995805
Zn 5.812040025895274 6.776715521254971 2.552094954482717
Zn 6.303261114046879 6.176560655807725 10.706236139608007
Zn 6.785429793209241 4.456368488814349 3.1396900226941917
Zn 4.9605738786555245 7.5743668629930125 7.391396256448999
Zn 6.20695368467148 5.318137110817825 7.779279106457158
Zn 5.177314729146683 9.407509646486448 2.6017580816444563
Zn 3.7162068443851304 7.710862551822002 3.847652642202768
Zn 5.56171227255419 3.6525750673097193 9.850852293526872
Zn 2.4930739900138854 8.18635439704646 6.044027738442186
Zn 5.318451291088388 2.730787046169361 6.821370567101578
Zn 2.4856033113990668 5.900437067689459 7.411191750014598
Zn 3.994680943783637 5.066134841575825 3.214716757190088
Zn 5.0623268190257535 2.9634069176678555 4.273060491466634
Zn 3.2102765970523803 3.8911432259280674 5.775024974925677
Zn 3.831888674056908 5.807119800968717 9.709664910278182
Zn 2.172298258111162 5.949364186848151 4.823092125052183
Zn 3.5948635059976226 3.773523221854009 8.280690438540203
