45
Energy = -31.37388897 eV
Zn 4.2359273616204405 2.351844890637529 6.704734252642497
Zn 5.7825526346777085 2.9850436296443195 4.59357365211616
Zn 5.686612465325421 3.009883444200142 8.836490996095065
Zn 6.6783174239947485 1.8075453316041548 6.707870677904796
Zn 3.5118139907427945 4.246974250812597 5.1761658684014815
Zn 4.710751828276541 4.585551828337839 2.916426685246302
Zn 7.3414678022726605 4.6786971719339645 3.2504075202417275
Zn 5.957760906278666 6.399815113944699 1.7049829804441765
Zn 3.2619453567069203 4.350184248299789 7.892124490385643
Zn 3.8660137243350476 6.94226024840541 3.2764678491189
Zn 6.1897092924630375 6.553303513577512 4.761431047246889
Zn 3.6904945228422004 6.651382332888839 5.937373940983067
Zn 7.477634653020136 3.8828200508194683 10.542485822173914
Zn 8.13595055579096 7.168989809427686 2.7853752525128423
Zn 6.535116476590225 8.841776003493967 5.808712629800487
Zn 8.13266949364628 3.6252121103635613 5.588378191389694
Zn 7.485051735284059 5.565486018055005 8.492351314344782
Zn 3.1182506818460096 6.749304476630236 8.636029393907748
Zn 5.855821299134309 4.884576492489464 6.67336117582273
Zn 4.010740271533529 9.122919187115222 4.551691570280384
Zn 5.831232667259147 8.75383019949375 2.789417245944353
Zn 4.62097611091748 11.012463080724757 6.31793194868105
Zn 8.362507156652203 2.8894273370240073 8.21813378140591
Zn 9.830048696582917 8.148887047110081 4.475143076820529
Zn 8.159651611049933 7.01884518020251 6.466462023100103
Zn 5.6950358766705165 7.27656950745392 7.7544610964150085
Zn 9.447062708494451 5.58560362976401 4.464147125328338
Zn 6.156527985636746 11.0361368937235 4.23796855156194
Zn 4.965373888302917 7.625152484250206 10.498791889666958
Zn 9.075465889588907 10.455236569143182 5.5895412219302845
Zn 3.401171002798293 9.231937197789344 9.459727042422355
Zn 4.738181585940884 5.097260028507447 9.918305112984207
Zn 9.970738209365324 4.347120624513895 9.58130668005734
Zn 11.207111753934512 6.577299205313444 6.102391686669175
Zn 3.3733544939456106 8.922729170236154 7.018048481718079
Zn 8.122927545013543 9.687966308939279 3.381385750324956
Zn 6.53621499181858 6.035152192375293 11.598441486453048
Zn 5.807153242398692 9.817776650262928 8.579200872370233
Zn 7.048709111968615 11.412278157282243 6.761151713940248
Zn 10.544727912495794 8.819407844719525 6.89341148454976
Zn 8.350915205637513 9.459028532700891 7.993123542429334
Zn 10.04316745751236 4.585828456222077 7.045539452747133
Zn 9.938855231530297 6.902319462479668 8.595315865654692
Zn 8.962573083400756 6.148914649652409 10.927838021955253
Zn 7.4844567776193 8.043731143698624 9.926591541408246
