46
Energy = -33.28117862 eV
Zn 2.798692658767524 4.992254599029541 0.7263969845728365
Zn 5.054728397622875 6.262810072860175 0.31297768907159207
Zn 3.267163054952263 7.4694677546969865 1.6373921149833812
Zn 3.0329040104822775 2.55873392414143 1.5281480386055963
Zn 7.213274057580404 5.110963616378494 1.2135509594712666
Zn 7.549647326316122 2.5866010610551875 1.7506751080157303
Zn 5.133924631740217 3.6985327680600335 0.498795883195402
Zn 5.356503298117258 1.3432403473409575 1.5357160182505678
Zn 8.356185827037452 6.63943442168686 2.8548454352273445
Zn 1.0163304495818872 6.301974401975659 2.097314026329585
Zn 0.9442118768666964 3.875978681197212 2.5702636933039034
Zn 1.206198332581774 1.4667551644649135 3.0462442659254823
Zn 3.386540602064555 5.241900165211534 3.370198093224151
Zn 3.588462000703075 0.43734471888702975 3.1775236798557334
Zn 4.329797277626998 8.758410632983505 3.517893063121258
Zn 5.7137230305352515 6.667853543758903 2.7896971919480924
Zn 8.57872294576347 4.240973394885684 3.486630778242522
Zn 3.436474608323915 2.9138432574320308 4.414618629993864
Zn 7.191445299780352 8.359123717449144 4.209312110232936
Zn 1.8911592513519042 7.705272096265695 3.9589667665242474
Zn 6.0601854768243095 0.5363701537617259 3.932794874016573
Zn 5.599282714068894 3.727630174277937 3.2394814377757895
Zn 0.7026027216513564 5.445492342701808 4.640119763688756
Zn 6.717475652563974 1.5173806725885313 6.269539127792757
Zn 8.85146088088038 6.1670328386979945 5.347205256946972
Zn 5.441733051067816 9.218774943212361 5.791298997933828
Zn 8.144684963855793 1.886620812451096 4.164767829278036
Zn 4.30677462213411 0.6055209942899598 5.817160010539361
Zn 1.8426364031790576 0.5819730327867491 5.283241783600476
Zn 0.6804998977221687 2.941471554785659 5.188840995379924
Zn 6.435819402664874 5.03217906543177 5.1723121012206645
Zn 1.6321117922165675 6.9895517022117355 6.527142514287565
Zn 4.28690171547504 6.520082216494698 5.350897495908791
Zn 2.9249724728695554 9.030040965749057 5.830536032952508
Zn 2.485289110816948 2.2073745363381416 7.125671308435213
Zn 4.327677981654191 4.151994598002663 6.393125095910002
Zn 8.027769605246213 5.372465823697999 7.670960463958736
Zn 4.327702955892776 7.904434745226372 7.740343569470138
Zn 8.52896271647192 3.490798213093912 6.060446332416254
Zn 6.873857952230947 7.437599015251671 6.868567177936649
Zn 4.815894583652691 1.641814950168427 8.035190471102933
Zn 1.4136097333669986 4.507681967583324 7.091324404573913
Zn 2.907439166614443 5.983456473030597 8.510534164439248
Zn 5.521925805460383 5.69498001369402 8.399364165393537
Zn 3.7276467070061874 3.680591068545059 8.984057338309398
Zn 6.632689009785124 3.3589148193334473 8.13161278980596
