47
Energy = -32.08498933 eV
Zn 4.730343977854304 7.972381373624116 9.742374457374812
Zn 3.942848857897396 5.624534874718164 4.671423448285223
Zn 3.2091261394714308 3.0563225263265106 5.366019646233121
Zn 7.002474910419653 4.2731623838511865 8.656629468069376
Zn 6.441610989540198 7.417151500810571 7.849752083385379
Zn 6.8014604692722544 6.195766265535953 10.550357830590368
Zn 8.983626769052231 9.484953415124544 9.314196570305022
Zn 6.252913715971443 9.991158406436995 6.0953459557269865
Zn 5.453201689106157 5.20907199865021 6.740955688779248
Zn 2.4878377143136627 7.923536373701144 5.742496531531862
Zn 8.280097686569718 3.6990289748761795 3.925179905126569
Zn 1.4600266999640328 4.0702127855021315 3.7976219537500757
Zn 4.171902663742844 9.255341903002282 7.428974322563543
Zn 1.025567729930213 6.573920588251267 4.085347896605213
Zn 7.944225731428314 5.9716934389840555 6.324437549031984
Zn 2.329282331097999 5.748515821878009 2.0652033371836067
Zn 9.000191693068166 4.761332146969994 10.362026276342181
Zn 8.779773359920902 6.826610556100939 8.525513320432033
Zn 8.524039942654824 9.012176702483268 6.8021746361409665
Zn 3.2593122239891463 6.781621781188128 7.913867796725111
Zn 3.8725552735856468 3.7638241395502803 2.726196551776262
Zn 9.149102449654109 7.2975687147264825 11.17749580831359
Zn 10.13596358191527 4.626102640251947 5.457698722757711
Zn 6.444314483544449 10.105426562853804 8.634271608691757
Zn 11.2602449604308 5.8846203293746635 7.407454374387077
Zn 7.350653080076197 7.001895264249345 2.1036546101564833
Zn 4.137692655678956 9.841563446765306 4.651454000442045
Zn 9.509670671372387 4.04754279625942 7.930420245636759
Zn 11.197334129394847 5.995467940683807 9.980592285755328
Zn 3.1256527734311788 7.973341787121154 3.2040437545889104
Zn 5.116836481762237 2.4710551092201154 6.996413968413366
Zn 4.769201711223001 5.338257549372227 9.335659132517456
Zn 5.731152717901692 3.0642020726332753 4.50847004237429
Zn 1.7265227949802093 5.373231185223108 6.227664135261717
Zn 11.206584851492494 8.51493482887644 10.223512279498962
Zn 6.967541113778758 8.731773748358023 10.703690923349235
Zn 3.158467271695713 3.927023680398536 7.8353632401780215
Zn 5.325590855422819 7.585332980370974 5.52923924089064
Zn 4.889244898659859 6.211738577879836 2.0734914179170123
Zn 7.7745872634782565 8.179350730393304 4.52546534221363
Zn 7.598014914204793 3.203621230538111 6.361847722000501
Zn 10.895863984801604 8.4606136917652 7.740364333832048
Zn 6.367673419583298 4.021897432871757 2.1088093121797806
Zn 9.249569744238544 6.104431156918442 3.4458604819468497
Zn 5.5678562195995855 8.755971238249707 2.7117110869816528
Zn 6.51305450058994 5.694666474210076 4.2789038009129365
Zn 10.215273264694634 7.312136235325937 5.496438265299871
