48
Energy = -34.26593627 eV
Zn 3.228777096492225 8.106421491069337 3.584785283210326
Zn 5.755418365180199 8.728490675665704 3.0710111433631937
Zn 2.1904811373234643 6.136247924391597 2.1955756630346865
Zn 4.7706247820455285 6.529937423081845 1.9525076048594399
Zn 8.367179030456075 8.838498368878701 3.106134372950786
Zn 7.267957927626343 6.60051709610443 2.5866599390056204
Zn 9.729083524251022 6.736103655828983 3.5232872329631437
Zn 8.60551207683312 4.283014926037231 2.728421032472639
Zn 6.015942905987109 4.348000170327129 2.9389789677861002
Zn 3.5657431633762573 4.079376655365971 2.4771778907249824
Zn 1.621613886493056 6.324178390932857 4.661540796610504
Zn 7.113221725275953 2.219033762793253 3.70870857228376
Zn 4.519492598348599 9.4829202559809 5.274766598439334
Zn 7.225191898265553 10.115061794378352 4.918067919533718
Zn 6.534199998940269 7.566672115265207 5.419751173705159
Zn 9.218174870672087 8.372648905100876 5.543085707635779
Zn 4.583327942296881 2.4732412939421935 4.401833428008288
Zn 4.527454145791751 5.935105313294554 4.577113016244439
Zn 2.4670063811778165 3.956025962366193 4.785580684858422
Zn 10.73219706871598 6.409519495853099 6.039216132145467
Zn 8.011747497057607 5.52712765579909 5.186369336853134
Zn 5.9066041078174765 4.305172655440737 5.984417839065112
Zn 10.459199369540723 4.437093368246853 4.454581994685915
Zn 8.866496653870756 2.636792371210958 5.421874375758184
Zn 8.385650659494022 9.953463185469257 7.370247973369691
Zn 4.774550370675408 6.498824822744753 7.018919235000277
Zn 10.314998697857266 4.065798258562555 7.0011423554168735
Zn 6.413058961177437 1.6396332688664086 6.147712315385343
Zn 3.6650685242414944 3.0516316553364926 6.8217425036327475
Zn 2.2585650750976543 5.304714409674409 7.009703245364123
Zn 9.513646037094615 7.264275639180597 8.101313947853548
Zn 7.308907899084825 5.650436456086621 7.646153363047149
Zn 2.5254956270092825 7.9987602684693355 6.252288453276458
Zn 5.570480946819592 2.5944874482892337 8.403161877314675
Zn 5.932790576581364 10.70678290702134 7.000590899575619
Zn 8.009128612786036 2.9911499360651366 7.779340401858353
Zn 9.464557169791311 4.682431621517452 9.258295028726687
Zn 3.949199691618862 4.522262654659679 8.964008212801694
Zn 6.499555627647347 8.006031606656162 8.09726291849898
Zn 3.9328714484048812 9.335217532241845 7.825655110657659
Zn 8.63381636978488 9.091556912635834 9.735126935938267
Zn 2.8606569072127477 6.990367427152256 8.890907840232117
Zn 6.880839309171677 4.190569536043771 9.913491107084488
Zn 8.07576953351403 6.55157703338723 10.165772536991717
Zn 6.271846123201645 10.32809049700437 9.493641065531575
Zn 5.382900679854403 6.265208177496882 10.097044054889615
Zn 4.317955927509654 8.625219996227202 10.184877518387983
Zn 6.63431120628733 8.403577157609284 11.139424528720964
