46
Energy = -34.45115322 eV
Zn 6.968950573267627 7.619101693831523 10.20696620186824
Zn 6.617406067249935 1.3940554612436025 4.842184785152044
Zn 5.513909221935492 10.754303093559994 4.882313754293826
Zn 7.646510068380812 5.160581972477149 10.195556421558523
Zn 5.028088366367665 7.562904188960466 1.942643001546159
Zn 9.700917139740188 8.29791468641161 6.597288117658011
Zn 8.301600702494861 2.43591860827484 6.5764637021158405
Zn 9.054243298256099 5.516522876028941 3.3121943312022295
Zn 5.235340489553878 8.983483682155795 8.830230470560997
Zn 10.746188618836221 6.625661690098856 4.854269260722339
Zn 6.063578977446751 6.0776794650812045 4.170045301830709
Zn 4.345438989900434 3.099575692073211 8.119850578110558
Zn 4.183902960983228 2.2496425474276203 5.530420479117512
Zn 8.060178199806666 3.289290513113001 3.9925182274648057
Zn 9.034391523653326 4.332553327502791 8.114501147886362
Zn 3.112813337644646 7.788776129620618 8.142614553301067
Zn 2.246364212463783 7.954371730623198 5.55836030219136
Zn 7.092548243968491 4.606975492220938 1.92601786675094
Zn 3.1493608064075866 5.21783714175387 8.819065936141373
Zn 2.438438495724589 3.8353392036343985 6.595059848680389
Zn 8.852117834730818 8.073426010049943 4.010431913144159
Zn 6.1845281152362 10.775791315564105 7.293712280175104
Zn 7.801255840265882 9.021181833723075 8.137691213366066
Zn 3.8387041157015718 9.697991420072512 6.615542887941491
Zn 5.499007337417682 3.088557998641408 3.3099764178483353
Zn 5.979694272559486 7.940786525142675 6.078668617017457
Zn 1.385804026608807 5.522154557768581 4.870108488312686
Zn 5.1864577881411575 4.483293329216752 10.198159697520943
Zn 5.958341527073601 1.3526466471854846 7.256516341222214
Zn 7.950786692749611 9.891914974081518 5.553372310505319
Zn 4.510265967226108 6.943059287729513 10.209659354322763
Zn 4.0675005415888785 8.865134369662707 4.024442378266076
Zn 6.6255668032617585 9.071653711528448 3.3326412427149523
Zn 1.359671408655297 6.176584368805607 7.286001588932989
Zn 4.196517179345261 5.979868467240096 6.073804129888329
Zn 6.914637682434417 3.131882864695635 8.801909611502762
Zn 7.537624972002127 7.117703411218975 1.9360244085160077
Zn 3.276053182517843 4.080871592861766 4.006391427148122
Zn 10.782537660944955 5.950961072647309 7.264604867599044
Zn 9.00011333617616 6.896756943583675 8.812900700689424
Zn 6.074047976503491 6.059179546676621 7.967477677676753
Zn 3.071281640140255 6.643197348920559 3.3301231684324923
Zn 6.157463750571442 4.1965738991610815 6.0591418912074815
Zn 4.581508137214605 5.052141433632241 1.933848683123996
Zn 9.88867544930092 4.187663481002158 5.525485739452613
Zn 7.940863094840931 6.157731020385801 6.063995302611912
