41
Energy = -27.6868313 eV
Zn 10.912804151383954 6.135269500787599 6.538814507181692
Zn 9.101641427732154 3.336690997455461 9.07968922767142
Zn 9.701221035496284 5.8564573113748475 8.735046249993497
Zn 9.60711057643611 3.851821077351564 6.717352962648135
Zn 10.311470149405924 7.795627477509141 4.685385173957187
Zn 9.371130487224168 8.107625431019382 7.1242661045371065
Zn 9.216029107607369 5.452505198598705 4.573705848855562
Zn 7.205932459785049 2.3917162743357294 10.530812596416958
Zn 7.683169850424421 5.2810667276049905 10.191724778345852
Zn 7.612026255734304 7.6169049550467856 8.956362446371381
Zn 6.595208717371652 3.6331439519170905 7.863566345249962
Zn 9.717894366344698 9.202291652276518 2.657633503163799
Zn 7.629044779022149 5.822610995418014 6.912793199151863
Zn 7.488637412100551 3.5002790107245363 5.305256802717819
Zn 8.69478742295621 6.942706272662663 2.4216599465199455
Zn 8.79262426190681 9.861488697088486 5.09481504331081
Zn 7.173126940785143 9.602432879362539 7.182992399112309
Zn 7.279280277818726 7.6690779164382645 5.177518632231035
Zn 7.354229440777759 4.8278892292801725 2.968855569962932
Zn 5.307848696729089 3.987879802442599 10.52863391280519
Zn 5.548608998824616 6.558673310489212 10.424824746544504
Zn 5.673291148166838 2.888796201278916 3.5170542325290213
Zn 5.77247032204022 5.600557036527039 5.1225624607841
Zn 5.2935465734281495 6.753500699071684 7.429371047040746
Zn 5.40124374888475 8.982037621576737 8.96263173569609
Zn 7.192249064153005 9.42229511088991 2.987021546805821
Zn 4.866027073695938 3.137896345723978 5.943210779692901
Zn 6.460147113960272 10.866083947471324 5.024649115090894
Zn 4.003485394243133 4.08302317905264 8.252938270775605
Zn 3.1500346824318615 5.298560832101682 10.296283875711172
Zn 4.834151498233403 4.947465446575605 2.1800553317311704
Zn 3.3205648517303255 3.8478445564594947 3.8714104796482096
Zn 6.059643313220699 7.1803023213478445 2.6389589049821254
Zn 4.958984798168458 8.846166964355154 4.343224820120202
Zn 3.2359454595464405 5.2834387129373095 5.961755237821334
Zn 2.5333843154808604 6.462547224795009 8.108978829270482
Zn 4.6066907271008475 10.425713819894916 6.654953665888052
Zn 3.3619499445256653 7.771436511643704 10.172443538287833
Zn 3.6432668978219174 6.654143133963116 3.7320788087029073
Zn 3.2554526112367737 7.910887978530558 5.98684370175902
Zn 2.996702522100787 9.232410014677678 8.136730406527779
