5
Energy = -0.85565586 eV
Zn 6.896920791145088 5.337698031788066 7.978303661807483
Zn 4.128905639015993 5.88988075807918 6.917862450806984
Zn 6.20786959195887 4.892624033526713 5.269165960632124
Zn 8.058234201782772 6.949931068787925 5.7125018087317745
Zn 5.29876589126434 7.520562222985294 4.712862233188461
