54
Energy = -39.18411913 eV
Zn 10.535440255430405 6.198144047895883 9.762548146105253
Zn 11.084991119699001 4.7136757101148055 7.908971439400656
Zn 10.607299213992714 4.742729910547987 5.478601576698952
Zn 10.979924607293379 7.1804140660700835 6.959543249192021
Zn 10.853683503223786 8.650957258333294 9.280064785937677
Zn 8.926002146880498 7.831186610292228 10.88480247050669
Zn 9.671205443732461 3.31485732573857 9.56635329665404
Zn 7.054871774817073 9.477596590533716 11.359416661184675
Zn 8.806316615678995 10.37616045975568 9.803503639119722
Zn 10.42283753311643 9.330778288447325 5.3856226562011855
Zn 10.145302015706449 7.05703573491057 4.43286726344562
Zn 8.167160440926049 5.306013441723058 10.355561555070322
Zn 9.754877421341053 4.995002987946483 2.9346273222890806
Zn 8.556326839331835 6.833219989595393 7.97069373149766
Zn 9.669968653846581 2.7416687724710167 6.964773769503733
Zn 7.177627352297388 11.349057002719242 7.458047998401042
Zn 8.84785528813251 3.139540221727965 4.524311301520247
Zn 9.048956608959699 9.305693634786392 3.2100178444623633
Zn 7.948749009302842 5.488751200732318 5.5195860674124395
Zn 9.1424390808159 9.502745039353117 7.477668495040437
Zn 6.606591193641115 8.770974804572354 8.251086787111603
Zn 4.737718480670346 9.35595943643373 10.224567057899765
Zn 6.384076291926207 7.175700248224712 10.389998290163517
Zn 8.074215984988818 1.3612464446540289 8.568189247857692
Zn 6.333565971645124 11.34304802507438 9.856768125515892
Zn 8.20362659618951 10.712441565156702 5.167146163941179
Zn 6.104530062359313 6.288125965768305 7.471430745224847
Zn 7.753225456941436 4.383480418870853 7.808042203055157
Zn 7.455403483972923 8.147276970218392 5.8322189609862205
Zn 7.335381871736331 2.7822205343016835 10.490263027919651
Zn 6.419192012054191 2.991965981061948 3.966279914652839
Zn 7.3220482853405935 4.618448347664103 2.314859265133059
Zn 5.641134160337549 4.763365593158534 9.78774002308341
Zn 6.511311195185233 9.29821909063954 3.345831636004551
Zn 5.662137781466389 10.35494019961158 5.5355512759402
Zn 4.644001210413453 10.863890261470212 7.931947126177603
Zn 5.634161223146065 6.563179791314996 4.874464855641277
Zn 7.82978721295297 6.981673188555278 3.211526194763358
Zn 7.233282299668776 1.990186609071855 6.236911251931431
Zn 4.0491502898467235 6.949803763296657 9.297186936251084
Zn 5.733439321821943 2.6035236726656743 8.383338805230446
Zn 4.557473592863975 8.139834965061572 6.628404757537123
Zn 4.031875550780342 8.91277579199653 3.9454482531530815
Zn 4.786156439255174 4.67938417976689 3.0280788483152845
Zn 5.480879451768069 4.032694917089538 6.102070702787143
Zn 5.319782132325726 7.205922835965542 2.2093799746766325
Zn 3.8136819736780754 4.67001904594549 7.939800416991832
Zn 3.0147907592136103 10.22423714673853 5.994487971822273
Zn 2.751207388315704 9.29007195804302 8.656554865857457
Zn 3.2942602491520954 5.379211714732265 5.358349081958688
Zn 3.056030848966438 6.5258426637047995 3.0543820007430216
Zn 2.3317770819783155 6.731441890532392 7.377013965232741
Zn 1.9759796373619116 7.798362796223638 4.921499559127428
Zn 0.9910302661127984 8.924199232290993 6.914710386143791
