52
Energy = -36.29331764 eV
Zn 3.436427034134228 5.317980446831934 10.251530921063614
Zn 7.380522699941827 6.248961670195976 10.550689633976784
Zn 5.191717951752221 7.401434469611999 10.272606364943178
Zn 1.1260929959538313 5.7682626012566995 9.073554807371739
Zn 7.2247141454086234 3.4165605222330484 9.669324675606733
Zn 4.65517851995037 3.162967137684013 9.439615397231526
Zn 2.6792656875283893 7.749567732979625 9.649203566592861
Zn 2.6846953462949537 3.944826521389533 7.990106576878801
Zn 7.154184959127355 8.788308885920877 8.676749210471634
Zn 9.272857045751081 4.890903201442814 9.666646985261623
Zn 5.665615300592106 5.534927926568607 8.481782551768205
Zn 0.7304385086738302 7.790059322162349 7.765268146380986
Zn 0.9687672058250976 5.385774938842318 6.509791513085777
Zn 5.9381537104329345 1.6530050768904452 7.884653679777208
Zn 4.6642046231148475 9.364670822961457 8.804918888735275
Zn 7.423790728924678 4.06555265454695 7.067006106139445
Zn 9.932061344723772 3.2109160488242714 7.877376771210594
Zn 6.402221832497815 2.228355047753438 5.420872414512197
Zn 3.4662826355764005 6.45323317863973 7.367851511976292
Zn 4.796806615637307 4.044049688987952 6.453705764741886
Zn 2.866456516439024 9.089269916311975 7.031216775538902
Zn 2.5939229906488883 3.8624789416553864 5.153137202694543
Zn 9.541702912932111 8.625527543995705 7.472851529086486
Zn 7.979179216735766 6.513332887833137 7.742719272526848
Zn 1.6677935521954805 7.624219008072177 5.2989158828611185
Zn 8.970860142097496 2.5031384097037077 5.553777104820061
Zn 10.533496077957121 5.873439605535546 7.639553170403944
Zn 11.279147283316876 3.9440894492472123 5.80083050460911
Zn 9.0207917571202 5.422415498403697 5.42241147467282
Zn 1.2740743300271218 5.522933219475704 3.82548906519005
Zn 7.598023705878555 3.339840796418301 3.451469892391272
Zn 5.676971055541962 7.492981160401722 6.608257672719499
Zn 4.9144075257324 3.569049467234031 3.8149959862718865
Zn 4.065092662969015 6.232660822625696 4.953472524863328
Zn 10.319653566508006 3.471176181633233 3.4598810442780525
Zn 11.032783264039876 7.493857868216818 5.730783365781263
Zn 2.3769566990718203 7.522866451756813 2.727426554514827
Zn 7.638515245230727 10.190793602617557 6.397351020162401
Zn 6.526173341041279 5.602179791973872 4.9712907194317495
Zn 7.958799251184696 7.715250062732366 5.362664509990212
Zn 3.7279348491317905 8.947796824851181 4.513914200883156
Zn 11.511435915509834 5.662654237058597 3.916007094292942
Zn 5.121340621384081 10.187380176727753 6.408681447207585
Zn 10.030669245082189 9.880214474882818 5.233382529300911
Zn 8.819080310982379 5.423059373557767 2.6372715268018982
Zn 3.553126826742305 5.252912520251812 2.4781990468858432
Zn 6.246610620422489 9.414218384101579 4.197088482013903
Zn 4.942278458314695 7.533900517708556 2.658561439399179
Zn 9.921507889073586 7.628996585227348 3.432194102290209
Zn 6.23462238798047 5.308882070708489 2.3206234875399314
Zn 8.577259788818775 9.950874016581281 3.219775684864134
Zn 7.486039310846098 7.629849065051613 2.6023029263638846
