53
Energy = -37.03313937 eV
Zn 5.200572516334865 4.255239841230266 1.4690936737070341
Zn 7.453874325254214 3.1233891920757717 1.765334232426585
Zn 5.044669546183789 1.9698824050890347 2.4560342714423364
Zn 4.331587427317192 6.378690764616301 2.535755015635412
Zn 3.127620327571945 4.003307607637425 2.9208034983361126
Zn 7.152286774273511 0.5264589722454033 2.489057989028958
Zn 7.103881450491814 5.758493339460293 2.1955939644316427
Zn 9.418357305794656 1.6147367959319758 2.7687667448497546
Zn 5.445688169119656 8.760817932694437 2.6897887734540884
Zn 9.412754958149417 4.232750152206581 3.176438399797096
Zn 3.1951891639989976 8.553810016038636 3.9936410044949415
Zn 4.626818855383481 10.785185318979869 4.1136774552069575
Zn 7.7859052774535815 7.9360530210836275 3.3856177537961125
Zn 5.362600128615465 4.4426126942865585 4.43786428309047
Zn 2.3862710043572943 6.093612024527505 4.364558830979981
Zn 5.7189369419976215 0.7023741324952741 4.64365907701655
Zn 7.3488179089332135 2.915519141605538 4.386726202478762
Zn 3.4297649580440512 2.0007053930878547 4.4997146108656905
Zn 7.131547282086116 10.090704501398026 4.384578817913644
Zn 1.6232287088224533 3.657104266244202 5.077806313731678
Zn 5.320052211303489 6.982472861224504 4.876058133739196
Zn 8.357148356869661 0.4567710302538779 4.910126603173218
Zn 7.874996011940343 5.710803034537307 4.778087715585805
Zn 10.109511946993843 2.441234348056594 5.13211898208631
Zn 10.35179924445517 4.98172949145216 5.407825775019797
Zn 4.0674215068362 12.571124372147398 5.8690641093902
Zn 2.8540082669512925 10.268897464781494 6.087364613519177
Zn 3.853823197913252 4.808870303444588 6.461359942113954
Zn 7.8266835936767185 8.185770479388355 6.051407954166483
Zn 5.3310953205982665 9.115377145315927 6.167505102539943
Zn 6.433429623692961 11.807565433907332 6.114140382618714
Zn 1.6684850187994247 7.962971472606863 6.066172697480767
Zn 7.200413493051943 3.873306752417956 6.606821290857253
Zn 4.891984178430523 2.4499762950775947 6.559022777837859
Zn 4.596166160117454 11.021334809375219 7.971539304170351
Zn 7.167524498409086 10.11387669609265 7.908364430183956
Zn 6.223847740348847 6.145084171440953 7.080826593828868
Zn 1.322045192858435 5.407401674170647 6.884030833203461
Zn 9.09867422183367 6.238994535938574 7.297663069275301
Zn 3.9755147471908514 7.313588549361759 7.2555766506269075
Zn 9.277499071826734 1.284907502287807 7.233432577341444
Zn 9.679440548504028 3.7539233744696268 7.620759190094582
Zn 6.798480188866195 0.8323746668373095 6.992835253055947
Zn 2.5137335333051807 9.536984823357018 8.511686928417722
Zn 5.323185106679485 8.90970870488996 9.291271535829013
Zn 3.0950596807420068 5.304130547909513 8.897337333938811
Zn 7.576949012835269 7.728903016981082 8.781428702124922
Zn 7.815293030718131 5.0543564000765 9.254972499175512
Zn 1.2654449154395133 7.2974803969214825 8.53619308264188
Zn 5.397510995730572 3.970995904415897 8.739495253283946
Zn 7.581920182457259 2.4789063704765937 8.856046557952538
Zn 5.432336746237815 6.3306554420634065 9.7240095830052
Zn 3.2384907277858033 7.678415718971055 10.141284932620561
