52
Energy = -36.16343151 eV
Zn 8.978735728814712 8.553108989154328 3.23180379200682
Zn 5.625293053260742 11.601092754760725 3.446951508113823
Zn 6.747893154120906 9.930729168898228 1.7588701893260716
Zn 9.889949151809578 6.364505904408887 2.3439236945767443
Zn 8.00541727547735 8.400815581411493 5.886165005793618
Zn 5.635505602148303 9.83601940853804 5.904171668533816
Zn 7.198145810483625 7.461012153515404 1.6338925818597116
Zn 7.599677353084061 10.39951891101998 4.340775966336464
Zn 4.066947877612544 10.436476497082824 1.757564465795875
Zn 3.460209046482157 10.639695706428155 4.292767029458373
Zn 9.052828273325954 6.001770205173171 7.150687450789018
Zn 5.400230527367089 7.159262534571115 6.113890254562042
Zn 2.7004926041035127 6.1230702760774856 2.002823870194757
Zn 2.8737660152042306 8.067733617817359 3.710037346634098
Zn 3.6209806548581174 7.722997149530665 8.222867372209118
Zn 8.580677431360964 2.714695377803666 5.620034233830147
Zn 5.2877746482641435 5.7721089388154345 1.2886977211313815
Zn 7.837798777848081 4.951859791197357 1.809704107533785
Zn 6.8444523233342816 4.913315185959641 6.272216546986913
Zn 3.0965883705735644 9.183398109665129 6.243836300012223
Zn 2.231835949024063 4.474211408470067 3.96499660403117
Zn 2.837865779715061 2.855279048819699 8.06227040521533
Zn 4.152415761566135 8.047085688246499 1.2541434042161024
Zn 3.3637215379762906 6.5161461825399245 10.545487561224922
Zn 3.8435219770189764 4.033995452952534 10.169603049903975
Zn 3.6288450664789305 3.693546175701627 1.9247359268909534
Zn 5.433871312692436 7.969193005582824 10.069199136596339
Zn 2.4563693974013945 5.396207657646936 8.307173806869294
Zn 7.0170087585614285 7.629843753944926 8.103382581721034
Zn 1.9639452145494847 2.568871679668948 5.650981159432371
Zn 5.527133754501238 8.30021900422371 3.678695432576996
Zn 5.746420645751096 5.6695547127881705 11.174198567368927
Zn 4.18389494804701 2.485410639731918 4.154730687896677
Zn 5.279324430912875 5.523651456683674 8.277305782869982
Zn 4.681412409663838 5.762932962282049 3.944416910670949
Zn 2.6069396588679172 6.60682294257992 5.90672250361216
Zn 4.0913987295066505 4.489565150498424 6.121119597060249
Zn 6.616332589894402 3.7095163298686664 3.9330090106737323
Zn 7.851662657265272 5.6482458233308 9.534407168397717
Zn 3.828620804591985 1.0176761225123223 6.435239434323197
Zn 7.231806361821507 6.378340458950847 4.159175224505568
Zn 5.62604864159485 3.0107483087470306 7.575280199140623
Zn 6.2063843445353415 1.527789057263613 5.437344379644251
Zn 9.97847351880884 6.748288488838816 4.933975269872922
Zn 6.003468154273959 3.217380219606207 1.3099755849481773
Zn 6.5155982477979295 3.482542094438304 10.06864451134082
Zn 8.323542089991696 3.487738107278429 8.119501879730901
Zn 4.539284822034349 1.5587172496560482 9.649060463829617
Zn 7.95000607902017 0.8950304502813947 7.236088223941976
Zn 9.291991175145663 4.448048744606855 4.0300780284318956
Zn 5.542702244948424 11.601092754760726 7.82038890254447
Zn 7.061222476422049 1.0428360740596236 9.55932175561997
