55
Energy = -35.84565917 eV
Zn 4.052090870024365 1.6307568106141213 5.920687394384564
Zn 6.928443503006591 12.81801423610713 7.323722365901504
Zn 8.20578205329373 3.875846622293777 3.3924278199707056
Zn 9.168546007702535 12.81801423610713 9.969510975996165
Zn 6.314626473244623 6.589184599956172 8.109093855071707
Zn 4.223075340147135 8.250551904522432 9.40729209944055
Zn 9.151304745590956 8.471477169851243 9.66616728366622
Zn 6.738676000108769 8.98423987874504 10.730406698697823
Zn 8.904961290559653 2.108934147894499 5.249137411430796
Zn 3.4953412551453047 9.650588662015323 7.3756175400567825
Zn 10.435151085583854 5.93339774689183 6.307099352342113
Zn 4.903536943332637 8.948024507395306 3.435126455230161
Zn 5.948809517850827 4.64759785846296 10.957823151664511
Zn 10.407308927786913 8.498201304925306 5.393150058171229
Zn 2.2964164552645023 5.763192206676571 5.052350664019641
Zn 9.568755841640545 9.930898177102703 7.399860161245976
Zn 7.170203777695986 8.049152512429723 4.213384464192294
Zn 4.040688152685307 3.966711782135958 4.818216120495125
Zn 11.123336012530809 7.9739885108971515 7.9579097269524794
Zn 8.87063947255319 4.079553324361834 6.893897436427331
Zn 7.393583743598031 2.1058779124088765 7.4670006011152825
Zn 3.366413767239569 10.797631097127734 4.791541273232394
Zn 12.749977921266506 4.98701909893054 4.926114580819854
Zn 7.741354783220495 4.21756545720916 9.181845981222425
Zn 1.0333336535558584 7.27134689759053 3.498787381183637
Zn 5.48956699886499 10.43288663047145 8.829114860530469
Zn 5.681001866938664 2.692346852439508 9.462244057300616
Zn 5.539029965422186 4.186031444232559 7.210818754235163
Zn 7.728343008024102 6.502402310578939 10.568159542014843
Zn 5.2084674407439815 0.6722549862462945 7.930358566332997
Zn 5.297791030168561 7.01566011874186 11.258065892968002
Zn 7.9764645117980635 10.667335783747008 9.325242447806955
Zn 7.104259522986576 6.093858286240599 2.607646075219882
Zn 12.741104224429618 7.3403135500225645 5.922728936339126
Zn 8.816539478143543 13.56984215082589 5.897221349462966
Zn 10.429934560212896 3.986735825437625 4.579192581929104
Zn 3.0956105349839644 8.228852369804526 5.14734657615616
Zn 6.755137281293543 5.670806267722415 5.53422607358387
Zn 3.5749049041959644 10.71611425666724 1.88496741927156
Zn 1.6682637583465247 9.694289425502683 3.2360692915181746
Zn 4.134384737360502 5.492090492266169 9.253088919559662
Zn 6.370819689738092 2.7606573501003986 5.068058072655844
Zn 5.666640727170019 4.095685783994423 2.8737986860076794
Zn 5.680132040681348 8.571816981378179 6.399586323685866
Zn 7.281741559337971 10.790291796175502 6.833092212671955
Zn 9.198324589756366 6.2032983308007825 8.510728729239617
Zn 8.105781081901542 7.796016356921511 6.6534932409962835
Zn 4.818736963329345 11.716627138854609 6.625042189850415
Zn 4.688840819449788 6.365791622249223 3.825062626241488
Zn 6.067882252225277 11.38130009689477 2.0498309687571132
Zn 6.175722594577408 10.908297251652204 4.5710713642834895
Zn 9.210393684214294 6.345086139273025 4.0848059401126235
Zn 2.8676737270460304 4.450881463651513 7.142456444657482
Zn 3.410377057436951 6.973641923228909 7.276010158983794
Zn 3.3538674466000935 2.369840803671036 8.372396496700508
