50
Energy = -34.6617764 eV
Zn 3.4339592611856737 6.2224833594196145 9.351577473715576
Zn 2.984893022845285 4.053200348400204 7.841918541587725
Zn 4.865749977176493 3.231853971351984 6.23278326739703
Zn 4.209121874088146 8.223121236751807 7.916204497653176
Zn 4.6123072179703355 5.751364788774001 1.9907981271021509
Zn 1.6719154652900774 6.861904798629843 4.5339251503430065
Zn 4.4406301088656885 3.8818239027173 9.9078867742813
Zn 6.370264531249772 2.97261498699386 4.1622327646680946
Zn 6.194057999312463 2.9179691811991146 8.422376276082156
Zn 5.736783504719501 3.43513133740778 1.5786623352217728
Zn 4.605785353128784 8.274405338228982 10.618992968046657
Zn 5.757100465224883 7.8069699039079214 3.317424472427306
Zn 6.72935928913523 7.837888289747691 8.683530566198437
Zn 5.09457648252877 10.370365138634371 9.195476118080224
Zn 9.01509078516589 2.4421636178946833 4.291208103673476
Zn 8.15769555840364 3.24007593975493 2.049749687826056
Zn 7.41844316009241 5.178452194890145 5.732176078639769
Zn 6.952608987811085 5.501236789282193 3.008333738787363
Zn 5.2201800946059995 10.214571543183437 4.088897073730299
Zn 4.882475286461829 5.756640556756176 4.902150595798669
Zn 9.870528866334038 9.146781320163354 5.2763619049644666
Zn 11.662093476039392 8.094755560443124 6.821987217460855
Zn 10.03755476160671 3.97239080449381 6.08895297466834
Zn 3.934303857842003 3.5793693066428753 3.3710077763187143
Zn 9.386234494511546 4.866773416618984 3.6583917822530747
Zn 2.2106428265365734 5.512638729589553 2.600497454303787
Zn 8.348545548895691 7.281977233850671 4.211707380213851
Zn 7.57922410280304 2.471425558621149 6.392668844256248
Zn 8.658676627660862 7.317309938892931 7.104529392657064
Zn 11.018735700808072 7.832346028053654 9.202281743180508
Zn 2.5800049970588512 4.472693830082151 5.354601801644176
Zn 6.358307348138153 7.817583253150664 6.032461288869086
Zn 7.682077890586404 9.75219689062054 3.978353714714957
Zn 8.552578168378714 4.276833041889184 8.138568335298046
Zn 10.596668546751568 6.462245498868027 5.282039795166297
Zn 10.866071392761487 5.690749830894729 7.793069685462415
Zn 6.235715046137204 12.305098263727416 7.681610462154468
Zn 7.732051558591408 10.444431000580535 6.367019900185481
Zn 5.557976346964609 5.648045682343296 7.563613421469137
Zn 3.720809898236277 8.336392718862266 5.146607883298496
Zn 4.987985086008998 10.270878018262835 6.588436345044618
Zn 9.926499208421324 9.777470988816564 7.837194240291865
Zn 8.997499897420848 6.345016972252167 9.63499858831511
Zn 6.854962645026884 4.9294373150974655 10.015360247404596
Zn 6.706372647249115 9.643650947764243 11.003316635488208
Zn 2.5875321603138204 6.52806915169448 6.868881066517951
Zn 7.18452080326041 7.213543251373039 11.431969796371439
Zn 9.039724395005212 8.80514931235568 10.408273129077994
Zn 7.8038904632945325 10.635748007415266 8.950874481003869
Zn 4.973397607611011 5.953318049593416 11.454022814387871
