53
Energy = -39.22115097 eV
Zn 5.970181856622877 3.3121808737183036 0.8409973576962735
Zn 5.954181249711841 3.312237482102137 11.295317553079123
Zn 7.9902841003828025 2.9682411062361456 2.256321377212676
Zn 7.978837898279033 2.968142547005514 9.887335118368723
Zn 7.265322391443393 5.475748031344975 1.6342823424079527
Zn 7.251594897794767 5.475707826989502 10.505329833703621
Zn 4.668344721370179 5.50857074192579 1.6674936770615938
Zn 4.65659235417545 5.510013109288272 10.461188561790552
Zn 3.962067056452567 3.014477037109352 2.2464715079776982
Zn 3.9511362282974485 3.0165901231402303 9.882686930192822
Zn 5.98248662335058 1.9182008265003303 3.4584903946991563
Zn 8.859478595628183 4.922255036889039 3.7485150590560767
Zn 8.848618698655176 4.924378382087521 8.39569941902112
Zn 8.334941856856316 7.327163039428172 3.044904733371305
Zn 8.33085813158724 7.329225254168126 9.105910648216799
Zn 5.896814636518314 7.759334614321803 2.1450233978298323
Zn 5.88592827728744 7.761098769540581 9.992215350064429
Zn 3.524014727722118 7.442884355020261 3.1731968406441964
Zn 3.5136093584211703 7.444048069860513 8.959336468284784
Zn 3.166708450577357 4.95548194463823 3.755538937205535
Zn 3.161042343987569 4.9584363896054695 8.368589233684913
Zn 8.28206252396385 2.6258896805097223 4.795316037258666
Zn 8.278808111935174 2.6245319058085808 7.350975859551411
Zn 3.7034551302755996 2.6282323991632834 4.786029837413893
Zn 3.699145574991421 2.6285264421595933 7.343446076171861
Zn 6.002324705230546 2.579277687665855 6.069349168530096
Zn 5.973731873575654 1.9157876500927868 8.680759074591217
Zn 10.376749500411048 6.751928606589974 4.758468037264091
Zn 10.371297063864853 6.7521065279051005 7.389867382554545
Zn 9.762105451901064 9.23775880706919 3.998308587177572
Zn 9.759538602115807 9.237242436642298 8.149518901619428
Zn 7.206381399830815 9.539488716192412 3.7632562875842055
Zn 7.203127772382443 9.53739251524261 8.377449285893775
Zn 4.624531621377981 9.664288247093047 3.8015419176278544
Zn 4.621282600133959 9.662722514285008 8.336185429817904
Zn 2.0631164531570336 9.219374176661917 4.675990867008682
Zn 2.0555846947789216 9.223202339079386 7.459894825168286
Zn 1.5715698561000029 6.718104128167516 4.797102169363124
Zn 1.5625643626273868 6.721988804990408 7.328427942698034
Zn 9.971595792159468 4.487668778213485 6.07428652241058
Zn 2.0468481549646595 4.424672357601982 6.062654321389266
Zn 11.097135480451886 8.93920629298046 6.074580132251184
Zn 8.582102778227352 10.254143202772665 6.0728453887123095
Zn 5.992755076861618 9.620354007365382 6.0697139217855405
Zn 3.591873872250864 10.609865184037409 6.069647743285891
Zn 5.983936549758198 4.577970488430284 8.221562594774463
Zn 8.121573578549567 7.601811779981144 6.070671033205273
Zn 3.9557943992508044 7.625748845535477 6.071435892058174
Zn 5.991076169944969 4.581768191122868 3.9120012216482247
Zn 6.0406424158542364 7.083328176656924 4.645571888492131
Zn 7.357486370547324 5.077664493659859 6.0689946223130224
Zn 4.614395170647827 5.124053230164305 6.064528523014321
Zn 6.042298759111653 7.079422147594284 7.494710088150163
