51
Energy = -36.88414784 eV
Zn 8.375215720296238 3.214257067382261 5.433803914615971
Zn 10.166971614077834 4.990332771760849 4.478227330661161
Zn 8.441678404892349 2.247829329166311 8.048394053550696
Zn 9.798799623412156 4.378686181592882 7.227719894400263
Zn 7.906264725218887 4.484544247363386 3.1609697870161337
Zn 6.189596367022081 2.8329980440351727 4.136780064989976
Zn 6.265704578140467 2.1553901117967866 6.637199639204936
Zn 6.87889301287111 6.144726486539162 1.2479452050594093
Zn 10.617266694966343 6.7479600851569455 6.861123538868534
Zn 6.127674568843495 1.5555879734319278 9.199766347971806
Zn 9.647681014174553 3.6133127238914375 9.778547535989706
Zn 8.059770407214414 5.94486155375142 5.685755925001338
Zn 7.63220864121401 2.6263105339373745 10.836910650718712
Zn 8.905522020522048 6.842314028017147 2.6011724941159025
Zn 5.255513846462461 4.55211608118594 2.5833838676686716
Zn 7.040342080845451 4.505261821443567 8.020696200447063
Zn 10.133164328412612 6.0411659800325905 9.274912542455551
Zn 5.661158679069409 4.960977372076369 5.796393783842263
Zn 4.008355094760018 2.8834596990396713 5.526106099656492
Zn 3.1137689450523967 4.845008449556022 4.088902775008229
Zn 4.4775528956659425 6.830368931860592 1.6905307188817043
Zn 10.469901208185428 7.504934689139872 4.466902276894173
Zn 6.860152854991691 8.603767919181031 2.1781969532444805
Zn 6.263174618492383 6.759638442758595 4.045415242715266
Zn 5.60290763965189 4.086122559877526 10.259030921524324
Zn 4.464338328788339 3.3723866828676257 8.065267199068746
Zn 1.2901709752194719 6.403350020873048 5.373147981126539
Zn 7.9199494545171785 5.387592663074962 10.478392553351538
Zn 10.083603807323192 8.538038885810174 8.783975550894727
Zn 8.676238259220064 9.25508277178747 3.9561017348200784
Zn 6.72096446255981 8.31629433408794 6.10882625322408
Zn 4.458554885936569 8.859068340089179 3.1632101317357684
Zn 4.235704860427369 7.32350432127665 5.585539800937205
Zn 2.5272820239832408 7.299335230663658 3.3800619111394834
Zn 7.9469147444242925 8.204371301801947 10.258251859771358
Zn 2.887242953118761 4.921965435330106 6.768918851604357
Zn 7.928048252287575 6.931726784626113 7.971622296975772
Zn 9.80073421711447 9.207961129081713 6.316735360669353
Zn 5.764702672857766 6.753971394920233 10.41394689035496
Zn 6.299676976499498 10.224570489131272 4.183550592604431
Zn 5.389129687287891 6.652864117453719 7.731112008360025
Zn 3.543398239981098 5.429175213510738 9.297699408785146
Zn 1.8696842693874052 8.808439970736275 5.643932804780678
Zn 8.079076210388006 10.008670019051115 8.222920096914292
Zn 5.842322711988372 10.765899409008254 6.981892935102283
Zn 3.9661549669207856 10.24420102399188 5.200084410079031
Zn 8.091332622686833 11.049480874603814 5.801772940434454
Zn 5.778879353191193 9.243417016389882 9.164413733041608
Zn 2.1286039328044777 7.184235844786555 7.726468236119741
Zn 3.6192147628663625 7.934393783342556 9.636545925317675
Zn 3.693789074917555 9.388000384772258 7.58006359713961
