54
Energy = -39.33848971 eV
Zn 10.726894133106413 5.921386260838668 7.453059232648468
Zn 7.397415851290292 9.304532717964069 3.3421882335073096
Zn 7.046688925307592 2.6713618609429535 2.7617060847133694
Zn 4.992275516077889 9.62265988035088 2.8672266851296246
Zn 0.39943558008616986 2.7106062423457526 3.976140885838159
Zn 6.087686565523614 7.47476587259698 1.8685879054958414
Zn 4.774396564112626 4.575318359632794 6.994290571305357
Zn 8.1863795711376 9.36511496751769 8.49012591241848
Zn 6.260160017021675 1.810987156587499 6.994302313470676
Zn 0.6762054760640702 4.575160786046039 6.405347288057847
Zn 2.2674328880237384 3.444338800787669 8.124612271194197
Zn 1.2115031807121674 2.038410995281866 6.229825999093708
Zn 9.589848187149645 8.609391521372691 4.375067589133644
Zn 2.78179635218844 8.85331942063752 4.160960204327063
Zn 4.976234978935358 9.664298568699973 5.363311935930671
Zn 3.7586878251778453 1.806904343495212 6.55590410266902
Zn 4.541597572025102 3.057036311263695 2.426882402506619
Zn 8.792902520534977 2.186504596682649 7.505916930451199
Zn 6.474486428970819 8.002151778487002 9.675361274201087
Zn 2.4242027040764724 6.07717476923703 7.660156667757365
Zn 6.767560553537569 6.880630099366089 4.617553295625711
Zn 0.2205744233909318 5.193922432075695 4.033985879274782
Zn 2.805795884542788 1.8777190414408813 4.10944998268531
Zn 4.109070105355864 7.427946529591 9.072849343095385
Zn 5.4190352281981315 1.705564531988741 4.555301187933512
Zn 5.783332407638475 6.970988773383507 6.9649310623662055
Zn 6.387475313918244 5.46068503140258 9.232521240652872
Zn 10.650147094827599 8.285428916889657 8.538772865488188
Zn 7.973368481413447 2.277487867577471 5.092620884737072
Zn 9.912075901744611 3.909075447983689 6.043952990327002
Zn 5.683697835883423 4.495524544468646 4.4858073990083165
Zn 8.756157777746274 6.847495012982102 9.488799630925595
Zn 9.850614631736894 9.843023509091156 6.6453027796630675
Zn 4.564671657953663 2.6005066148996057 8.95401660192165
Zn 6.775031729973148 5.0275158340651 1.873859223136353
Zn 11.412314965460308 7.914759569723786 6.0494971494693575
Zn 4.19654597256879 6.685391595077602 4.799678544009698
Zn 2.1380655698058826 4.031365082898562 2.5942517495739152
Zn 3.8404130884769283 4.976397363565114 9.559055950310976
Zn 4.231941350272148 5.595496561140239 2.0784878000722498
Zn 7.399432488016271 9.434738654444335 5.966915941246323
Zn 3.4719783565088753 8.112752727194987 1.6643529490505706
Zn 10.359282927933885 6.09100956706816 4.643165011416888
Zn 3.2090239097682485 8.410165141427552 6.817583976954041
Zn 5.41573447194782 9.479844702191901 7.84487587426117
Zn 9.014443843783953 4.482352105677038 8.659512908181505
Zn 3.0476438014669567 4.403160592328788 5.085877590627463
Zn 8.490409145833567 4.523310798983364 3.8200494065946318
Zn 1.3578634740987958 7.065526652826743 5.481514111627641
Zn 8.432122121423081 6.998417259537551 6.642983806826826
Zn 1.9782183104118138 6.619631657686863 2.950068362201367
Zn 7.025051115651563 2.9834146531824057 9.17444871486512
Zn 7.280747955254284 4.646380158101242 6.482421184640098
Zn 8.59055840021851 6.8875768932553845 2.661191245665224
