50
Energy = -36.15830683 eV
Zn 10.5213140094017 5.391172627686315 3.5059364513891613
Zn 8.794807137308753 4.67345990702449 1.8693267006608354
Zn 9.032392243445148 3.443806629008 4.2423302562280645
Zn 9.070195911992942 7.191535226775931 2.379878193280453
Zn 10.103872023687634 5.3437032212506335 6.049770667431382
Zn 10.448183621245155 7.587213715417757 4.746154249332997
Zn 6.602005930993893 2.595423694927843 7.670804312297815
Zn 10.280891407888845 8.007859575692477 7.308235131414028
Zn 10.182144137544995 9.998598513557166 5.699260666041387
Zn 7.618805801496776 5.87813123081529 4.499410100660997
Zn 9.377968100996645 9.495972049363063 3.4024146851319266
Zn 8.28089799483935 3.7517177533578874 9.24157228101377
Zn 8.954903159971453 3.145661468173025 6.798993712723506
Zn 6.654242358498096 6.060575992280031 1.945089692995843
Zn 6.8203210670901 3.3954669470588756 2.6463377979848337
Zn 4.263926689826574 2.6464693693051133 8.663487949471287
Zn 6.9337087110408 2.301067758543776 5.142892942684946
Zn 5.7424833046504995 4.661254035061755 9.219019613468452
Zn 6.946626171879172 8.375052406104063 3.3988213699994514
Zn 7.9102024597743075 7.912921827029791 6.1169586658359245
Zn 9.556373650227924 5.867497330142642 8.507055792277535
Zn 8.765361690843793 8.220923682608378 9.481053430538548
Zn 7.675637839688622 10.46164438261625 5.190133898959341
Zn 7.2727855797104874 5.266838927362226 6.98104733547527
Zn 8.740020776657186 10.153097735656388 7.725178171591565
Zn 4.47338531426487 2.017357597026826 6.117959738760642
Zn 5.446025322827547 4.570891225751432 5.247011803566019
Zn 4.801611612753717 2.1665335897242004 3.572418570696999
Zn 6.147416362243314 7.289166806961932 8.066357464108917
Zn 4.633916296336451 7.369697982387004 2.827448189756926
Zn 7.049976832906594 10.213607390534387 9.587470235238765
Zn 7.609022976763858 6.006314780736127 10.257278246485164
Zn 5.209825315514732 9.847635726231141 4.747376575698771
Zn 5.52698728319017 7.174786236372963 5.503798806670624
Zn 4.515589380011221 4.608349851762606 2.70537207853606
Zn 6.070103054891448 10.062392081243607 7.226660160045366
Zn 6.523858618751745 8.211012069528293 10.981331056265912
Zn 3.1234115962607762 4.795795211245907 9.527829416613434
Zn 2.4643801996183297 3.380138531454124 7.124700295794835
Zn 2.762425864735011 3.319242854364012 4.503409377938207
Zn 4.048246720977051 5.704584107658376 7.078497357428234
Zn 4.647769698284987 9.17501340385224 9.486208739911994
Zn 1.00130020986123 4.8120843110051945 5.62313821626498
Zn 3.0542508660931507 8.565745555626046 4.461176207138573
Zn 4.544078859812982 6.665214139172415 10.651964602666398
Zn 3.147741601741952 5.969759107911588 4.442862001815557
Zn 3.890869087441463 8.784964865150062 6.972606311981326
Zn 1.171465285534764 5.507373098008358 8.027770038519254
Zn 1.8264954000870823 7.286681705431463 6.33783862615811
Zn 2.8318434045942027 7.342997880379332 8.92315809994534
