53
Energy = -37.72061494 eV
Zn 6.564996598134148 0.6590878395631502 6.551768122395986
Zn 4.4745222361250345 1.2114961788090484 5.266881919454587
Zn 4.3859533273490126 0.9020546793540282 7.807329691165199
Zn 6.647917506453926 2.7319843337278633 4.701390558304933
Zn 8.363256771735369 2.443549712666256 6.799193682491978
Zn 6.5276887087325575 2.2681052379465947 8.685249967356834
Zn 8.634031750298606 3.9710511169100147 8.821957213111833
Zn 5.3661178514254475 3.998412858651668 6.839819092025878
Zn 10.142881714816518 4.383081369618362 6.770068884668254
Zn 8.371463805238113 3.765222591795121 2.863087910896647
Zn 9.710677667586562 2.8793887429857556 4.709422444484094
Zn 4.164702555108995 3.5080841955670423 4.238604400197769
Zn 2.9538469669138716 2.739227307577983 6.695277616514599
Zn 10.533180040829311 5.709460201075263 8.892122006737559
Zn 8.432515979060472 6.271810137127403 2.562446885481422
Zn 9.957197818603433 5.491441254625184 4.438901543855912
Zn 9.947547664274278 8.051300613902269 4.2629850241600575
Zn 4.029090824512722 2.9177049332349854 9.243348438777703
Zn 10.747523675354122 6.886615638901277 6.533254685938309
Zn 7.5303864431791245 5.117561962175783 5.833640970661293
Zn 6.2893365691361245 4.74339294417966 9.284231028017834
Zn 6.025626463007391 4.622301101007089 2.731433057139283
Zn 8.31555045833944 6.203913520763132 10.11721798033875
Zn 8.194402712133671 7.013230721950702 7.50477926999988
Zn 3.6994390402052404 5.744017787586585 3.0170361818792077
Zn 2.5511142276091268 5.00737165401194 5.51956087531727
Zn 4.029218061904419 5.128099170774812 10.444365100888366
Zn 5.09810223031835 6.14668891688033 5.253030107642865
Zn 10.322039697786089 8.192225657175614 8.988523984053469
Zn 6.076393726196683 7.180912142340276 2.6374411485953786
Zn 7.186513865009325 7.647405400248409 5.127210413121123
Zn 2.835258921623305 4.964992433549216 8.130565377300172
Zn 5.84708495650757 7.01220255597431 10.44089236474661
Zn 7.792698169027634 8.693014878001735 9.901850373425958
Zn 9.908799809489718 9.30962604596569 6.587667231192197
Zn 5.582833624399912 6.916245949642786 7.638295730935366
Zn 8.214487329432338 8.758056741126415 2.4680797620333608
Zn 2.227564045880822 7.382747313540032 4.514343785306915
Zn 7.039798644180167 9.30640698680316 7.154858149231923
Zn 3.453772299043988 7.350710719197415 9.37562729017255
Zn 3.9261586369539407 8.371600594720714 3.0554761517177074
Zn 2.600700213732876 7.17979337826522 6.9474938144022795
Zn 8.473135825155524 10.1696544248189 4.610603260264333
Zn 4.543152794879951 9.011567384886959 5.650555877201347
Zn 9.465278293971542 10.52980409397302 8.836097821906964
Zn 5.24356671409217 9.319431738226257 9.486746522673833
Zn 6.041981929575799 9.712122749710243 3.466123083983264
Zn 3.176918800388137 9.420275857307152 7.869544343349964
Zn 6.348706962257158 11.293453766327444 5.428355689841949
Zn 7.0576549975469804 11.151840061473795 9.181443524031744
Zn 8.698374489353792 11.647327040783924 6.714394325268375
Zn 4.906448560489869 11.112579288832672 7.546324022078772
Zn 6.676041244492109 12.946252336886607 7.389363321947601
