5
Energy = -0.65128454 eV
Zn 8.368977005644286 8.048804574622105 7.007562310473258
Zn 5.994886337818161 4.435261633173432 4.920581501430269
Zn 6.0080006907604835 6.573911049512198 6.729237925386321
Zn 6.019604772674399 9.217559233550496 5.783387797718038
Zn 4.323508810689372 2.4475732393686003 6.266967861130318
