51
Energy = -36.90745495 eV
Zn 10.532974349887384 5.314822902281503 5.718036309899824
Zn 9.936309797392049 7.859149830836359 5.964762825772985
Zn 10.71561035350927 6.37929322250914 8.036612799323496
Zn 9.563004182738352 8.606955150124803 8.475323791153306
Zn 9.510580415362377 9.309549929638065 3.7522448112000157
Zn 9.198293130137133 6.593099579497609 10.055402541372894
Zn 9.907243704877091 6.845865581722137 3.44261286902088
Zn 9.195414929121212 10.24125094742872 6.341583766156079
Zn 8.735901722873297 4.115752009307859 10.300636211004658
Zn 10.294087028747214 3.883322922478317 8.267458426890023
Zn 7.879672710919171 6.252673196170952 5.281436453645195
Zn 8.952997227619349 4.505477372614832 3.531281741919178
Zn 7.2105324104299235 8.809572506056758 5.084974595191928
Zn 7.340549104348941 9.814189120718012 2.491087825810936
Zn 7.885790308006355 10.515266693641731 8.554861730348032
Zn 7.256245292896593 8.436010559344828 9.9509999247142
Zn 7.23524075847327 7.738325633331401 7.391964264091843
Zn 8.247443444249637 11.518740207867953 4.2396034011610055
Zn 6.817642994888157 6.017033230569738 10.671028969235813
Zn 8.044742820987798 2.540291978483704 8.29574133634281
Zn 7.189825238356631 7.217907170234516 2.795063714015772
Zn 7.852362891642831 5.23124462259124 7.740993770744228
Zn 8.990778127844226 3.366936971676276 5.950487309984223
Zn 7.3693556572041405 1.3637042002017454 6.108664670772737
Zn 7.463860866988348 2.5520194487634833 3.8569349844408953
Zn 6.379203369697034 4.7226574646682415 3.0186227601680677
Zn 5.399813780422982 7.09698054142405 5.530684566295002
Zn 5.4154454633812135 5.946312259361315 7.95687529179573
Zn 5.449952030257913 9.729539012430182 8.215602014163217
Zn 4.978174694503018 8.945494704892596 3.156098712332768
Zn 6.299393243265526 4.380213806379678 5.760882362647183
Zn 5.7530825479461125 11.286933095857712 3.8429007159433737
Zn 5.480399984050626 2.516519289235133 7.4999552318158935
Zn 4.495358055011236 6.393706409153542 3.0185382364579922
Zn 6.700281759291121 11.145688919707135 6.331579002629963
Zn 4.59561544996423 9.793412286985165 5.700867802139703
Zn 6.199471408422777 3.748096659910356 9.635467043062153
Zn 5.200823135166624 1.9084080782887796 4.813152896469948
Zn 4.752507289344021 7.800874367162039 9.79338694031971
Zn 2.0181732055144552 5.859211748516183 3.763796074928894
Zn 4.367499955533185 5.356976162546815 10.581646407808115
Zn 3.8714210785053713 3.8944570588392895 3.7713348484166143
Zn 3.8579001370445454 5.250183803111384 6.073678816948317
Zn 3.6524063615651823 3.740363808614793 8.70770346522654
Zn 3.030738722863949 8.048169553656358 4.608951008491516
Zn 3.1858390218074777 2.7481168175552644 6.202756775012736
Zn 3.4992460083268764 8.251773248130256 7.449449491183359
Zn 1.1594500776253929 3.8654671914546763 4.924555432525972
Zn 2.667953194307595 6.247141197976638 8.816081104130696
Zn 1.4971140975947017 4.357618276497698 7.398089966004636
Zn 1.6874805982041585 6.71831991322045 6.330735270916947
