54
Energy = -38.53352907 eV
Zn 10.627268449929721 8.674097542074895 4.278748561500913
Zn 9.237562164158094 7.993072957014175 2.1778508765180407
Zn 5.632725972411326 9.904014330107024 3.6735201591014994
Zn 7.413251708579663 12.110145182466802 7.394507327713299
Zn 3.7517464509556566 8.1604171592511 3.3366292182069555
Zn 8.151382694277167 9.415585302499393 4.004022593008181
Zn 6.7228679759210195 9.914522191348837 6.080422393110598
Zn 9.147211955529071 8.776696944873246 6.418039678107396
Zn 10.871454858765238 6.343544860542578 3.2821418376176945
Zn 10.819815932594254 6.575277759107255 5.851132165658158
Zn 6.613730931618754 7.5611973246284485 2.7980261330350533
Zn 4.862602585994359 9.042553462643406 7.5849128231902165
Zn 8.205717856432615 6.845428563701121 4.888097223448438
Zn 1.7358823775544656 7.727002685404661 4.874909903441362
Zn 3.8870371974654905 5.406678562286231 5.111611768443442
Zn 2.2592122390426677 6.021624673114029 2.9823455118313733
Zn 8.42663750106429 5.567367546839226 2.393922556318535
Zn 3.7964704552994997 9.877525822586763 5.337392269486719
Zn 4.611389161261477 6.216036495127395 1.9520082421341405
Zn 7.4596188359097395 8.428106868810797 8.289369325783333
Zn 5.582505334946935 7.456362736587721 5.468478315954293
Zn 2.1029455496814 9.149476076084532 7.048479953415442
Zn 7.1817220971672135 5.968086224387585 7.076435558983515
Zn 9.629432608277668 4.530580845340718 4.54723569500676
Zn 2.982836830226751 8.213431141496462 9.260510770480558
Zn 6.315665248479454 4.3656843826945115 1.5990439056816166
Zn 6.365636557121276 5.216780255513979 4.288616075974285
Zn 9.796082943613452 4.645335262981081 7.164639359642136
Zn 9.571526247176472 6.962850512462947 8.135766797749495
Zn 3.7930143128440035 3.8027639321615583 2.074203462610998
Zn 7.812220993381997 3.088585310453081 3.298395276170497
Zn 7.849364774855585 3.271385303136396 5.849477383884469
Zn 6.207073535052815 5.352252954210297 9.514340587464464
Zn 5.613309437045828 8.01877860475428 9.880042562856753
Zn 4.388201344577248 6.423564260300016 7.544210040152191
Zn 5.014282026572408 3.1407266471417334 4.502966659799016
Zn 1.313219866804095 6.734731051708462 7.223732948268866
Zn 1.6068733942491384 3.5299591877433083 3.367783386874475
Zn 5.71222345741725 1.9097542885926524 2.2011615354667606
Zn 1.222570520225387 5.112015558222676 5.268652002620119
Zn 5.382259182602768 4.14214447632791 6.8566307350509055
Zn 7.873895701180444 3.6241244682947937 8.433044568385327
Zn 4.127478604840982 6.329303751967596 10.860280290456325
Zn 2.5816486713517337 2.6717144304928957 5.6063280372735775
Zn 3.1774276589088646 1.4905772819578331 3.281573376091649
Zn 2.535927345857299 4.395441097361816 7.436488702934666
Zn 6.833047382041002 1.0819098352341505 4.623123165323702
Zn 6.445249511169604 1.5770870253859437 7.196654930036119
Zn 2.0698845357570232 5.849134083651783 9.487290189165362
Zn 3.785400381864128 4.00331803773327 9.73002283902089
Zn 5.009909091140774 12.110145182466802 3.405006234150116
Zn 4.39552427149098 0.7435056382857762 5.728353118913249
Zn 5.8566237672973385 2.670672080031471 9.494927734222866
Zn 3.8472715204333507 2.1026909729337655 7.882924435708559
