53
Energy = -38.41140814 eV
Zn 1.4981926345659804 4.18866151013252 10.160013578222156
Zn 2.1864442300863542 2.6408542085134274 8.259390759834
Zn 0.630155166566833 4.645239506054057 7.758206957809574
Zn 4.069657861535074 4.027917371561483 10.413738385888912
Zn 0.9933353107277617 6.752303880772997 9.061559665336564
Zn 5.383109831197446 6.619053370619714 9.918817571884645
Zn 2.821711102257575 3.4356963560223566 5.88322714998064
Zn 5.515446558588272 2.220308595554864 5.769432042175443
Zn 3.4637839029545265 5.618328861575514 8.218678392431555
Zn 4.712186104004484 3.060203281248515 8.037867297447585
Zn 1.8961348203827404 5.9993538062374165 5.991338976957975
Zn 2.82401426252119 6.11105982819683 11.167446165215713
Zn 7.192273218870985 2.3687291021246315 7.831766588242344
Zn 2.708720148009225 8.340300638448984 10.050038284955606
Zn 6.526113468090505 4.292645195832687 9.425599674493673
Zn 8.152366637722245 2.24690340025764 5.547300045685915
Zn 2.6237201127423537 8.179260835656997 7.350009226253377
Zn 6.593671699783239 2.194815028637183 3.432600565935962
Zn 4.202914859751698 3.1230287325697055 3.6843233319618784
Zn 3.181415999627067 5.504750023433955 3.845134350655497
Zn 5.292187470862476 7.275004815256123 7.326443031446245
Zn 7.412357887156133 5.0146341438521596 6.7098144669796875
Zn 4.898845445776941 4.999307845940862 6.138924669789498
Zn 6.963163626468609 8.606852007740368 9.425816411914921
Zn 9.05897942073339 3.918124814366647 8.570780758719815
Zn 8.080813782998938 6.300203162313389 9.33307465001464
Zn 4.556569003104665 9.424091989682136 8.891296422583082
Zn 7.706874659580099 7.601889030429494 6.629865480954992
Zn 6.461593026971548 4.925608774224845 4.166822854915479
Zn 5.908874025333853 7.4348721054557325 4.755455151296844
Zn 6.491475048913233 10.286388064471186 7.515407053485161
Zn 4.757342654573327 4.994405704679636 1.9650939617251482
Zn 9.332765594634667 8.472555589932707 8.50803051505434
Zn 10.155867312009171 6.091800798755133 7.797026129479145
Zn 7.050628531093759 3.944036130574188 1.6067867494287438
Zn 10.02125290350667 3.9468729342098277 6.031517187484786
Zn 8.93151442243655 3.3664721162563005 3.437283949839685
Zn 4.4196439876451 7.4665318846105455 2.4665938998508494
Zn 3.078680153930672 7.9452036471396825 4.740320201487663
Zn 4.395922495308114 9.681303883376374 6.142273666534591
Zn 8.54851210315748 6.280547040327698 4.624208417473521
Zn 8.779718367514118 10.178750782661545 6.542537884589582
Zn 8.912835882652129 9.234327317919112 4.148685784810933
Zn 6.760883251540524 6.5892651668837114 1.7267865074829318
Zn 10.433579889377986 8.306956813994553 6.140872693439069
Zn 4.535319126806189 9.735626326084056 3.5980963437858007
Zn 11.468537561559751 6.091634375341705 5.657169779791007
Zn 9.169293827813584 5.5093477548820395 1.8831174164169167
Zn 10.919630225753746 4.889819199777071 3.5804674757650803
Zn 6.719905792492906 9.088100649605273 2.542948202062533
Zn 10.806476761209618 7.503137560433797 3.5573743007060097
Zn 6.679903412731851 10.283600510102165 4.9286766865879255
Zn 8.933652531828558 7.990299404631123 1.9271389480032908
