50
Energy = -35.5595134 eV
Zn 7.931633575664496 8.466425262713065 3.108951997204846
Zn 8.430313245002946 6.094450120387054 2.198536988720164
Zn 9.39998243189277 9.709488162787219 5.093181279842489
Zn 10.060665590118953 7.056909397915163 3.904078320008576
Zn 10.912836975340964 8.011753760902923 6.065273407159889
Zn 6.036414927074756 6.937660080916491 2.0619631237654805
Zn 7.233079583828754 3.8883316018375824 2.2916664680007965
Zn 6.5821320295655426 5.6290332341129625 4.289793610534999
Zn 9.483308278173208 4.440893825306324 3.8186847535867328
Zn 7.188793145617943 10.551497863655472 4.401255365416124
Zn 10.045329138054765 3.013708878249259 5.891537215487778
Zn 9.551342185058944 9.398346604591861 7.743059626218711
Zn 10.798562249977051 5.492536967768041 6.002005615189846
Zn 10.424899576988915 6.926409358093776 8.250385934615505
Zn 4.287448462255656 4.956648201183886 3.098276198349558
Zn 3.7544195788541486 7.418533763241504 2.993639448172303
Zn 5.356081226109999 9.266685579029136 3.372649712487668
Zn 8.053064241843192 4.821428251393554 6.14265649766361
Zn 8.006558777385939 7.393584539897319 5.718767813395349
Zn 5.521496896839013 2.876320308399157 3.8088739594290466
Zn 7.861639276205409 2.524330613256574 4.665432813440414
Zn 5.094081181865158 10.548364159859362 5.7997560968092055
Zn 5.329190221814591 7.478985641390045 5.578985568392938
Zn 8.123418875431609 2.416403258547227 7.503878907209169
Zn 7.637365058097749 11.118353318748149 6.819978308757059
Zn 6.698078827003659 8.697711818360569 7.4429914575916865
Zn 3.60428495221353 3.713568664741074 5.326712407958141
Zn 9.94703865339002 4.265931718412614 8.213216479505114
Zn 3.1445424321843043 8.906849133634907 5.022720786579858
Zn 5.691653523117987 2.299619068816771 6.275423944925173
Zn 7.4539304522718375 6.25995952954533 8.13558236325927
Zn 5.300048945509206 10.764869188180143 8.55515283627539
Zn 2.7363955849103316 6.229910846511691 4.917754649601146
Zn 7.720265412925229 10.50905695234675 9.254630157564215
Zn 5.5315386761165914 5.065715088957821 6.7013227130312565
Zn 3.2348514292251784 9.949982956273907 7.404674734988697
Zn 8.667194464578625 8.214703114918677 9.894624535199867
Zn 2.3331433289079406 7.6109502701282 7.2080225258399615
Zn 9.35604852420494 5.79053647898375 10.202043683192477
Zn 4.923821992142536 7.054746929895935 8.166147743975099
Zn 7.7668903931126785 3.9171694544046396 9.782790733885134
Zn 2.2850858349595304 5.087174362225636 7.05411800156806
Zn 3.7903489890677338 3.442108079017452 8.103934593387244
Zn 5.970023721553678 2.535861847121367 8.777309916679494
Zn 6.038363003510515 8.795680765420002 10.18806898513418
Zn 3.358539148575069 8.775909084297796 9.604302500403918
Zn 6.9501262002276505 6.357141241296189 10.880582506943185
Zn 2.8607717265113437 5.873723410481391 9.370950704345466
Zn 5.181167837400535 4.610780644698463 10.062492239677029
Zn 4.467851030336048 6.949318410164861 10.947221581648934
