5
Energy = -0.82407849 eV
Zn 6.616823063258304 6.616823063258304 6.616823063258304
Zn 6.616823063258304 8.032886763029852 8.942396000000002
Zn 5.200759363486756 6.616823063258304 4.291250126516608
Zn 8.032886763029852 6.616823063258304 4.291250126516608
Zn 6.616823063258304 5.200759363486756 8.942396000000002
