50
Energy = -36.67255201 eV
Zn 4.6430208875969665 9.530359726778721 10.960131217852005
Zn 4.051010393629492 4.252767300089152 2.032383232730118
Zn 7.321814397823297 9.880099804551538 7.410134245602397
Zn 5.53094437381416 6.467237664421366 1.6633069316411682
Zn 4.1354714215643185 6.986038090751181 11.792470837410603
Zn 5.121182919403098 9.058522747033265 8.472785380153713
Zn 7.409894798838272 9.779739608394545 4.801522554445636
Zn 6.5453471282919615 4.560391715395225 6.877929211238734
Zn 8.051768164261983 6.409083649497213 1.983515870457534
Zn 3.203895852745723 6.62132528327518 2.83911220929498
Zn 5.156420294590744 4.706378239312976 4.589724325111708
Zn 10.24952308761318 6.5719252125838645 5.66303897546524
Zn 6.962998805077658 8.727787170916931 2.302950178349918
Zn 2.2719380286542585 4.432782144022254 3.8013894799157697
Zn 5.8679115629507805 3.790786823755821 9.424876765585223
Zn 9.615254094597917 7.234389075312304 8.051023106732824
Zn 3.4987892013032065 2.465840691292236 4.862121381274962
Zn 7.139705518929361 7.176617424823545 6.649229474118238
Zn 7.583801042518195 8.17075357319115 9.327457511566232
Zn 5.251067419496246 10.290386323085903 3.55971057724129
Zn 9.383295413615313 8.961914634302804 6.207481483556533
Zn 7.770215851561129 2.574909370553621 3.8747391535539935
Zn 5.072871799651686 9.684233026673777 6.02990392490297
Zn 2.4174274620026623 4.2406839112655845 6.3762449851190866
Zn 3.2885809038029157 7.39164191616006 9.418745535280802
Zn 8.372073517793403 3.101437681009459 8.816401747794902
Zn 9.541986648059614 4.715485353946007 7.244584196189575
Zn 6.493583132689694 1.6700062476255797 7.985783673210924
Zn 5.957863224273506 1.8155835924695463 5.500661558770448
Zn 7.677013715838356 5.519418408375857 4.676690637249703
Zn 4.348999841820118 8.71986090751583 1.8502167993099659
Zn 6.621283160262217 7.927686291710919 11.697378250052818
Zn 2.1281762897167393 6.649210528146727 5.15774331389306
Zn 9.171824489514439 4.033856819448168 2.372254785228234
Zn 9.974798829982658 3.9705113514671444 4.847306290446834
Zn 3.531569741017261 4.786233819979607 8.737811386248326
Zn 3.2578611803588475 8.79864499417591 4.349622120829562
Zn 5.273931749332907 2.238620934442417 3.0635251904193086
Zn 6.640092020707776 4.22036308091851 2.133349329496194
Zn 6.043009101603134 5.254327971006709 11.530784521912835
Zn 4.315148296028262 2.7963591847731615 7.345117554123898
Zn 4.541766863490082 6.327726334111858 6.529550666528167
Zn 8.97005543412316 8.053313363241758 3.8180771614640037
Zn 8.45741746284507 2.4235464193976055 6.301536630576899
Zn 2.958275899617666 8.581948008126991 6.965943856578892
Zn 10.39246449641429 6.056585650892463 3.180605586337547
Zn 5.627054637655104 6.42488476689225 8.952315236297464
Zn 1.772098641955547 6.3827125917285406 7.665356652876734
Zn 8.029482791982783 5.584897390286161 9.254852018190151
Zn 5.718745364348162 7.340910536634186 4.411329643137234
