50
Energy = -35.16159718 eV
Zn 6.664260357879239 8.127775845967545 0.05921864603657086
Zn 4.479014458760003 7.154890945097685 0.7378122091629746
Zn 6.480221593000758 5.571992956130147 0.9549099810222843
Zn 8.605775690990004 4.655255507630382 2.0657119662463135
Zn 3.87954969658157 4.929722435898283 1.8671147105632357
Zn 7.385302586655584 9.498126436322217 1.983826487769931
Zn 8.590843903499682 7.245603588852104 1.572156508366817
Zn 5.949397539274043 3.665572595046065 2.6828771196814305
Zn 2.9543021683880273 7.2982456440807555 2.8127642293648445
Zn 4.768913500593622 9.175253040768089 2.3511065723755666
Zn 6.438333367334398 7.139297498612757 3.163901077827548
Zn 9.918875592066676 3.9019058166018445 4.132461457558854
Zn 8.096740523275344 2.4193027554124242 3.349543052026676
Zn 2.043947007220554 5.00119208245673 3.6148864634079465
Zn 3.78239134049152 3.167162140845736 4.0114612379154755
Zn 8.597816438867612 8.958505534989367 4.250913543868565
Zn 7.230328695534946 5.126690397987121 4.698694050588145
Zn 4.624914564592528 5.868721250892534 4.410405966498434
Zn 6.187773946938263 10.053473287522507 4.327823315133847
Zn 9.40040500590002 6.517153509345378 4.038302534832254
Zn 6.05056893291444 1.9500919595513615 4.749001463688716
Zn 3.8650483988453064 8.844544141513401 4.811760032686494
Zn 8.24291005418665 2.770143474968367 6.0047759391018145
Zn 6.209968771204907 7.6590132634743515 5.629631992693295
Zn 2.078546371310706 6.925450302253181 5.34788417569623
Zn 2.455269513534261 4.3514542072234805 6.065634003427734
Zn 9.535086822962592 5.059372639059075 6.3220368807652845
Zn 9.08897964488915 7.63398689721128 6.429557574807466
Zn 3.8506840206961552 2.112575321556271 6.623089643252809
Zn 2.681077621192749 8.75903218324875 7.009832557855885
Zn 7.535423314139032 9.799275940036253 6.515478380914796
Zn 5.356726557488892 4.113695424500522 6.091005082051298
Zn 7.019347754684931 5.851601035872807 7.256617752094329
Zn 4.386073296554407 6.4620870952359795 6.987129430336979
Zn 1.9725553501667545 6.164426420610001 7.926654640222766
Zn 6.412650951395646 1.9575164730727066 7.611478858613006
Zn 2.6062034029972696 3.645801576298655 8.504751143965219
Zn 8.23847270890098 3.6435229890547394 8.388637711873615
Zn 4.25527421731007 1.650303740543542 9.084568605936212
Zn 5.160891622055164 9.027680735592966 7.791617235061444
Zn 9.309772568849132 6.193082505973656 8.591408971635538
Zn 5.133300500015716 4.602778928193875 8.597797862774993
Zn 7.597187501714115 8.265543946912604 8.533393838707696
Zn 3.2179822931717132 7.9895206963946555 9.30456395109286
Zn 6.309657532857719 2.7992433552890925 10.163317210238953
Zn 7.513859892874273 5.41098401693215 10.20158927683269
Zn 3.1693770897127935 5.679367828608644 10.317676938953644
Zn 5.598694545574176 7.1425257935403605 9.702344334483561
Zn 3.7334191187108465 3.2029218411845988 10.936272539659988
Zn 5.418422174020528 4.939152518407368 11.497141363100779
