54
Energy = -36.781094 eV
Zn 8.228971824352667 10.277691644906188 3.3013836149144518
Zn 10.808375934870238 6.86968388108473 6.810048926228032
Zn 5.542825824240098 9.784259049692885 3.1246997971196575
Zn 10.484597343942736 9.44601045007849 7.143071796778322
Zn 4.661997782908504 3.871787050152037 6.391328030796758
Zn 10.919688902229918 10.230962276553022 9.596935508086482
Zn 5.703175322945962 4.637988460910321 4.038078531643625
Zn 2.411384989805306 7.722193141472688 6.785419014607268
Zn 7.478085098256146 9.727393230046138 7.158717608145298
Zn 3.7827383504237098 6.033004401920626 5.114110336228326
Zn 2.82343102629935 5.303952718760165 7.345968648588522
Zn 4.195533075823886 8.624302977789485 10.88422414733177
Zn 8.985089588644506 8.521940505782883 12.465263842061216
Zn 9.445265242079817 7.93056484380092 2.552970434483518
Zn 9.31647877193964 11.633487829855186 8.071306854074184
Zn 4.046646295687083 11.180071416966792 4.615786032351008
Zn 10.97233235250907 6.412757128843871 11.307085838600434
Zn 3.387161339698663 6.876347417644233 9.245082189759247
Zn 8.942025605132786 3.834341714422021 6.117797302043012
Zn 9.996505607221525 7.710594879756422 9.034036924283827
Zn 8.2957916884037 6.6920905668337465 10.681038582855502
Zn 6.57949764357714 9.052693477746383 11.532364335202008
Zn 9.933566707764111 4.238965617050503 3.5468685198625
Zn 6.940571356191224 3.5609170621669866 7.859736168036737
Zn 7.339141532342312 8.253924553319845 5.0442335342694395
Zn 6.617575462240692 7.3291021076117655 13.356350985844582
Zn 9.08978851899146 11.240995485779253 5.59544300009073
Zn 7.015316364280942 7.358577034497968 8.575026214797404
Zn 6.731633804129795 2.713514151475006 5.50218777254809
Zn 4.846979291928534 4.780707056452481 8.881898206569998
Zn 3.774335292951701 8.592925837743051 4.678270423194332
Zn 9.389374607166875 6.502424831368654 4.7422795451185875
Zn 11.502185071923607 4.557952188465658 7.95426784673889
Zn 6.5986446941806385 11.282569220613802 5.042302227482006
Zn 7.738672610358938 3.1959916208218537 3.2942501138643174
Zn 2.441047525823168 10.189803025758017 6.2965293721977424
Zn 11.3379428160097 8.957140673712027 11.712850445626607
Zn 6.9359485648057175 4.960702995037997 12.733409191483217
Zn 10.081209920751556 9.012514793882952 4.735146482166256
Zn 4.926511766853149 10.794245058722213 7.001726904766234
Zn 11.035546045721054 4.023546306843883 10.285735848415742
Zn 7.088108622395832 8.31421397219345 1.8503914742833831
Zn 7.086424492153065 4.409509927978754 10.173930022721228
Zn 8.32664480049876 9.651309782449447 9.677218648531484
Zn 8.965650564090732 5.281875103838614 8.434127265152217
Zn 5.266046416057096 7.785641518812763 6.787112962261521
Zn 5.442594063915602 7.109888876617096 3.407600417546601
Zn 7.3212785251898485 6.022710858588391 6.3129858738296285
Zn 11.401059850862927 4.704670099553158 5.509450910514504
Zn 5.443229739487916 6.366457053707145 10.966966056204035
Zn 7.725868717599393 5.8779711422077625 2.8044127454577295
Zn 9.124819990293496 4.073978081761677 11.841412304774558
Zn 5.7951006799486215 9.944669215549759 9.240925474388405
Zn 3.30854897719537 9.44014007165693 8.57434094796245
