54
Energy = -35.12685928 eV
Zn 11.590522197755142 5.888218669557673 5.292369159571966
Zn 11.41528717496407 5.391546713915301 0.9779886741192215
Zn 7.228970272997831 3.134850174323 4.12628673707071
Zn 1.7957121549870634 11.258561444279794 7.919795207684125
Zn 7.168720538404537 8.457920083458431 7.125988419502326
Zn 8.047839490977113 10.320028569623377 8.868644698812
Zn 3.9996461505962553 8.834727615206283 6.124928647470015
Zn 6.423398751091535 12.240602753723158 7.65091264423543
Zn 7.288851438570447 3.732794332464164 1.5860931895712334
Zn 7.055476728498676 8.629403232973116 10.57025538098282
Zn 4.255825122141904 6.320033584056311 3.4884486912449857
Zn 4.746901154725144 4.818647439138419 9.93889054015817
Zn 8.26221785665184 9.66146529768645 5.01635383985962
Zn 2.7863523481639634 5.992907728659277 5.479130266034559
Zn 9.740979795654669 5.293593859230772 9.24332333228712
Zn 3.1198467575022937 6.861842356611213 7.767336384146352
Zn 4.439307134706032 4.567461260475936 7.431992067747148
Zn 10.431841782970407 4.380340306267755 6.944444302477092
Zn 2.7913401657481005 8.640218590465638 3.8996121792741527
Zn 6.689723041756814 5.694294851107787 3.842772754783602
Zn 8.614995967398736 5.848195123727008 2.0786196601715927
Zn 5.533455914241245 6.629189588797715 11.655394677011666
Zn 3.1442642693495 4.748661632966063 1.6216626222146944
Zn 8.595481770398505 7.344656122266501 4.190034316739966
Zn 8.634276004583509 3.4674818830463 10.765681707839438
Zn 5.611334358786317 10.50234132271089 9.43358205805084
Zn 10.778260177171598 8.374922451299344 5.157116472915683
Zn 9.444851252246256 4.542223560608849 4.3704974058571375
Zn 6.006039530608046 10.696545170610769 5.541844097577405
Zn 10.838875198066626 6.71103906084427 3.045854053169379
Zn 8.542798710011908 11.557047093406698 6.606229871727962
Zn 4.245500975080106 11.160027435141544 7.287364759842485
Zn 6.603961624698412 3.142925978031602 6.709812520337234
Zn 2.219217828436657 7.10886660002267 1.9789259090109874
Zn 9.473244693852921 3.9641144069907495 0.1850008410853345
Zn 4.992136331128395 3.325596741006394 2.5563110553487465
Zn 7.931176902267916 6.219409265211237 10.784690240080584
Zn 8.194846940685709 5.968898493164929 6.439205645214962
Zn 4.2746032180634685 3.329503667456988 12.267195832719082
Zn 6.570846828761969 4.240785906812861 11.89432265088981
Zn 9.875248391946009 9.461927489780185 7.246454495055922
Zn 8.977923052942245 2.526405678155073 5.87049473010547
Zn 8.874423854165718 2.870505681122176 8.351553915027619
Zn 5.644506083490799 7.188452875922069 8.78163103908163
Zn 3.4377996184228903 9.14812866868861 8.77195069827918
Zn 5.999828874499111 8.295136338930352 4.293654143598766
Zn 5.5882329418993795 6.555721468935683 6.225286369300576
Zn 4.5669365330489535 8.907674527872137 11.113506797996004
Zn 7.040438942278408 4.911370663572695 8.580840979226476
Zn 2.3882796245315765 4.778776827496006 11.298984061756647
Zn 3.0919678213374797 7.019409570597251 10.354460852618729
Zn 4.8401152473489715 4.099790618719856 5.014121235682992
Zn 10.67139948601366 6.954395700104881 7.434867468748054
Zn 9.104635397801864 7.915997525275406 9.225778232539703
