53
Energy = -37.69381654 eV
Zn 5.544017180024366 3.146588632054586 2.634384639269237
Zn 7.59892594469203 4.722530870944723 2.6811711411892176
Zn 9.299387895646188 6.536587013437598 3.3757823247675685
Zn 7.004377215156556 7.335131088431214 2.6370713850547074
Zn 9.198596169741203 4.357692967260185 4.839260672973191
Zn 7.207361936190136 2.7801745257609576 4.580295644558063
Zn 5.12587764691931 5.658019609724621 2.5302907755689676
Zn 4.4612745788024135 8.160186897955876 2.5827912973576144
Zn 2.9910206641782744 3.4814822062383066 3.1135595370405262
Zn 10.99598123097931 8.454695006142668 4.185137313342713
Zn 8.439925400937772 3.0859564724709787 6.969989042595474
Zn 2.7251602663778667 6.311189558469319 3.2436449110699925
Zn 8.782918120926134 9.294178499140369 3.349758682254945
Zn 4.427349871361004 2.142298231983219 4.685048394133208
Zn 10.65738723549125 6.318153554452587 5.595709034284898
Zn 6.65210829996218 5.45751796593389 5.047055173086058
Zn 1.3773620291715227 4.598277253680744 4.7104168149903956
Zn 6.373739874798846 9.815466313280963 2.774793868889514
Zn 5.136648467842518 7.5901823526515875 5.397709321426141
Zn 10.509759009203611 4.64808236407546 7.589985079862591
Zn 6.00957680981553 2.2516908508335707 6.744503774005061
Zn 12.048046375904214 8.813920747043413 6.510719280472451
Zn 1.7876720093628937 2.150115345072114 5.421774569975612
Zn 2.4861881384482447 8.78664838158637 4.054652245566
Zn 4.131470898952614 5.1674878913363855 5.1682011579585705
Zn 7.806715282673744 7.81082709346042 5.386776913102948
Zn 4.583338214085396 10.187676696609433 4.541024327770421
Zn 3.709016385777528 3.3336228197370055 6.8598904259216855
Zn 8.122022091391667 5.823965709914942 7.1239582812288775
Zn 2.024727875297175 6.957195211486485 5.757307596255896
Zn 2.3614351048572098 1.1647960212376194 7.789211846379064
Zn 7.208503241042687 10.534696195237627 5.078932506228771
Zn 11.940251997709323 6.823565452225111 7.964771147880175
Zn 6.9864649088309045 2.4100688828160295 9.058247637962921
Zn 1.7119358056094731 4.845684359855907 7.22212845836169
Zn 5.615166291490806 5.149978997870518 7.4644614436064
Zn 3.1163616538398067 9.131910927229136 6.5944066984789975
Zn 8.664717694332271 4.162544222189451 9.508657760910193
Zn 9.809420737227555 10.114589344241429 5.741846515481071
Zn 4.456545015310803 2.1528432272005738 9.059380722549173
Zn 2.870050211013281 7.015995743906973 8.212479995450234
Zn 5.768568894368065 4.330936347777023 10.177911248171052
Zn 9.530801242408872 8.10015701534138 7.464188329096168
Zn 6.357447718650256 7.672943218992325 7.73626923333795
Zn 3.3987540783482295 4.651495955693577 9.176420598449496
Zn 9.80321324284607 6.403880262702486 9.420071305051502
Zn 5.420181021815245 10.15977007385191 6.970711289853703
Zn 4.889739422890063 6.775938194711066 9.874765858245276
Zn 4.144280856624353 9.056461073087123 8.969172299942132
Zn 7.974522806680952 10.129075096368958 7.584503384396327
Zn 7.333512962612124 6.333841175508367 10.268357589091535
Zn 8.29205882244206 8.584891887974512 9.673935986424812
Zn 6.295093820770164 10.110390122863958 9.604860708238343
