52
Energy = -36.46293322 eV
Zn 6.198973091061985 6.099930849897345 0.7867539059603936
Zn 4.475240556570381 4.3641267483261235 1.3750189201168261
Zn 3.845114413696592 6.816886902721401 1.76670251331284
Zn 8.139310022817838 6.44820286445629 2.394624547964079
Zn 6.482790493034224 8.354922057384822 2.0554342076397325
Zn 6.978816140026372 3.826979380272606 1.9337137045371766
Zn 4.591169899739773 2.7443516433622386 3.2952929240229345
Zn 4.203642482955734 9.127468907176432 2.72662109334184
Zn 9.941899864502348 6.751081278391803 4.124513982037676
Zn 5.740360378191017 5.726283733532208 3.6338719554702426
Zn 2.9750944214952857 4.924212157009384 3.5083997246349274
Zn 2.7473509482658183 7.523990975025323 4.122283599350143
Zn 8.201758789123401 8.598324661445378 4.143980803498829
Zn 8.73585802288503 4.3466361326789045 3.83027080461314
Zn 7.29288834378305 2.1707083607337663 3.8666387106008173
Zn 6.151461654199432 10.286109351567783 4.0240544626506445
Zn 5.626634417617723 3.9064833988685463 5.393925450052638
Zn 5.374847424002861 1.3283363694211363 5.505777940186385
Zn 2.9889140681316544 3.2030983659795726 5.4191698693240555
Zn 5.667218725161869 7.851681764672784 4.92034302351658
Zn 1.4991816338700767 5.746571478542609 5.626696971542037
Zn 7.852799191276122 0.4580607365389095 5.6725171752121275
Zn 3.420870076633548 10.06233356258651 4.918785882564482
Zn 9.44186057848682 7.631584820429698 6.537564328177644
Zn 7.471178778224371 6.094151272615137 5.647047879055268
Zn 10.36933105826538 5.047395974759555 5.879180169286044
Zn 3.6765848541697435 8.34315973940745 6.760769983068664
Zn 9.690707869736077 2.2418328818521114 5.268975259615161
Zn 7.605498271911744 9.460778093147757 6.582699206961922
Zn 5.3123287844660725 10.604366027431645 6.5387762956097895
Zn 4.134068828601338 5.882483014446616 5.983527675147442
Zn 2.539009495719928 4.339928133867199 7.66823889817321
Zn 1.5212522471382512 10.594027408409325 7.00524033486945
Zn 7.928259195490794 3.683327232586189 6.474185536140533
Zn 5.9776673866415795 7.403795963380493 7.410282838389208
Zn 1.0617172828866306 8.289581259623883 6.095586519485392
Zn 5.985481621540424 4.92661048787761 7.678263651117951
Zn 6.772670172406214 1.590076078579335 7.806568041577507
Zn 3.5424909928732737 10.72526429929185 8.467470896025894
Zn 10.495221686839255 3.2149356015662547 7.637931913403175
Zn 9.351110646918018 0.9957780935531244 7.599533924560439
Zn 9.205229636899183 5.538319323293984 8.164079057781475
Zn 4.36969117673886 2.619155226962419 7.596316806504316
Zn 2.028868632316398 6.789427129542132 8.054864489549418
Zn 5.990622428755107 9.694814302921653 8.857723836140323
Zn 8.15746063409329 7.82453952154895 8.76075570366617
Zn 3.686679940486701 8.293818470471368 9.442177111782414
Zn 8.523467432183695 3.123156911518333 9.23520620257486
Zn 4.132208662832241 5.6588722226952735 9.341817848756804
Zn 5.972756666938943 3.2301162693395256 9.633388481039706
Zn 7.381514686898579 5.42205614960011 9.974511449646219
Zn 5.949742244211395 7.476743362401939 10.258800443455499
