55
Energy = -39.6077766 eV
Zn 4.504502654247014 4.282314257579735 2.4703251574275393
Zn 8.758667395614118 3.2714571581609704 5.7483628894152385
Zn 6.413520925828377 2.9657646057631974 6.630300610508719
Zn 5.6849161185036845 6.355185972411897 4.684220330631667
Zn 4.141811059906545 8.537194364740085 3.894359132094159
Zn 6.321560467677218 8.3988039675859 2.486841463366802
Zn 4.48234331844319 6.720144078415148 1.9357847373276882
Zn 2.3494336817792614 7.125035136500325 8.482674135674948
Zn 8.269222776135667 5.482574546839929 8.293024332508688
Zn 7.337216661808767 8.402610304923227 5.2978030383430825
Zn 9.594807177811353 7.4153780602970505 6.9300131086237045
Zn 8.154576406091676 2.697581292759935 8.652152941410685
Zn 3.083041251121196 6.079937773833255 4.0205650549093725
Zn 5.361799897700924 5.252803868506425 11.07990560735651
Zn 3.567181205639741 4.933486064032388 9.179093376647883
Zn 12.32499076722286 7.03730464625791 6.438611285027226
Zn 9.365619925303587 10.081801497552856 7.17068426784749
Zn 10.732266736113436 6.951074066522117 4.460704316858926
Zn 5.095480333675467 7.918390888305755 6.61813647555881
Zn 2.548450965865753 9.617651988331641 7.885092026676429
Zn 4.261184485851182 3.7916332313004033 4.9412880134471955
Zn 7.578275329008984 10.556339167030735 9.014930711894491
Zn 6.857706194971107 5.705444645286395 2.3477242313282844
Zn 11.299796473121564 5.487696644621684 8.39229430430835
Zn 10.093353986044477 9.372365304517585 4.634067716673282
Zn 12.037268668955063 9.588507493992722 6.446338547382282
Zn 5.924633231699169 10.530508684008542 4.116238132508585
Zn 7.2849126528597425 7.939160847462913 7.922511505197277
Zn 5.110197830125941 7.235858672286723 9.091352104540196
Zn 9.78428607302314 6.240264353175536 10.33449784229704
Zn 10.4660051928296 3.1368253222069717 7.690222445050584
Zn 3.183753745554205 5.563379763589694 6.592254658973563
Zn 4.85864858106472 7.64359512034451 11.948431215463563
Zn 3.2275743009232865 8.945439492640581 10.261531129637905
Zn 5.830751590383439 5.478015198584881 7.319018734123969
Zn 9.075669141978604 5.004262825599911 3.6672848676173135
Zn 2.5282276451759524 7.92963884744643 5.883846814587812
Zn 8.639214181825967 7.520486261362106 3.165646885302724
Zn 11.54204659864506 8.166628012678546 8.631117299061955
Zn 3.9280224892733107 3.176220994712848 7.426841740773539
Zn 10.13981339495677 3.675343472976259 10.126363318486506
Zn 5.778183195118325 3.5113207688975243 9.246387919234987
Zn 7.772224006083293 4.39007598956246 10.7129424299214
Zn 8.418873027196039 11.318746259688565 4.889714928063325
Zn 6.661306433161826 10.69372329615789 6.60318802723221
Zn 4.051462996737126 10.220374088980082 5.865867045375316
Zn 7.336567090979496 7.03753200303379 10.557308640893956
Zn 5.015324026361351 10.013555849488423 8.45554527910388
Zn 8.252817940780194 10.080692155307649 2.8116906654613723
Zn 6.217216141435371 9.394096827052746 10.738587665284289
Zn 6.713972035422378 3.8084968392131366 4.1211706439652005
Zn 10.71913529604893 4.91186893025211 5.858810889927034
Zn 7.887199692588199 5.923265681433433 5.842959308111738
Zn 9.233268796150396 8.64860908505647 9.564636134721507
Zn 2.833914713482543 6.467750237035532 11.0529508221366
