52
Energy = -37.51875224 eV
Zn 5.541590498644964 10.623561648150865 6.57855879707688
Zn 4.361877741960069 9.57124240655082 4.414851709478352
Zn 6.905979307747552 10.368037885581108 4.1619271611393405
Zn 6.040300198052896 8.236362388844912 2.774195470480731
Zn 2.2605091438491365 8.144917374078117 5.5777774572854755
Zn 1.3935114778977677 9.798088113714975 7.932091590022607
Zn 3.038495359064962 10.625354238226079 6.310663015047236
Zn 3.9557281102873634 10.242636110899435 8.80776796224593
Zn 3.6578932849756627 7.31571376243653 3.5142371848966127
Zn 8.043084353530979 10.266025396055257 6.847546546129294
Zn 8.61307353746487 8.384600576909959 3.08538836924046
Zn 6.179503038304 8.171312871904618 5.697987443618624
Zn 1.152258624173807 7.305247914262974 7.801737457298773
Zn 7.682968294334705 6.367877390445066 1.835634864189159
Zn 7.161179434540439 6.098690134454558 4.483422315671934
Zn 4.169707875273199 8.036512445511484 7.298022006285908
Zn 9.336587565611099 10.130031937172083 4.690018751794855
Zn 2.2500326115292952 5.58273880305187 6.313492568200634
Zn 5.265444093529347 5.578896387553331 2.4619161463875425
Zn 6.487823467529219 9.28776522026347 8.637016627856822
Zn 2.344672009446294 8.5502958941978 9.876790935249424
Zn 4.86390181121978 7.905075584722793 10.011933047361264
Zn 3.022194022939313 4.849300580266204 3.6099926039236845
Zn 8.530433810246794 7.309660625428843 6.3457117069485065
Zn 4.723517563986276 5.946776410814871 5.670636016442993
Zn 10.73803540118313 8.024622297526804 4.812638193467187
Zn 9.155061416245818 3.942358649288247 4.554232845162419
Zn 3.19500432481027 3.3325041713794996 5.612125377578657
Zn 6.194393954717562 6.582126586952564 7.756751673475809
Zn 3.17043635706402 6.195692319240977 8.981266283115668
Zn 9.774668300306631 6.087535166479015 3.3341573112664324
Zn 5.202679501123445 3.4290073437880455 3.9652821334234662
Zn 9.082013927184232 8.784131056114491 8.758454324832211
Zn 6.815513733771087 4.388840691374453 6.320342937630348
Zn 4.184195173622314 4.213877022788737 7.811904425550134
Zn 7.402902809212485 3.9583158310687874 2.715460069726573
Zn 7.3793820520957984 7.242061992798148 10.12271765979133
Zn 10.656504938320781 9.772303708359955 6.807879488425473
Zn 11.138601031690037 7.443586769475037 7.511643958525089
Zn 5.387479738902906 5.304770070669534 10.020674051297627
Zn 8.39679268665369 5.366549861132472 8.044723261327755
Zn 5.30887882766501 2.1409262619998466 6.391965880773468
Zn 10.723631331580762 5.5787357160933775 5.721815462150704
Zn 7.31823640688607 2.1402222528468378 4.586899871613722
Zn 9.884413692708145 6.643871723171787 9.892792378194647
Zn 6.26890619420024 3.132671007035814 8.885044561913837
Zn 9.779077697056266 3.3562903280720264 6.890337882634566
Zn 7.777189628797103 4.637813188757269 10.581614032236839
Zn 11.141020319530494 5.0303858550576575 8.266108826607846
Zn 7.760196533677658 1.731163674369208 7.067364873624297
Zn 8.82624080282489 2.6391830879778886 9.232517674522658
Zn 10.328501376980055 4.189837804178412 10.570556204268208
