5
Energy = -1.20923356 eV
Zn 8.161711999999998 8.852535000000039 9.493647999999975
Zn 8.583014999999971 8.983710000000064 7.289281999999989
Zn 6.2066460000000605 7.854368999999957 8.18233999999997
Zn 8.635264000000095 7.136271000000041 8.18233999999997
Zn 10.570227999999991 8.914009000000036 8.593284999999975
