53
Energy = -38.33308892 eV
Zn 9.238810515996391 3.726652766871479 3.8865046695413135
Zn 8.90589393133787 5.866403485664177 2.4063908278299744
Zn 6.788994075452601 6.185264248078795 0.7621368157473537
Zn 10.254247431357571 4.16381275014754 6.431874215885484
Zn 10.017830920825443 6.082176848610396 4.764741949458521
Zn 6.576043645167167 4.503328200855444 2.6256105967926557
Zn 8.285269720375965 8.180347842361822 1.2571025296620832
Zn 8.377882244526218 2.372953503289155 6.10131870511316
Zn 7.054984470397418 2.3786733120098305 3.8957614075174294
Zn 10.428500053144244 8.57944323956328 5.836069998966004
Zn 6.931455538758503 2.665691372566629 8.325414779451338
Zn 9.594681238517506 2.5392358644698576 8.375122379758373
Zn 9.294914836714774 8.287059414504567 3.5831448688057637
Zn 4.589848184752982 3.142441316940818 3.60662123391662
Zn 7.3048425026420105 4.854560450271047 5.382230061099206
Zn 5.606987606361469 2.569012667423947 6.053848497142908
Zn 10.51315007094633 6.584727437131989 7.4052746079071
Zn 10.822776187860415 4.596129510059534 9.148479405505551
Zn 4.435287727441415 6.32774548968675 2.4787639347985286
Zn 5.706307523037081 8.380455166137006 1.3217859330945652
Zn 6.792445589426551 6.9450416514020725 3.7928990699574943
Zn 8.198491190000786 5.334609677920605 7.794559503338015
Zn 7.971504313281712 7.274470130246635 6.058941478576647
Zn 5.711271225357309 5.231220286363528 7.437566436056805
Zn 8.279214244751715 9.931835796782455 5.583334045639767
Zn 7.07798177754146 9.632423428410497 3.2389211266009243
Zn 9.651512859924832 6.775874190608208 9.868920647642529
Zn 2.5581364327008496 4.816397641333343 3.595158029244426
Zn 5.799854463200101 4.350319078105218 9.984012452072351
Zn 9.153797661955872 8.819336599672784 8.135034087849071
Zn 3.12260549384761 3.450429817106836 5.798706273419204
Zn 4.598553354425206 8.86444734801444 3.562232333756767
Zn 5.461279929227084 7.761289759614253 5.95257043789869
Zn 5.753664573150051 10.446535778788471 5.427802452541304
Zn 4.859003127924371 5.445432707541614 4.951933147995437
Zn 8.388165396930852 4.09979041246438 10.079278866444051
Zn 4.221484694158766 3.078026777810387 8.184402096941016
Zn 6.707348568918431 7.482516497872376 8.29070230220276
Zn 2.8397945177120434 7.298928345143337 4.5942229421998935
Zn 3.5111762263914 6.347259739333138 7.001436204891495
Zn 7.201121630229892 6.368164169100343 10.625065795336427
Zn 8.370941413398524 8.834433371267645 10.73825319662696
Zn 1.256268929357288 5.458675641995713 5.685861626136271
Zn 3.362867702560803 9.7146069738026 5.693000727715397
Zn 6.84188478568262 10.129207202042991 7.769693512998535
Zn 4.372089837303835 9.03973980134985 8.075056885154002
Zn 1.789548491632557 4.206832377487526 7.890020081866008
Zn 6.095422676134359 9.692286107592823 10.27811332675084
Zn 3.4843455043463907 5.2272282569056125 9.457586009061691
Zn 1.6621354865963591 8.273547469287704 6.860102000577455
Zn 4.8313029745118525 7.2632267674415525 10.133472887475943
Zn 2.3758348447805586 7.577201478557166 9.253234482332836
Zn 0.48117813476173665 6.355173759908043 8.063120939210872
