52
Energy = -36.09266732 eV
Zn 9.714008954157402 8.200876387953494 7.144574602165292
Zn 8.784771083994649 9.851395397399518 9.03368315885451
Zn 9.898775464401183 5.6500914037381325 7.084541766180573
Zn 8.762446126678014 7.239984420500422 9.44568295793129
Zn 8.808839099324965 10.640298303864133 6.670764105844776
Zn 9.854081235469549 9.34889750756211 4.695612638928445
Zn 9.457548989638859 4.618063242193297 9.364788692776738
Zn 6.421672809718725 10.48604115941532 7.899098396264872
Zn 6.9275776569881415 7.858039173482241 7.6283026308524216
Zn 7.508191026028161 6.314011057835221 5.43664236842248
Zn 6.695251019205806 8.97510106671812 10.114924700126943
Zn 8.861589432623326 11.66762884988557 4.224358291844563
Zn 9.972768776619288 6.799874977462439 4.724438709530185
Zn 6.505832661142575 11.545698459711234 5.503275012677109
Zn 8.802027245204656 3.1754913987546165 7.278887990394662
Zn 8.111835379900935 8.130407436781871 3.1117799707648772
Zn 7.3474128865940695 5.43519426453748 10.58150594721783
Zn 7.130378251061472 8.981523924250489 5.382916534875738
Zn 4.418900174510212 8.880889496297767 8.708600521912324
Zn 7.384667482181539 2.9263973175388966 9.58449700576291
Zn 5.465665074694719 8.609306723690597 3.2313709848433665
Zn 9.451921495710295 4.193750963128221 4.961667867953533
Zn 7.133453276922815 5.400790454448654 7.80659264935166
Zn 6.924605438216673 10.728197202132522 2.9973048241696487
Zn 8.394504225576446 5.5690150887267915 2.9134079268794717
Zn 5.186258321834898 7.334927744258471 5.677591346102419
Zn 6.7888262222704086 3.7832285613008283 5.612422168156785
Zn 6.384561021110843 6.676441511459809 1.5326760207896428
Zn 4.631646448158782 6.336567029115373 8.14977073515579
Zn 5.06226071712999 1.5862004754089911 10.333179091407189
Zn 6.696664378048492 1.6132840519463918 7.397146943783206
Zn 5.278615413405507 6.913416977426678 10.588551857231467
Zn 4.423937697596506 9.780944356870586 6.197312840787073
Zn 7.8021330740903885 3.0820973313486535 3.3271287488795767
Zn 6.767927781386685 4.144173199512415 1.2534410169373447
Zn 5.282794869502757 3.7923101187296866 8.03596446397982
Zn 5.212684877571433 4.098437568761223 10.792966541757833
Zn 3.8504911277124085 7.3557209044385665 1.7344878715726433
Zn 2.72057161723184 7.823900995504311 6.892753996106254
Zn 5.556843568789456 5.654061033348989 3.785211904938594
Zn 3.0860014346937814 7.932553921709651 4.211406471190391
Zn 4.478196235861793 4.916221440402003 5.942689639070792
Zn 3.109950459908869 3.234532794239869 9.37414844061869
Zn 2.236582709495456 5.354683627494974 7.932993183878117
Zn 4.671463020372804 2.0586436498366005 5.569845779926933
Zn 4.181695529691049 1.218157268911043 8.021777337046416
Zn 4.361556351099126 4.859470197381439 1.3738644843667742
Zn 5.195028105989386 3.0630494670870765 3.1766782067535373
Zn 2.464968544975444 5.5501964791775995 2.881501033785978
Zn 2.5157979189663524 3.051107469950155 6.785734273646475
Zn 2.023986215383137 5.792568918876402 5.4006565381244505
Zn 2.8985828827670117 3.447889791037075 4.213914613954217
