52
Energy = -37.3760436 eV
Zn 11.398701674729862 8.921665946160017 7.132557889116187
Zn 8.568505564080535 2.219083631154372 9.784735588113284
Zn 10.147165966688544 8.927270805402562 9.431705108325582
Zn 9.50383404579015 4.4267471208916875 8.862471569612207
Zn 8.934322064509699 6.637798804635043 10.205436601127511
Zn 10.492076245182867 6.690954362654172 8.032198194034496
Zn 8.69525799490027 2.516309399932179 7.117474279410287
Zn 6.034955397134421 2.263040076157259 10.35079726293356
Zn 7.58929502096552 4.427516398827247 10.74508969862594
Zn 6.267656000173361 6.595510875918416 10.381282277814492
Zn 10.527347706153208 11.12424963377967 7.769769452696925
Zn 9.660614271375804 4.802587623068558 6.2633235995072685
Zn 7.465413952976326 8.792281763038906 9.883903024941082
Zn 8.069249839024524 3.217260967646444 4.6762760461332915
Zn 10.062144526329964 7.317370073280332 5.522769317602654
Zn 8.5029171343593 8.804541036872156 7.236339510834611
Zn 9.98987189038047 10.131453086150723 5.360296312169657
Zn 6.862617841764324 4.156562494539118 8.17203751008677
Zn 6.81939929059147 1.1225538325564834 8.275003601200694
Zn 8.657296276956716 11.018660481329386 9.414415813549471
Zn 7.793060426137562 6.4426778932383 7.681128604796821
Zn 4.816562559041429 4.424610253065726 10.588360494969823
Zn 7.213012455464767 7.60344284134757 5.196259061295821
Zn 9.194439335496767 8.46070583602677 3.404036465077944
Zn 5.505127931479727 3.120927917078419 3.930683300204795
Zn 6.0119371778342785 2.3913465828076945 6.26323772312088
Zn 7.952350252870361 11.331051247777562 6.954007279916
Zn 6.52242532390956 5.165800980499413 5.6625332374987565
Zn 4.419670485964576 3.1949412311264322 8.227372692036244
Zn 8.705245384017598 5.689464296433241 3.9785976499162787
Zn 7.62106378066381 6.661398561825807 1.8679174750588066
Zn 5.1806498190485994 5.993704848141119 7.860487834117187
Zn 4.696123284333788 7.072997650005489 5.547289370251537
Zn 7.100021083038261 4.21034834193258 2.374314674969466
Zn 6.8811738347206735 8.920855842676257 2.4730152241174514
Zn 3.4955472645871426 6.417560527586311 9.96613876072517
Zn 5.985216268388568 8.440496173718792 7.451664461888209
Zn 7.474666547834627 10.206177502478923 4.6726834377214415
Zn 4.744287557490931 8.703232945475447 9.868236331413568
Zn 3.968986987912326 4.190276704795846 5.785077287222987
Zn 4.535224736213963 5.383613263078367 3.3403810487210093
Zn 6.117444045541646 10.897562645104333 8.959281437672239
Zn 5.55577592724064 5.437286840836166 0.6787704040408787
Zn 5.502638657159805 10.864892720532383 6.214356171637244
Zn 2.0848616581533186 6.358525132940456 5.664715372823175
Zn 2.608970226071424 5.1414858679089726 7.837488823576198
Zn 4.8085015616945626 7.532432578085641 1.9048004782847063
Zn 2.8438587224150527 7.523452023080218 3.4994031415061717
Zn 3.131095043431142 7.792786650221671 7.8169642093481135
Zn 5.025371575210127 9.284343856594283 4.083849148756383
Zn 3.226913980756176 9.401396022933552 5.828852117138448
Zn 3.8152424647794634 10.306871595410954 8.090827072684887
