51
Energy = -36.95151546 eV
Zn 4.984571268096705 9.538412048055973 5.397950328110082
Zn 7.122787769308956 4.553721982287718 5.425551416533986
Zn 3.4298131931973477 7.1979396904157715 8.624911230606202
Zn 5.3243627023792985 8.858138042748031 7.8599321928848935
Zn 5.134759218113526 8.506325274874886 3.0269967470031514
Zn 3.1167955065438115 10.795401892321273 2.4913297231829934
Zn 8.100881476610345 1.8124271710851192 4.68044824362651
Zn 5.521490638775751 1.658773889986388 4.569763953771849
Zn 6.007644534921566 3.754908938592669 7.696984757191057
Zn 2.560497217875565 4.7404626765068745 8.202627699878136
Zn 1.4771889029431788 4.460870049943702 5.765801349474351
Zn 3.458983069083876 4.904374375332446 1.1447696777985013
Zn 6.884506229194718 2.905923281460542 2.747399667698852
Zn 4.033936647571512 6.832588609898717 5.290668145475732
Zn 2.941171906212398 2.2213390229041603 4.703160613988306
Zn 7.144297395168313 5.174254810296649 9.808886938817025
Zn 9.196974941159485 3.8299998620587634 3.60948133424777
Zn 6.690401599204626 7.091867616021296 4.902576848943134
Zn 7.60435606210559 7.868426536827169 2.442498344964493
Zn 9.059568870772056 8.841499935480861 4.424948627113007
Zn 7.104304747710265 1.3857137489038054 6.970247524016854
Zn 5.292611008438175 5.1316730745999495 3.6818331172313425
Zn 9.334719255622895 6.3888638939105205 3.7416047670031354
Zn 2.5118311004298213 9.06657216988266 4.198704818157753
Zn 5.557895350779777 11.31511072538223 2.1703457116606812
Zn 3.92205552535853 2.590608326844888 9.095404164953443
Zn 1.5914603632579452 6.764007784048241 6.941014920456706
Zn 5.674382030432255 7.352087851789447 9.933031208480541
Zn 7.767648009461901 7.560143083916016 8.492372673538897
Zn 4.567561706945845 5.04919905245422 9.705530667059834
Zn 4.281539403271273 4.3088339997260965 5.891966766041936
Zn 2.4594218795442955 4.511422217403085 3.4565098428728693
Zn 6.008683565020367 2.896385544997392 10.684755517650768
Zn 7.396867001029441 9.214873082201917 6.42123095275629
Zn 7.094311712680486 10.188789683540021 3.8128220880079553
Zn 9.087952176759467 7.214817979160152 6.370177291598349
Zn 5.520629625174894 6.622884154651154 1.3747560125237155
Zn 5.764289385064402 6.241299435427931 7.136823735779704
Zn 9.186561518425536 2.885649765674669 6.739391190836105
Zn 8.828198227884268 5.1722818559254815 7.9444838295775595
Zn 2.2101762228779314 2.4524317956864166 7.147637060430628
Zn 4.287393874741573 2.7889172827078457 2.5943127026337995
Zn 1.3790513479102524 6.72486522907365 4.431472562112917
Zn 4.526710834351088 1.452594628926412 6.884566307506417
Zn 10.07135456257888 4.971887822299694 5.710980525390707
Zn 8.029993380412174 2.7332120891001535 9.09447787313475
Zn 7.7535599030423965 5.294796952031447 2.0043682114845196
Zn 5.788580638509751 4.099955064262932 0.7887132834823514
Zn 5.997930817267992 0.9185162787860193 9.2056493414514
Zn 2.884006170905238 8.94634420635375 6.760674793888025
Zn 3.121653368097391 7.005929376457748 2.59577656019586
