50
Energy = -35.43682747 eV
Zn 6.750098967892285 5.832981315875099 0.22136010015058644
Zn 8.230116658616497 7.744216312712404 0.7101691582369182
Zn 5.833030355258635 8.018208476616724 1.7720875205858098
Zn 6.7505768389537595 3.7713049359323 1.6917772641323097
Zn 4.823176764937683 5.553631673061323 1.8901323996054933
Zn 9.06317039885143 5.17663230781878 1.3074340993156726
Zn 2.8652322354306876 4.3842979513194695 3.0697788208852548
Zn 10.21142282168383 7.28633755417774 2.22340514625027
Zn 3.8097123345348964 9.276320713670044 3.017084170341962
Zn 7.39935217348176 6.180584432503882 3.2704499904521316
Zn 8.296629054544743 8.720050206253264 3.2121887659770874
Zn 2.9197233096117716 6.905728127713441 2.956234393664953
Zn 6.160640242468715 9.864113671577048 3.6511437661359007
Zn 8.583203900143715 3.797461535843347 3.682962634556426
Zn 5.5406743838887085 4.562507653092945 4.3742559068977345
Zn 10.625604096716417 5.287563875026087 3.6145930497759227
Zn 4.3717021412406964 2.4143023484035226 2.8656031929353745
Zn 3.1704251894302473 3.1127104217580954 5.2861975343189105
Zn 4.876371004606256 9.721401100482465 5.816850176419282
Zn 5.285292874890291 7.176524412381918 4.458310125242344
Zn 2.757727467571978 8.268454043579743 5.178289815990857
Zn 9.586141935898446 7.305225697203919 4.9472092178866784
Zn 6.774970822921353 2.051776939138283 3.540576588298869
Zn 2.519074973086226 4.255131202811178 7.749928206840256
Zn 7.280182721440913 5.948346115277482 5.812240279267072
Zn 3.1847007891950203 5.713713897351127 5.467827755413905
Zn 7.4060142651481575 8.71094739758214 5.764431358280077
Zn 9.169688623668016 6.889687638069867 7.477192607193621
Zn 5.385804315345409 7.309822782332982 7.063934249606172
Zn 9.772977049315514 4.845547364145628 5.970070761658671
Zn 3.89459368185868 2.100174012385303 7.591664128090106
Zn 7.525475756037459 3.215766942870092 5.980282419883946
Zn 5.394966055527378 1.8205435934064274 5.610328665593043
Zn 8.363760456891377 4.356917067044888 8.141730773842047
Zn 5.279619559974186 4.674621295867091 6.9440177202817885
Zn 5.346462138569097 9.66114379232735 8.57746082661686
Zn 3.1047362133388674 9.101719194704087 7.531468432424897
Zn 2.2522395036297014 6.72351113462089 7.772517011126479
Zn 7.6800326713894504 8.6953870076374 8.392380716344478
Zn 8.013086008250207 6.391805681264016 9.70504694403607
Zn 6.915442636848355 4.001521556834977 10.32910950667645
Zn 6.401509105453649 2.5140291349179296 8.25991005805386
Zn 4.37151588174291 3.4111719389421937 9.63034349864957
Zn 5.37644641199733 5.927242737516636 9.131055684179591
Zn 6.77765410252836 6.067210127948036 11.93232132807514
Zn 3.5926422626178107 8.00090719754206 9.741713479519658
Zn 2.913090629974797 5.514834067110421 10.186221948620732
Zn 4.731690815864057 4.479898378929263 11.883161286487761
Zn 6.2104154051392415 8.191324833824472 10.52302652633137
Zn 4.319657772524378 6.9332139815233536 11.940995769778404
