51
Energy = -36.21282999 eV
Zn 6.911247862164005 5.1490528735914864 3.2073377763488122
Zn 5.910216128051624 5.549027338116755 10.147157437707719
Zn 3.8398243530333662 1.3569106740334353 7.41299175478727
Zn 6.2201937842014905 2.346934840050665 6.745388781854605
Zn 2.003988961392263 6.906085658021332 7.775073991248952
Zn 8.454682142231137 5.997581393910981 9.859932394920925
Zn 10.464894501164729 5.033155623421492 5.283647967856857
Zn 3.4264320768912926 5.27017588869888 9.271409183174411
Zn 5.756730156785166 5.42402836811403 7.450409916575113
Zn 3.739639842455306 3.9591354861845502 6.893557970009949
Zn 1.2919099108808634 5.525031540813858 5.466595897595872
Zn 5.188379658027159 7.493260498172243 1.1310275737574529
Zn 9.868917379544813 7.974512559746164 8.481910886321185
Zn 2.8256084319988997 2.757183042778334 9.44265837367298
Zn 6.034544691781984 9.348085890071347 2.8525462014930465
Zn 9.467878275023086 6.420184454063912 3.3820060969109673
Zn 7.709453491837535 3.8360645094136885 8.485778417472687
Zn 7.479037232908465 7.220538538924531 7.682654556206399
Zn 6.395252546922782 5.268389963130263 0.5301423781243663
Zn 5.301277103224606 3.1829296417449866 9.105578631133964
Zn 6.810236577063793 8.022552239780595 10.162444256033421
Zn 9.187379266278171 3.704234428534206 3.4996926478687898
Zn 7.354704648187957 2.9908853031976417 1.6128865221917044
Zn 3.893950754441653 9.167015861049684 4.325550428133008
Zn 9.591055236908417 5.363951479757476 7.619267884877034
Zn 6.970128801642698 2.3176561275646623 4.174054891871526
Zn 6.248295933081244 10.358423997923177 5.217730043489749
Zn 7.63883086567892 7.434176514906947 1.8563857736633755
Zn 9.832692333443337 7.499326401182984 5.88554552037541
Zn 1.3319075545541437 1.7261352413344435 7.736116585749547
Zn 4.998751869328774 3.053599234070906 2.628008359404423
Zn 1.865083385611706 8.127514435016918 5.487839682122369
Zn 5.276166214626493 6.91449258849651 3.7713561963257227
Zn 8.521093760490436 3.3223516813343137 6.035670364458572
Zn 4.194562070689855 1.985759822389703 4.902259778647459
Zn 7.573698205160027 5.917392101336808 5.503757587574531
Zn 6.1306031554365825 9.683935726682494 8.018593038006099
Zn 8.127846297273704 8.498724504711944 4.21629712042141
Zn 3.8355532298515342 6.275086867044542 5.875946938139523
Zn 8.360194339773958 9.556151586255499 6.662788397889272
Zn 2.874116245952371 4.184320681040973 3.714889570655055
Zn 2.713099671736649 6.889759394483008 3.3497284928759488
Zn 1.7384261798465213 2.9109333018939276 5.558954151239725
Zn 5.79114745067913 7.878436714066342 5.997551546157904
Zn 8.425299873760464 9.814028910283456 9.40785308675827
Zn 8.846265372375308 5.0457324134960455 1.1996363588647831
Zn 5.430985931842289 4.409336213139896 5.038498811861543
Zn 3.71970042006565 9.179969956592991 6.97027875747114
Zn 1.2986186676135751 4.3713331279784615 7.845931192619873
Zn 4.075457067943388 5.2713377529973515 1.7302939291708068
Zn 4.535641684883263 7.588778205195919 8.867987494651404
