55
Energy = -39.16608785 eV
Zn 5.907190647639868 10.591513616767603 9.571648144506968
Zn 7.397758078595126 11.275384266994855 7.708380253358952
Zn 8.146797473061074 9.481394968178023 9.790419862203633
Zn 8.352617355660975 7.264040856465729 11.206612996156117
Zn 5.949014075023842 8.328347052874665 10.789714731664004
Zn 9.670777728605625 9.861771922792208 7.771257186707275
Zn 10.098495084239467 7.7572708766187715 9.381153617397462
Zn 3.7954846568900704 9.238411812464136 9.46527728770997
Zn 4.806682199022812 10.702542145918141 7.292461219247117
Zn 6.363701094567013 11.032414217691366 5.058235061719377
Zn 6.7526618960163844 8.850008372734738 6.537239301601237
Zn 8.831137144538081 11.05475032424981 5.646838686100699
Zn 6.382919754607165 5.697334135833782 10.945351365904605
Zn 11.71029211507146 8.232757926332166 7.432045509108545
Zn 7.295406072815595 7.243742176762893 8.538595350498957
Zn 2.712910358903868 9.178940129802408 6.867478044067418
Zn 2.1110040839260993 7.526437259035749 8.754160874567786
Zn 8.72211188244532 5.149149751667858 9.701419014054771
Zn 4.04903229637045 6.641034005948525 10.337459643453975
Zn 10.562990806907727 9.270691213672619 5.171315336723169
Zn 8.951065682531944 7.594129719403946 6.604843481403579
Zn 3.947300318087331 10.20575299686804 4.895923584554803
Zn 10.461256705690358 5.656429520971237 7.847315841610572
Zn 8.21365782849733 9.354354227229592 3.797505160315157
Zn 4.888787087417371 7.249765841560265 7.763948076133351
Zn 5.169397482112616 7.495770883736853 5.142364080296835
Zn 5.639886502270508 9.37453294786986 3.1815117309397616
Zn 2.712736493298156 8.110000899368112 4.230417422731832
Zn 4.698920360295855 4.067888953988419 9.977422211183878
Zn 2.8522543623903127 5.108882883769964 8.492049350745528
Zn 2.14724073252742 6.62671305475088 6.323540218311933
Zn 6.398905148957842 4.8111244162125715 8.187500815681686
Zn 7.141762082275987 6.0115266978430535 5.98807420573051
Zn 4.333320625938131 5.159778613683057 6.344144164897002
Zn 11.457794918766963 6.835320101403347 5.4175694314177845
Zn 9.251154233045375 7.0224573950797025 3.955320468807707
Zn 9.730830524162435 4.931448370570567 5.4549160662625615
Zn 4.066919811076412 2.9336827414736404 7.740089717770514
Zn 8.632460662800574 3.7000780762498193 7.429563054006971
Zn 6.539393638540839 2.2523177644842653 8.210698780802563
Zn 2.846298456351119 5.5059115752313295 4.061310424455953
Zn 7.005887438430564 7.112446133031516 2.703283001371221
Zn 4.403769490623762 7.124866515914813 2.4431707825499753
Zn 5.549095875705815 5.193060704721478 3.9801226300901034
Zn 3.439318576862048 3.09107787220657 5.0826017477401235
Zn 6.395032189497555 3.5157217480604244 5.6781250849815885
Zn 8.060952526958655 4.789486393381922 3.4633991039560463
Zn 7.782044467390756 0.8782682912741997 6.499374807216262
Zn 5.11746761667878 1.1664392624518694 6.17258996346529
Zn 8.798722619010748 2.6119043490420104 4.864888411377229
Zn 5.49100993122302 5.088073635084941 1.1356570809934359
Zn 3.8158279180888406 3.6528463917161935 2.561849196805343
Zn 4.7290564613209725 1.4141321251791727 3.6775922528348555
Zn 6.415702601048306 2.938318008113339 2.5482066831487518
Zn 7.146171977819326 0.8879420078682587 4.026435631259304
