54
Energy = -40.48789845 eV
Zn 11.291212160747662 8.930836082305742 6.107139926187605
Zn 0.9374217176998983 8.933381001899455 6.122096693669605
Zn 9.916148445304845 9.236202272775554 4.076023115247192
Zn 2.30658683606322 9.242083654032378 4.0894195650836185
Zn 10.538146610291392 6.774024570458732 4.802470831643536
Zn 1.6908333815250844 6.777507147431131 4.810433480390691
Zn 10.53596986288652 6.7744242151631155 7.4175922048919
Zn 1.6891913571555168 6.7754336216448845 7.425543534343312
Zn 9.922296493568284 9.238570495485712 8.139811595606743
Zn 2.3124313470254156 9.237074867042667 8.153494197398139
Zn 8.718393791829875 10.265669797333997 6.108818414500498
Zn 8.450430220295786 7.318727143969826 3.1673270447681894
Zn 3.769179122277057 7.321593154968594 3.1760030283290983
Zn 9.056602956368113 4.909068677127515 3.7718308688081628
Zn 3.168440404143425 4.906890107125714 3.771593429940353
Zn 10.060093108688992 4.503078993426692 6.112562871593698
Zn 2.165604907829701 4.50514392373331 6.113396409227019
Zn 9.054518434823818 4.905114339003854 8.453225825124557
Zn 3.1693880119366202 4.908489549948018 8.454490364801906
Zn 8.459171929445683 7.319594952496658 9.055040841052618
Zn 3.7764402190111364 7.317349127759044 9.061093064157243
Zn 7.377418098783777 9.581120295102679 3.818237223267353
Zn 4.841818529116482 9.585951410305807 3.8232176037974543
Zn 7.386757178163524 9.583126930858684 8.40580707869391
Zn 4.8516867664345655 9.579388761563441 8.410905120128117
Zn 6.114616500086572 9.617970383635367 6.114604097160762
Zn 3.5113212869332577 10.266738131398363 6.1210815787226425
Zn 7.418503220248605 5.4538709652026895 1.686799818434326
Zn 4.803461827290645 5.45312267025093 1.6929062864178732
Zn 8.14530723914095 2.9915432300137548 2.3070866686769724
Zn 4.082446518741136 2.9887529358030562 2.3068314770892426
Zn 8.407493381854591 2.6462943752244286 4.845167635936897
Zn 3.8197732440172274 2.6435072943739426 4.842855148770639
Zn 8.406097554606655 2.641266492702889 7.380818940886494
Zn 3.818284815193188 2.646710843532305 7.377943397324962
Zn 8.143115499294842 2.9846388114301905 9.916864493868776
Zn 4.080113306815081 2.9880453649880407 9.916742030650623
Zn 7.42231050920995 5.448958125961341 10.533653031462762
Zn 4.807346476551461 5.450175141799026 10.539259487687826
Zn 6.108044396469264 7.724653926811532 2.1670843215954116
Zn 6.119060547732739 7.721090767402688 10.061535537192555
Zn 6.113090239700356 3.2971333305336534 0.9345712706754323
Zn 6.114943489729318 1.9613755295172 3.507790923921437
Zn 6.112834321971062 2.6087261146683116 6.111434314409141
Zn 6.110505323904126 1.9594708856527097 8.714276246096833
Zn 6.112316979899623 3.2929621619840677 11.289384596935102
Zn 3.955318808821278 7.607740494149524 6.122199165350429
Zn 6.117100534625368 4.620258745563812 3.9540948731522945
Zn 6.108229575709358 4.618525793408017 8.270993815027094
Zn 8.272503088103631 7.606797348742894 6.106745418410425
Zn 7.472559687437795 5.124388719503197 6.115348972893457
Zn 6.109034128448879 7.1027375737085094 4.754535022841422
Zn 6.118829947230419 7.101338912756318 7.4738300607471215
Zn 4.753116849806251 5.125221027307574 6.109848225996788
