52
Energy = -37.70929407 eV
Zn 9.872145098115407 5.487385779367104 4.493979453244204
Zn 8.537752796140067 3.9778447465980777 2.1946156864963546
Zn 9.002254336657218 3.037101174251976 4.5623619513193265
Zn 9.049104147914932 6.515743233991105 2.3870927908189694
Zn 6.750759554847512 5.816838479967997 1.5161054519304729
Zn 9.596810127630528 7.088124049792955 6.724428509359332
Zn 9.654938162688923 4.477726893031351 6.81234317937215
Zn 7.280196699382264 1.7772713096689623 2.6226902432123005
Zn 8.767915266383534 2.0536245177675614 6.87590809023011
Zn 9.471576807193467 8.15348185635396 4.421126545798298
Zn 9.071822443877448 5.985077839514659 8.909289462993538
Zn 7.321991663757168 6.571641196954529 5.15289429366126
Zn 5.76243286679517 3.390649260954377 1.4433436624190323
Zn 6.810605032581857 1.7509693498095389 5.161411621384991
Zn 7.870354335149196 8.214185185502107 9.271908801130166
Zn 4.460558885788367 5.402812220655466 0.5098761471174188
Zn 7.086491756902036 8.090231826047825 2.826239719431517
Zn 4.927462734272131 7.910636498742251 1.3678630998841192
Zn 7.9035982940051905 9.01296002967109 6.767735343496679
Zn 4.948829450830688 6.380006947039825 3.522770415107633
Zn 6.381780050406035 6.612863349251885 7.560789841663819
Zn 6.873467000786662 4.223492582230098 6.488572779467745
Zn 8.143711086245036 3.5598601254673223 8.867146448698826
Zn 7.720178942368628 9.991933179901105 4.42978184227902
Zn 6.519728108733305 4.436507131915749 3.999722003837107
Zn 6.423499563176618 1.8694104437133483 7.920956925140231
Zn 5.756820764891175 3.0186402649683712 10.248904071385352
Zn 4.737969988330937 2.3852061573286942 3.681260371963535
Zn 4.5391549005539265 2.4922862874556904 6.269567725376865
Zn 5.276018483307243 9.832807499140158 3.3924599925848873
Zn 4.9828166781429095 4.558687592377121 8.215418252029595
Zn 5.2103073173320995 7.990088041941075 5.557833394669717
Zn 4.602618131266821 5.406043863188179 5.812957815580155
Zn 5.79936625927627 10.608068540994095 6.001858368319963
Zn 3.3029228740316507 4.244922405950937 2.6174293582706576
Zn 2.5930601801046285 6.636850494593242 1.5807347245542198
Zn 4.0390059610653966 1.6763851323296233 8.837618300520878
Zn 6.867059582300635 5.4240159941752175 10.062417635781806
Zn 5.74128877920081 9.298952021587317 8.33545997839329
Zn 3.0388811112575596 8.54590498526582 3.2669724429366567
Zn 5.310893054590769 7.4498686701451255 10.056212614097294
Zn 2.519087727028844 3.415754747213487 7.7062339825777855
Zn 4.510927953681819 5.268368354236077 11.104353781934632
Zn 2.6604435928592323 3.7276218628183453 5.049931024551725
Zn 3.805027247286499 7.489387280097396 7.907955011575962
Zn 3.345391756383032 10.643680037214255 4.820979458600919
Zn 2.2723155437188276 6.137193327231216 4.196145920111656
Zn 3.0460910780181 3.3046910979868596 10.415149873391965
Zn 2.3696522048930646 8.20171415461169 5.787048593803678
Zn 2.7403793537427528 5.626657356510624 9.297847591463636
Zn 3.5735250933321274 10.01041979025306 7.183526175170744
Zn 2.072325193782049 5.774115864585032 6.749150341823457
