50
Energy = -35.47858338 eV
Zn 1.856543439123983 2.669425662009193 7.0661063613644215
Zn 2.8494965221926445 4.213467051845983 5.28226053575161
Zn 1.961844320801591 5.035269269995323 7.945798320604743
Zn 4.255650493603742 2.2078820159708137 6.2086444497979025
Zn 3.4643520327560737 3.1369492701123245 9.034414190834678
Zn 4.101581654672465 5.982016457154851 3.8831779573995355
Zn 2.4085930971518685 7.4164456783402075 8.66638516446908
Zn 2.905758074564087 6.682836317310628 6.134912351821425
Zn 5.2487138657265895 3.688378167208482 4.259526529391392
Zn 5.616105349785169 1.9252965689605828 8.334603847899537
Zn 4.643237676665976 4.763416512876022 7.313735803303715
Zn 4.008962245349322 5.665202796634199 9.841934894626318
Zn 5.519617118455938 7.774498692142808 2.526516118335434
Zn 6.322352284555862 5.272635550875211 2.4750887489780156
Zn 2.9516029364329612 9.746826941079844 9.519956715963017
Zn 3.260457327710654 9.274784040241872 6.9990348495622445
Zn 6.702742913311184 3.2706683251645305 6.375125122435538
Zn 4.704349790170479 8.278390638730976 4.97211755824806
Zn 5.850961363055952 3.863441253609304 10.033271722718773
Zn 6.1477394162370524 6.0732763065894 5.755316202117466
Zn 4.682149885197283 8.092111089497807 10.404448076503517
Zn 5.0068344494344945 7.2991474722871175 7.817217027828308
Zn 7.470235540015309 6.860832655773785 0.7963878838354109
Zn 7.952121447018402 3.0259095842951886 8.676480465231785
Zn 7.224954894881719 9.323852392509403 1.357559543691822
Zn 6.964816573827076 5.523377394936587 8.185756816241978
Zn 5.372574718146497 10.596726264669508 5.909160669370137
Zn 7.909013383477441 4.432536777787327 4.369578471306108
Zn 6.456879099737885 6.2500414339095824 10.861497689167555
Zn 6.838795637325464 9.797565434768293 3.8604409209497996
Zn 9.11253295537947 5.617823730024009 2.3360991310272614
Zn 7.0693460866498 8.486225970783622 6.464235300284702
Zn 5.382520174884627 10.021957977476767 8.681067181325673
Zn 7.735733536996595 7.208356673816744 4.134763316301125
Zn 8.360444094653957 4.462439304765139 10.753249082597316
Zn 9.383982096048296 8.152264855334709 2.210955998503218
Zn 8.713082549752674 6.509913603665785 6.509651908774421
Zn 9.29763491980513 3.902088619993382 6.4857790670404984
Zn 10.117950189030745 4.632591757405862 8.802775322979688
Zn 7.166047984116614 8.191402300738641 9.174113070646262
Zn 8.150372568098673 10.878827063633 5.856215620312644
Zn 6.627003864505451 12.071929879807984 7.548211514658961
Zn 10.483495335775673 5.104629982553951 4.411137412356122
Zn 9.501765463963153 9.173969171423417 4.526958391799359
Zn 9.040770668781983 6.713163735737981 9.893183122614074
Zn 11.664154696362997 5.089461820607646 6.69310244254986
Zn 11.025279972134944 7.360944807882364 5.476672892479515
Zn 9.76399764826607 9.021025222493677 7.202527606967596
Zn 11.085845203017758 7.058133234010528 8.135982329596205
Zn 8.278773856864262 10.482869782057394 8.606520504349563
