5
Energy = -0.61351908 eV
Zn 5.691595212022237 6.8718763483734 4.8168630124858876
Zn 4.0517885601815395 5.671950445420635 6.752263473054121
Zn 7.545798958698116 2.8991035707197663 6.6681428345429135
Zn 3.369662468019627 8.23342213491059 5.698571762403474
Zn 7.325782596957331 4.629886573508512 4.291343643437352
