5
Energy = -0.60646015 eV
Zn 9.017267251806746 10.427840571968838 8.789667805481116
Zn 7.248193788145342 8.709936011463924 7.2927069926360835
Zn 6.29659912340136 10.094447236582205 9.571049753176444
Zn 7.215227543817584 5.9535216628923076 7.3578247815385085
Zn 9.181152067683989 3.772923521795723 5.947329321855801
