50
Energy = -35.38827257 eV
Zn 1.7487101059615873 3.3442698734507523 6.09669983950205
Zn 3.220887810566887 4.009990381309783 4.023833047718153
Zn 4.027980643788769 2.0052264795569315 5.459798431760475
Zn 3.1755827424229306 6.766683913259115 3.42863752175694
Zn 2.15103395056442 8.397651886496917 5.2438580720236505
Zn 4.307819519191569 4.842059639208799 1.9142200469725257
Zn 2.408227947213542 5.8723602916975075 5.727573105592604
Zn 5.941483798938452 3.260258896320536 3.6288920424955187
Zn 2.8415057782401263 2.095329965758154 7.962793909899798
Zn 6.544615664385406 1.427066292992225 5.474491581875926
Zn 2.431338592246462 4.845609601125523 8.199053029907278
Zn 4.085094384700902 9.201966859556686 3.7218387684906094
Zn 4.498459718826533 4.3869903467074645 6.535375665780326
Zn 5.478214817390181 7.483719728598253 2.409592368835238
Zn 5.418590023061522 1.8849937856403103 7.682464933662874
Zn 2.5932858166676644 7.608638239496766 7.707615905437482
Zn 3.4350110962626577 10.053991114331915 6.679575103611778
Zn 5.471088969377354 5.69314572578866 4.5880824150869355
Zn 4.775334919302211 7.595067464157682 6.121662375269127
Zn 6.750101089604888 5.305981452123948 1.8314088699952908
Zn 8.582625435614926 2.6917286942654868 4.746537589805643
Zn 6.995482053166549 4.029895425151645 6.41542655013148
Zn 4.074535596128209 6.399051325137796 9.502788666593919
Zn 8.10471489969596 5.1109320888628025 3.973219488018081
Zn 4.693188160836073 3.8665999600184975 9.198596324541437
Zn 6.076242149434533 6.019423686066481 7.758858301290119
Zn 8.076105261817567 7.456597728893991 2.4890519405667733
Zn 9.34446390707708 3.3559492240718285 7.394717328680868
Zn 4.521452108212414 8.916511146711596 8.82439062019618
Zn 7.289556597268127 3.18634564974666 8.925085204645772
Zn 6.788443074403805 9.62378045456368 3.3572382168127444
Zn 6.908764977877045 8.362948612733016 7.498481597623671
Zn 5.35715927601228 10.854822810730207 5.118905919746546
Zn 5.789607176641017 10.86154742235165 7.625731430911722
Zn 6.6388404709727835 5.26400094798987 10.29388486230562
Zn 10.305494939122715 4.5622283199979785 5.312244217562971
Zn 7.154493840591847 7.485011429980769 5.082986420627264
Zn 6.158289821833663 7.692564510460686 10.376796252051188
Zn 10.200192734172893 6.604683088861661 3.690857785399171
Zn 8.53592943474155 6.18880415577493 6.8302759960869
Zn 9.046367500976737 5.21726065209282 9.30166717987515
Zn 6.815410296440378 10.089578685496377 9.976371269984696
Zn 11.318716197058688 4.98900600871618 7.746553175222672
Zn 8.478450761769633 10.762594266930275 8.327563608546717
Zn 9.312848735541683 8.885370593600916 4.34900061544011
Zn 7.7257384017263515 10.245699122497813 5.816498153647032
Zn 8.598020895314624 7.893074670154997 9.588561528961675
Zn 11.081098897967879 7.021499558627602 6.076238947656228
Zn 9.538239521709606 8.809275550086774 7.005837240916478
Zn 10.89782162080717 7.237573365407528 8.713046651852311
