55
Energy = -39.29951239 eV
Zn 3.961394895483626 3.709711209873679 1.9364393269195632
Zn 7.831823847975788 2.6872889599694605 5.327960060675499
Zn 5.377329374408994 1.82580660996869 5.826955095501122
Zn 5.232100283299132 5.587538144691072 4.00388723306152
Zn 3.842264661468483 7.9404184133169196 3.2516100451743606
Zn 5.860509757789728 7.719699667187723 1.659276715808219
Zn 3.9094135608952705 6.145413659471497 1.3011571311635086
Zn 2.2095687436669085 6.273621404861055 7.948599272374717
Zn 7.350241829499807 5.60325478082549 7.740222466809062
Zn 6.846309646358773 7.586899033302572 4.2960248075042955
Zn 8.323441886325973 7.682434247384174 6.388864514217643
Zn 6.908960136684986 2.885005125681929 7.9382621434267655
Zn 2.6164658964946916 5.400150843286548 3.4460263370721926
Zn 3.6435253042613827 3.586747217492832 11.056563208576412
Zn 2.335344807826466 3.8369739781013146 8.671549606211228
Zn 11.229587619816018 7.0004085248447305 5.135622562160669
Zn 8.88422310735951 10.168905337375984 7.257335487525949
Zn 10.323762659475038 5.819635173727733 3.0527632655259174
Zn 5.027151753836111 6.923628817766525 6.1995640287502
Zn 2.792811856906114 8.653232205503372 7.437781319772652
Zn 3.4775343599566755 2.881550291747565 4.300108978115791
Zn 7.01578369286616 10.667211671219956 8.966133074613579
Zn 6.273417922775552 4.960033619784791 1.6387380112239438
Zn 10.741055196685048 5.629029267453265 7.189261927959532
Zn 9.940315028239507 8.346994331536848 3.331323659062442
Zn 10.724961784153212 9.431732564905742 5.599731694947588
Zn 5.913616191285076 9.982238731359836 3.722206218408133
Zn 6.30086680745566 7.909879062111215 8.068051669145461
Zn 4.7880545028143 5.597289380659034 8.527405415855267
Zn 9.711445124871224 6.384055681380854 9.386597544307186
Zn 9.241809831106458 3.6024504406906095 7.282512873799263
Zn 2.575806828239637 4.666386518036608 5.938503060248929
Zn 4.912365432016872 6.418123933859026 11.228682018896656
Zn 3.7091059773343074 7.99992791061199 9.702363781582422
Zn 5.263690181682633 4.365354971724154 6.253794324504927
Zn 8.332564482577807 4.154147466255068 3.0330388703783635
Zn 2.5023680377548816 7.191802529379632 5.347650636405615
Zn 8.176353763037609 6.669178320964488 2.0748514456582083
Zn 10.622267454400705 8.159341765921962 7.776917920110853
Zn 3.0049911457828458 2.204707874115662 6.767284722863486
Zn 8.520500876687205 4.1763455794157265 9.756276482519212
Zn 4.5534557909837705 2.662046026177162 8.790095180750194
Zn 6.061832856349917 4.060337089434266 10.50598124048247
Zn 8.418329081128785 10.04771985242487 4.634444234869769
Zn 6.440907846706372 10.488561585294912 6.347949648198196
Zn 4.198727023593714 9.353471990658772 5.461665992632153
Zn 7.353567247973663 6.435597105436899 10.402339803344113
Zn 4.680784032566374 10.068968424255408 8.311676756123958
Zn 7.886445532288172 9.26713485833003 2.2323820554774723
Zn 6.083123654011389 8.781027907898519 10.598693604092139
Zn 5.959839960212697 3.0334170428622484 3.475654805020768
Zn 10.155304297953885 4.283715153753094 5.017416860886098
Zn 7.598250214561695 5.382012020046441 5.253193322981364
Zn 8.492668451658773 8.638200706722515 9.364565103896725
Zn 2.5284483457921194 5.730025556275796 10.502833019743697
