5
Energy = -1.1444362 eV
Zn 7.136245953044818 6.150180872162181 7.4507069885181
Zn 6.360631636974185 4.4730019317933465 5.441498614195481
Zn 8.141621367228467 6.436479236441181 4.919115670986082
Zn 5.127996821268647 8.052926861074805 8.866707707246155
Zn 5.555217174667534 7.071051447018206 5.542651148268187
