51
Energy = -35.88625367 eV
Zn 8.110485236989442 4.893211957955167 10.929914392987873
Zn 6.404827622608731 3.72155190857505 9.310886823431783
Zn 9.778705343223976 3.343084944392895 9.576510315380759
Zn 5.824605477415901 6.136294887665037 10.441320853922063
Zn 10.334783333798557 5.807445891249444 10.05780500556301
Zn 4.16242186441324 4.75735051603913 8.715422432329943
Zn 5.280856558728286 2.587366450812731 7.157248598178696
Zn 8.143585518640121 7.384636696086205 10.348178189826443
Zn 8.114844961007671 2.2433045376991703 8.092951158359327
Zn 2.833401254842897 3.3801974119510074 6.990242954877703
Zn 8.233018203589403 5.45367289801151 8.230540203634387
Zn 9.855537465812706 3.8263029990389508 6.795360051137022
Zn 5.950256902971938 6.545107535756183 7.727177847001699
Zn 6.004997641772076 8.743516407970368 9.54564143236604
Zn 10.55286338574761 8.129879629487071 8.99600704985092
Zn 4.008410033865456 2.831859506049209 4.781464400599891
Zn 1.9246680111095884 5.668339673827217 7.74708487539884
Zn 6.512695217920192 2.387324234088973 4.361863648206965
Zn 3.5380463857851066 7.131322124403321 9.533525715729002
Zn 4.9269831773453365 5.067719632316752 5.9103017141086145
Zn 10.678288540954851 6.14200204273314 7.397436710225325
Zn 6.596174767182206 5.313456863662472 3.9669407739636537
Zn 9.081648343611668 3.6265944635597243 4.281304158986956
Zn 7.280428419762299 3.939986775530503 6.262225162003557
Zn 8.736608817536547 9.828090280585227 9.877606771688072
Zn 7.937122851629403 6.411621266608404 5.812469314557584
Zn 10.332898530847297 5.932996026441251 4.806192516263662
Zn 5.538851215126552 9.355187109734397 6.840733487391852
Zn 8.033254956254606 8.013129900668876 7.755931075326171
Zn 10.046397825811663 10.356067254867673 7.73853667828308
Zn 7.646914007227311 3.338891757291114 2.117184890606202
Zn 2.3666718436385628 5.218361713145459 5.078310034783559
Zn 1.504171131645385 8.235564386300698 8.131206056210983
Zn 8.87248205516728 5.664191669852916 2.605612657031821
Zn 4.161250493091839 5.784723848218581 3.1693144374381865
Zn 0.9267291748239471 7.277296515767213 5.913653641622711
Zn 10.208932734439122 8.312234306026115 6.076951702276191
Zn 7.378621549020137 10.741418408747432 8.003745696302243
Zn 5.792902204940531 7.554072216102266 4.951550151502529
Zn 3.8344120381752105 7.258981884811151 6.615550686053933
Zn 6.296017991432147 5.172186238911036 0.9490179920189639
Zn 5.037182612092079 3.4675410507810036 2.4692776912909307
Zn 3.6689866892828196 9.513622735813462 8.600388124547404
Zn 8.657658488343612 7.999953913837553 3.8068659971927157
Zn 6.933847529083407 7.380758809036856 1.964944481787743
Zn 7.877851727566437 9.677463101243351 5.628984541430389
Zn 2.814297984727552 7.7457118706543815 4.204679356588107
Zn 4.393788423261968 10.11196693625892 4.517496571450739
Zn 2.5203522360135002 9.597906104442012 6.153637099267004
Zn 4.655452536888438 8.328341753878476 2.5626783125873747
Zn 6.659324861023278 9.699658793117331 3.3646762708285287
