5
Energy = -0.66634994 eV
Zn 7.162054069871783 6.804862364439872 4.740860654376177
Zn 4.5422810497039166 5.530320002502647 5.668898678965604
Zn 6.577530089323064 4.142306133269572 4.459046588581129
Zn 7.421853707712028 7.830718903817362 7.475700320779847
Zn 5.028374838985431 6.462098268300717 8.38866067137969
