54
Energy = -38.48432378 eV
Zn 9.579955167352772 4.326746691262759 6.312717013562738
Zn 7.505370473196997 6.496115267500927 1.3720730230633018
Zn 7.422267818710354 6.1260664919295955 6.696930215913345
Zn 1.5805056395141865 2.507548730979192 6.684933414570647
Zn 4.096561689795661 10.646420304165902 5.485701903140838
Zn 8.437075424590276 7.120134622135611 8.874760393691934
Zn 6.082772245251775 8.115986501959314 9.45642367167311
Zn 1.997845461346635 4.240139739024143 4.605170333730659
Zn 6.126923329490313 3.8292777757750307 7.845922200560222
Zn 8.194327253614517 10.87915673860942 3.8609980560405437
Zn 9.960828498776571 9.005644584148524 4.256168134589917
Zn 6.912362677184573 1.060009170276023 5.0588385923484545
Zn 7.0096895584555705 4.006206623942209 5.189767286578983
Zn 9.69055804057801 6.806155586821316 2.675720345451881
Zn 4.970044137487802 6.331932401837452 7.734036113434064
Zn 4.509199298789936 3.9049320291742067 9.929905907537742
Zn 5.3365766358445414 7.467759255149978 2.7557439377393185
Zn 10.157342774404023 4.515695183512474 3.7653823580809624
Zn 8.882387529729076 2.4017462211666945 4.259331366806176
Zn 3.454332034094857 0.6053967691411493 6.339575243713745
Zn 2.2957443741205643 1.6963738605831236 4.375093377814807
Zn 8.639033288057108 4.480030770089196 8.657337366302562
Zn 0.7836280426511858 4.951527193910937 7.023918138065098
Zn 5.23882689868469 7.944690786184047 5.884584640372892
Zn 7.717738611124601 9.594246658752272 7.938671476066323
Zn 4.9531304631794395 5.553995391655213 5.003035810923828
Zn 3.726956833933627 3.3718840275963724 2.88373381469909
Zn 3.4931033595041097 2.0700518462062156 8.432398914617856
Zn 7.377757556831637 6.246364874848689 4.089391750925493
Zn 3.9078759075324325 6.36347120766169 10.213641651402643
Zn 10.155768755371302 6.594188888023414 5.23044457137439
Zn 3.167293933395227 6.00328479691975 3.041714409529892
Zn 8.110578271107187 4.102684936859316 2.273010252701322
Zn 3.5482178128602975 4.463789062550123 6.917920994861331
Zn 6.2238534332539865 2.4117172084264396 2.938344371498358
Zn 2.796417498739869 8.897031201401584 6.776930126441321
Zn 3.556566220240514 8.669135626701305 9.2293761112563
Zn 8.121252248409382 2.2799422347118488 7.031556611153331
Zn 5.168186185904492 9.9589323436162 7.763413182791018
Zn 1.9699323091694882 6.890587580861841 8.193439181114226
Zn 4.7833859779201395 2.9052207441061664 5.444872754736404
Zn 5.737981295335673 1.1339471599748603 7.3720661981379045
Zn 4.584071882082448 0.6554768822520093 3.921574795002272
Zn 6.582683605081542 5.539348101378478 9.81315136687558
Zn 9.238094844899152 10.775606137497117 6.1356435728323255
Zn 3.335898479165873 8.488969029561279 4.031616267272344
Zn 9.829994357798356 8.447006290354148 6.962446251757087
Zn 2.192068265119303 4.5037834798371215 9.16695211627662
Zn 6.6331140075048 11.080338589895122 5.894569875977518
Zn 5.788293832121927 9.790859998607273 3.7356603083635718
Zn 2.31351823987256 6.64945005452927 5.521761731183166
Zn 7.6030137168532566 8.420517553601185 5.342841315211265
Zn 7.96072193382755 8.767060080613884 2.40518155525675
Zn 5.591184158918208 4.938227000500789 2.2264179137577984
