5
Energy = -0.43108757 eV
Zn 9.115387201048557 5.454636290843954 7.887501489281365
Zn 11.683097059337168 4.005260764419033 8.388112401139262
Zn 2.558922191477453 10.364459848490034 4.771733065866561
Zn 4.462645694621937 8.51729388616435 6.197006903838347
Zn 6.7630027073430465 6.932526945183668 7.013331539645828
