55
Energy = -39.4862088 eV
Zn 4.566871045126995 7.225295762268585 5.743003332567364
Zn 12.868203550366935 8.91239319824264 7.834376002994681
Zn 10.1741856831956 5.497987788916742 10.099798926414676
Zn 6.60263549749855 2.395052723350916 5.417583459053145
Zn 10.376068318739685 8.438789886375666 9.093414595310039
Zn 5.7529924335638265 6.440192374133092 11.988855106926556
Zn 7.776384663503037 7.787217160752109 5.516309362096208
Zn 7.595630706215851 10.131473406412711 11.52867248270379
Zn 10.54900493063019 4.879384723837774 7.55781883798318
Zn 6.309605924364208 7.792029611834872 7.632508362654119
Zn 6.000510331930861 6.4416089416848195 3.78631449305725
Zn 6.339375649005254 5.631916587737567 9.421747997340203
Zn 3.39640072649474 8.82166007944358 11.022263704984463
Zn 3.7993593368409004 8.38387413695017 8.297352099971611
Zn 3.8924610763962635 6.501779599153124 10.082671692557762
Zn 8.166562001787549 12.756251677621668 5.085582704963103
Zn 5.8904540807187935 11.70998556892707 4.635041764237826
Zn 11.910815807596993 9.770153689388895 5.527009224591245
Zn 6.577458629388853 12.652355557481583 7.104128006196127
Zn 8.322151000081499 4.119544966835279 8.759922855580571
Zn 9.569916104977215 9.289545616377529 6.772529382241726
Zn 7.906702738894716 5.017523506123987 11.384615104922164
Zn 6.043737854197266 3.380016524622206 7.693141408045764
Zn 7.984907394103796 9.449354434802679 8.813925098129555
Zn 12.24704821751706 6.476886870955535 8.817308287241236
Zn 11.383478091175228 7.2062717113272985 6.491565151225097
Zn 5.137298291640268 10.789994835400075 11.038177482286823
Zn 8.311680397086372 7.458622900282714 10.39867950933936
Zn 8.799519583253394 6.887338663470259 7.91599087290155
Zn 9.663879786176564 6.495028880722857 12.64785701829314
Zn 5.269918041020648 8.910843302094607 12.751241444203496
Zn 5.99491314895562 8.408677963905967 10.035874717105955
Zn 13.791753225831021 8.183560336696596 10.11606390990394
Zn 11.333443020927652 11.00794513020918 7.963537074429333
Zn 10.492712090730926 11.86835320522603 5.387128482832353
Zn 9.909504397327765 9.1166731477488 11.85196349174971
Zn 9.633570544192605 11.116856018707795 10.093055580845519
Zn 9.010817272277542 11.989944563001632 7.685490743868406
Zn 6.019881222665676 9.124550909938062 4.073003657522
Zn 7.145075325515477 5.585644941922564 6.607865852411473
Zn 7.1148527455524215 11.928232363272517 9.597006763853885
Zn 7.581950534734877 4.4023118749605565 4.122311207077533
Zn 4.370268884030554 5.536300510712154 7.719080809528577
Zn 11.737018575775597 7.2540568530793585 11.308889997589905
Zn 9.631309248679587 5.703404286810644 5.2673297144343065
Zn 8.54167037634678 10.282312782353713 4.171383073505827
Zn 7.618529394134045 7.953673770409283 13.068901938930141
Zn 8.433787991886845 6.715022285575725 3.1484514331395093
Zn 7.18297215796537 10.126667455188826 6.520719794401161
Zn 12.00065826506279 10.016643784700054 10.40329714966489
Zn 10.158865454639244 8.218023761677609 4.365422944895907
Zn 5.221881071837901 10.625832370664998 8.426978142075932
Zn 5.121603290258958 4.528681429982817 5.3950486610000405
Zn 8.783879361519947 3.394607138118244 6.277223124640138
Zn 4.541294886224814 9.81907880817096 6.091996344142753
