6
Energy = -1.12329197 eV
Zn 6.542179256584702 8.336463586239528 6.542179256584702
Zn 9.228225999999998 8.105211546714903 6.542179256584702
Zn 8.100671563026598 5.640778961246655 6.542179256584702
Zn 6.542179256584702 3.4246309933074928 6.542179256584702
Zn 4.983686950142807 5.640778961246655 6.542179256584702
Zn 3.8561325131694026 8.105211546714903 6.542179256584702
