6
Energy = -1.37090742 eV
Zn 7.476799322600733 5.137066103816383 7.018715004727691
Zn 11.251751192317839 11.825256304732873 7.726242691938909
Zn 9.269089038605147 9.710829519067822 8.024990523936143
Zn 6.087300663243962 5.7217701510629455 9.240602779729457
Zn 7.604382880705412 7.600887961831399 8.06358820857963
Zn 5.356358180505078 6.769882246340007 6.889962843541465
