6
Energy = -1.44999593 eV
Zn 4.639214805864321 5.351016507553313 6.911667208842812
Zn 7.1348677582106 6.081866350398084 6.169318129847076
Zn 4.936747026653988 7.221448435286235 5.02937320582773
Zn 8.533935307972488 8.218662390534222 7.9867667613869395
Zn 5.514370632995346 7.811751236070066 7.555794615631426
Zn 9.826045563886316 5.897255447075056 6.928057651971768
