6
Energy = -1.32502705 eV
Zn 6.625877958492257 8.93204273320611 6.326443714371186
Zn 8.803807000000003 7.340651626874259 6.329888751536907
Zn 7.987679521191314 4.760471554907571 6.332608680739222
Zn 6.625877958492257 6.620978654183638 8.103829172029968
Zn 5.264076395793201 4.760471554907571 6.332608680739222
Zn 4.447948916984514 7.340651626874259 6.329888751536907
