6
Energy = -1.41887965 eV
Zn 6.68587062902101 6.4891930056291285 8.677163107887631
Zn 8.154958565860946 7.388104130781979 6.467613765145015
Zn 5.422584985504439 7.161926426491858 5.925991931755873
Zn 3.531824414976722 5.068147733188185 5.3957238941946
Zn 5.981377567620485 5.512693027270003 3.805397137577217
Zn 6.799036369240581 4.950035166501785 6.313361368971789
