7
Energy = -1.98063763 eV
Zn 6.4804786210462755 6.255766723712286 3.104619278240077
Zn 5.783863019702208 7.518646906104462 5.478908695906907
Zn 4.868145001976461 4.8536089021160445 4.685959067862163
Zn 7.525917497980648 5.6655048651825775 5.602989009745163
Zn 3.6243423922004183 3.8332490915389954 6.799084721746579
Zn 5.435289183143943 5.571875194940529 7.660008040080915
Zn 7.3778327739251335 7.39721680638032 7.764299676393413
