7
Energy = -1.74697594 eV
Zn 8.220498366677498 6.122834391066879 6.45969140308381
Zn 6.39274260916714 7.709362382033212 5.050752687600161
Zn 5.88803765110708 4.472215316784917 5.079075088978612
Zn 4.053808814302402 5.980627633207786 6.45969140308381
Zn 5.88803765110708 4.472215316784917 7.840307717189008
Zn 6.39274260916714 7.709362382033212 7.868630118567458
Zn 8.381972008134783 8.751222455637757 6.45969140308381
