7
Energy = -2.04865162 eV
Zn 7.880445136443069 5.695923050499683 8.6945013
Zn 6.497195328399319 8.098521619627215 8.69436229317669
Zn 5.1139455203555695 5.695923050499683 8.6945013
Zn 5.1139455203555695 7.298467606298956 4.299889356798638
Zn 6.497195328399319 6.497195328399319 6.497195328399319
Zn 7.880445136443069 7.298467606298956 4.299889356798638
Zn 6.497195328399319 4.895869037171425 4.30002836362195
