7
Energy = -1.69761062 eV
Zn 5.027839167312287 9.289938863845482 4.19388649238
Zn 5.757512659580052 5.659019175454907 7.098476350277419
Zn 7.0565947392862665 7.410040339794655 5.0111988333843485
Zn 4.462649572533573 6.454873770400486 4.666321269405331
Zn 6.570237478098564 2.8362951014874604 7.544933243778645
Zn 6.562978348515736 4.4018305643995985 4.977896475021586
Zn 4.204255132112203 3.590069282056367 6.149354433191211
