7
Energy = -2.051123849
Zn 7.277072499999977 9.8329334999999 6.476189500000081
Zn 7.42213550000003 7.18633550000003 6.238023500000039
Zn 7.146915500000081 8.353702500000031 10.724613499999919
Zn 9.314199499999832 6.835998500000093 10.327589499999888
Zn 8.374840499999843 8.353702500000033 8.421762500000014
Zn 9.614516499999946 8.622804499999946 6.027994500000003
Zn 9.518291499999997 9.482495499999908 10.528399499999868
