7
Energy = -1.49798516 eV
Zn 5.52906958181762 7.102005486676168 5.085353578619942
Zn 7.414131336397227 7.47109351979516 9.818338096434854
Zn 8.612135934363188 6.4566393340872335 7.6389257964250845
Zn 8.993577971129904 9.001726442495643 8.389236528399659
Zn 10.355109135038001 6.878546472395406 9.982191428168502
Zn 6.448987768169057 8.375241489859174 7.339289500527298
Zn 3.769340599301381 6.906378239707045 2.809081820130441
