7
Energy = -1.6392544 eV
Zn 7.241211784222612 8.160270085842836 9.657067937655395
Zn 8.530094507896553 9.235677890920426 7.496671557236488
Zn 6.909618703273532 5.507400188213688 4.945107341192814
Zn 7.033462359608488 6.761281373859197 7.357472174594933
Zn 7.010436771348667 8.279108526516922 5.053944932282803
Zn 9.191899761670657 6.942729880755217 5.626349974895522
Zn 6.188847250281295 7.246277086176083 12.10498320945382
