7
Energy = -1.95514061 eV
Zn 4.151053024552132 7.634314741307705 8.240617111267206
Zn 6.583836216054315 6.851162463939587 7.592970283603784
Zn 8.715747131258818 7.081602784981334 6.039446727590848
Zn 8.222115621779276 4.813128303819851 7.344485791362168
Zn 4.20010247635278 6.526914661577357 5.785865034061974
Zn 6.898643877435237 5.403178191303564 5.123388156480158
Zn 4.837515212472001 5.29583974941274 3.4768999428750917
