7
Energy = -1.30035632 eV
Zn 3.086873789856212 3.7774922286519494 6.23898128653633
Zn 5.871049874168425 4.118219232667754 6.23898128653633
Zn 8.611005995622845 4.2811722398539285 6.23898128653633
Zn 4.176614845205383 6.408291419340619 6.23898128653633
Zn 7.577631578679533 6.803477302881504 6.23898128653633
Zn 5.682321361022826 8.746090868285119 6.23898128653633
Zn 8.667371502704812 9.538125655579291 6.23898128653633
