8
Energy = -1.85070915 eV
Zn 3.3713158206316174 6.026234569527175 3.7485705047590416
Zn 5.874425822207415 6.4089571440029225 5.737048968587861
Zn 4.41020641400087 1.4395906219375725 3.904186114410906
Zn 2.095327796480034 0.7719466905668129 2.7821695174548915
Zn 1.9687989439732951 1.9755302096942153 5.232822323471814
Zn 2.6356928769653676 3.3659258395164535 3.019115378964232
Zn 5.56884704888445 4.3219000085092105 3.551890831631026
Zn 2.2743838057573402 3.971027353876913 0.31777395217264637
