8
Energy = -1.14971344 eV
Zn 5.104763613384827 5.104489762863759 5.104757355880838
Zn 7.6972585045257755 5.104724890487337 5.104429652590457
Zn 5.10493796001988 7.697069965009593 5.10493476876777
Zn 7.697514073829543 7.697216715376182 5.104766554636918
Zn 5.104426711338585 5.1047208021512755 7.697253269105748
Zn 7.696996767782931 5.104952898457736 7.696998686950955
Zn 5.104760547132837 7.697213649124084 7.697511904661506
Zn 7.697252372021795 7.6975219328182325 7.69725837952577
