8
Energy = -1.23647921 eV
Zn 4.451290684368336 7.571335285631353 8.252465727957752
Zn 8.019367695273868 6.13935073899734 5.891094451980603
Zn 5.663221352056886 5.877698430870866 6.7888849642796885
Zn 8.407310211087893 9.139494558083594 9.067980433120955
Zn 9.59372233461876 7.937063673033457 7.20277700244917
Zn 5.9003820903072555 9.255195077357625 9.405243100092122
Zn 7.381582530885126 6.818798820625438 8.498697793709027
Zn 10.25327533203695 7.085446953522887 4.789914929127043
