8
Energy = -1.95709237 eV
Zn 7.435134419086658 7.435134419086658 7.435134419086658
Zn 5.375818003947841 5.375818003947841 7.435134419086658
Zn 7.435134419086658 5.375818003947841 5.375818003947841
Zn 5.375818003947841 7.435134419086658 5.375818003947841
Zn 8.142378999999996 4.668573423034385 8.142378999999996
Zn 8.142378999999996 8.142378999999996 4.668573423034385
Zn 4.668573423034385 8.142378999999996 8.142378999999996
Zn 4.668573423034385 4.668573423034385 4.668573423034385
