8
Energy = -1.33093159 eV
Zn 6.388165405729773 3.817951368549705 6.043950617385012
Zn 3.703625624097774 4.120854498830813 6.222969773346599
Zn 7.140797546995685 6.670301211158935 4.650545719007244
Zn 4.964057939509694 5.44944015611985 4.44483895528113
Zn 5.959448895556622 8.58373453122246 6.160561791038245
Zn 5.189844531382671 5.55085882809406 7.753571042225947
Zn 8.653216755445372 8.126295968341717 6.080076171210823
Zn 7.2501351219008505 6.950648575614914 7.89099144360833
