9
Energy = -2.25063869 eV
Zn 5.45122242935173 7.26244748370814 2.764899652756646
Zn 7.030552272560017 5.482554527799415 4.27460688365452
Zn 9.018989596263298 4.81084737680568 5.963610276613997
Zn 6.616165725509379 3.6610797183751944 6.244789126547904
Zn 5.64733650624496 6.271287373255172 6.491667247765346
Zn 7.622869847268157 5.234558813468544 8.470692696030707
Zn 3.8326202944679806 7.967467133915013 5.147543430011894
Zn 5.285887377993414 8.78993348299359 7.391163515234778
Zn 5.350504716798445 6.403495550789149 9.108976845528034
