9
Energy = -2.56430304 eV
Zn 10.593732669240776 10.594465413955595 5.981487571554731
Zn 8.780565503005178 8.407538982399918 5.9039506101579295
Zn 7.0941516054880935 6.214813382058417 5.7441024505867455
Zn 6.606307931938769 7.093189720613604 10.259627662496289
Zn 8.955529915487647 7.077363649270665 8.25163576997853
Zn 9.243818998797252 9.720999016253927 8.196065742566667
Zn 6.790709032442133 8.789225747623128 7.695369934573955
Zn 5.06951214769424 6.600920384177578 8.075375073371417
Zn 7.0911170573627045 5.0283518645211736 8.561522601628937
