9
Energy = -2.34243123 eV
Zn 5.3070689751429345 7.509847255043318 10.78187982240417
Zn 8.448712418827448 7.490138802651585 4.366558099261708
Zn 8.559140923452114 7.121139094431387 9.759382068743909
Zn 4.1317229354302905 6.905500983874399 7.544752585135178
Zn 6.211362082153104 6.773400928948423 5.722385967907688
Zn 9.853074859101104 7.238927332497747 1.9329286322069108
Zn 6.512334722399378 8.304200551975567 8.203003961401881
Zn 8.812329470564997 6.900041934859678 7.00045493216894
Zn 6.420406391044271 5.774904479061793 8.59489879161819
