9
Energy = -1.55171309 eV
Zn 4.4684323879870265 5.3177229869259115 6.630297220619491
Zn 3.478513322429743 7.695436412559181 6.626739263949552
Zn 5.225442597362018 9.505174908951156 6.628184508049813
Zn 6.408339518289706 7.064160242767148 6.627513442169323
Zn 7.62405232233026 4.608000823026166 6.6275332770607935
Zn 10.127310958061255 5.192254717555875 6.620999121078908
Zn 8.975906898387485 7.516983599810525 6.630473616264538
Zn 7.7345787955942 9.773800037641436 6.65457528724013
Zn 5.628027010063096 2.9970702567496765 6.6242881325658605
