9
Energy = -3.641523618
Zn 6.057140550327434 4.447716651735458 7.482677918437843
Zn 6.002173385362852 8.599779454473936 6.011338434287937
Zn 7.412878851542306 6.869626415077475 7.458266643234115
Zn 4.638790023371504 6.832041974342462 7.461807819909897
Zn 7.411171015105367 6.840234384681212 4.594758594065016
Zn 4.637358525045576 6.803734268565253 4.596497832844658
Zn 6.055912670353916 4.420595077223141 4.61986489594538
Zn 3.831575774110792 4.724441169731803 6.049599628004546
Zn 8.273933125141667 4.782764524530674 6.04612215363167
