9
Energy = -2.17418052 eV
Zn 11.146530828403298 5.051876411531734 9.456348675204637
Zn 8.443658065376546 5.651483691289956 8.86556478830165
Zn 5.930627735895899 6.561855828717935 7.781864318101933
Zn 8.08213844307545 6.757177683238153 6.206952443551473
Zn 10.678493702365456 7.225436544050116 7.739216568183596
Zn 6.094427260392377 8.85915810931545 5.734829709443585
Zn 7.835474407861978 8.4019939237267 8.164814764626207
Zn 3.5291938352856596 7.494564996437812 6.642878025008858
Zn 3.528317855506295 9.68786671316979 4.921748753598257
