9
Energy = -2.95472277 eV
Zn 6.605071573713939 3.9149737946266883 6.60555719869553
Zn 6.605475347115268 5.330861754447282 8.971289999999998
Zn 4.976987673292304 5.927890723152531 6.60555719869553
Zn 8.233356334106883 5.927123139162159 6.60555719869553
Zn 6.605475347115268 5.330861754447282 4.239824397391058
Zn 6.605706958440916 8.044685850168996 5.279748557879372
Zn 8.945834071107628 8.463771386703868 6.60555719869553
Zn 6.605706958440916 8.044685850168996 7.931365839511686
Zn 4.26640046896466 8.465160423458123 6.60555719869553
