9
Energy = -3.13489763 eV
Zn 9.613431062032483 6.6553619858694715 6.895714034856939
Zn 7.689841253124661 6.520560101598145 8.89808646778908
Zn 7.355559853155588 7.9560149352283345 6.660635452294911
Zn 7.57401734005394 5.039774957847145 6.629411818895465
Zn 5.694038795022893 3.8745732451780754 5.261739006874989
Zn 5.0115301354296 5.130537030220707 7.583163440610173
Zn 5.268630582750942 6.447917013704858 5.178245101421162
Zn 5.96766026439542 8.934336207074097 4.693372633653849
Zn 4.725874698408298 8.351762943288362 7.081810947230873
