11
Energy = -72.67002953 eV
Zr 7.47920434004918 3.8265832315497463 5.924878374567852
Zr 6.505482953486097 5.570998081896217 8.067525157745184
Zr 9.24965026264138 5.432725799721257 7.088512968288417
Zr 8.558139393147119 7.35330434157178 9.336675419086912
Zr 4.876664592714619 4.67570669519034 5.763857685727766
Zr 4.353629490005042 7.221345690957141 6.3553365104725374
Zr 8.820442368184274 8.19259870754062 6.649720765400834
Zr 7.962167000401059 10.145410283983482 8.325453921961374
Zr 6.9583786223266095 6.649615683301083 5.176112923997362
Zr 5.9476680234100705 8.320932961762031 8.420578997360344
Zr 6.31184302009511 9.497542187843713 5.87483959934311
