17
Energy = -120.33922269 eV
Zr 9.753841498928686 6.837330277005318 8.262070346039575
Zr 9.651234370594857 7.295460822588658 5.220585051356476
Zr 7.991628729229579 4.306253292246631 8.5508741027769
Zr 9.147100484129487 4.680109586102017 6.148993891428154
Zr 7.3202796607877145 6.505812471750607 10.151817850744942
Zr 7.658783134706565 5.794791689771284 4.031373312834369
Zr 9.012769531995215 9.406638183716488 6.7525062595152265
Zr 5.2997653411779755 4.987367834251945 8.94226905572513
Zr 6.969663291942302 6.941775266111513 6.949261124224917
Zr 7.829048971128432 9.007514858507184 9.28711566840465
Zr 6.12453097087949 4.105180697575878 6.096394047519519
Zr 3.862003977537558 6.029719165819899 6.912130533996469
Zr 5.084050899610765 6.454600399588434 4.400277031976574
Zr 4.92033802259974 8.061519780044016 8.962214254757972
Zr 7.080663054923702 8.790055826293708 4.441121628698261
Zr 6.358768728345197 10.082338589221639 7.141352049313578
Zr 4.423605565521145 8.627868093127393 5.9773762253907625
