16
Energy = -109.95254416 eV
Zr 5.76984338143091 8.6573093751918 10.934424854621737
Zr 8.432927243536435 8.36213906947444 11.151343278971066
Zr 4.820254462778188 8.234065983332076 8.001830056594295
Zr 6.26524727191518 9.571299428921462 5.770614785349547
Zr 7.849384660212073 5.019296644423181 4.2119890114636025
Zr 7.037085971275788 6.449105459211957 9.576519771653759
Zr 7.805468777062978 7.912886648531737 3.9296912504502153
Zr 4.76871477857525 7.039833847352645 5.221300810167311
Zr 7.179806653224928 6.926034369195992 6.620380479889059
Zr 5.564910571125803 4.274308735797559 5.415574077841978
Zr 9.859484724544048 6.4371483117911765 5.503849358710714
Zr 4.827354223256307 5.37140631585793 7.791871680386361
Zr 8.045878348073066 4.447909971625365 7.167078033749959
Zr 7.414167577299777 9.37417518891873 8.597342895193588
Zr 9.190341329648088 9.208243388657392 6.183204140561698
Zr 9.536008712403584 7.194649863442764 8.375573311625336
