19
Energy = -132.5382974 eV
Zr 7.017436988564039 4.654974272588257 5.151609065316666
Zr 7.1411356711220755 6.9937195220645645 3.8011170083537147
Zr 4.41708466201628 6.370899921494966 4.805798108683824
Zr 4.774258957221608 3.4773452861647427 5.9456951693746625
Zr 9.042037939021105 6.668609073666172 6.4149847350774545
Zr 5.267045164635002 9.084977991267413 4.436828544632483
Zr 6.875542706144971 4.1271578144278624 8.072703160919614
Zr 5.853686226118778 6.645922774222029 9.626661009104948
Zr 8.718161923461277 5.34043701236036 9.618861483196287
Zr 10.92192015054917 6.661904882453855 8.441890561911132
Zr 8.572715858726744 8.003335701889037 9.661379349155608
Zr 6.288925327816375 9.4889842491753 9.111873702977487
Zr 9.77529753266683 4.111726081718575 7.250307340323123
Zr 4.063083337461548 8.376554896055401 7.227584263661662
Zr 4.286283230260253 5.478571207737636 7.60290345046161
Zr 6.166507373571327 10.574655707034458 6.555247249404146
Zr 6.649943558046145 7.486747276692425 6.848425369289323
Zr 8.842192056272813 9.723256417425384 7.51227781983153
Zr 8.146471326058938 9.369100955311012 4.807474380882423
