13
Energy = -87.95914287 eV
Zr 9.036105061026364 5.210828809464168 5.594434614559469
Zr 7.064865414784933 3.3048042542094476 5.417639401780279
Zr 7.256636345504799 5.253911765041931 3.2472970909238064
Zr 7.229209772998733 5.3117532538975345 8.064653597520156
Zr 8.451873341082832 7.635187261209165 6.578543415595053
Zr 4.684034158773336 4.022671693096197 3.9882917541087597
Zr 4.506701605849783 6.812312723654803 3.3122529726764567
Zr 6.001648002795427 6.144899084482468 5.71105250990843
Zr 6.31085483823372 8.235185008276876 8.070594912474238
Zr 2.9815444157628197 5.874770281527 5.560704983732302
Zr 4.62673870682502 3.843316833580046 6.960605163249038
Zr 4.263983262297302 8.483819567992244 5.970757084459625
Zr 4.1735727103422136 6.496499238056723 8.117082632790494
