12
Energy = -79.46468232 eV
Zr 8.750090655594688 6.200985739571835 6.860443942282352
Zr 8.633404079803922 8.055218393468957 4.830107712402646
Zr 9.213376444618492 8.740011762318158 7.821631777155791
Zr 7.316240999048757 5.223045163171958 4.722399825137104
Zr 8.254280059133416 6.330236240714626 9.566119012511864
Zr 7.080386668493194 4.157694776799163 7.6535033296997215
Zr 6.743834958945866 8.767898437927498 9.303729384009552
Zr 6.97756108500183 9.833736999341328 6.376588122830133
Zr 5.806491597155006 7.661003929714362 4.458439976822979
Zr 5.426295532166084 5.937396192332577 9.19871254239084
Zr 4.848294804379632 5.251238587206665 6.203671886553118
Zr 5.311066968565515 7.7883970478108235 7.1654055248266975
