15
Energy = -103.23604377 eV
Zr 9.866378012701981 6.328408533285616 6.761016500632843
Zr 8.571577057869574 6.4029225706895385 4.2433164405765265
Zr 8.884818201913294 8.857990666017976 5.53071902190826
Zr 8.86946520182012 8.551373437172309 8.568750809092185
Zr 8.46278296833635 5.47865920265982 9.02770073984354
Zr 7.245881475967094 4.1958674137822705 6.690380875905234
Zr 7.322509229275838 7.072224498887696 10.827344718991506
Zr 7.0005906521659105 7.01426833229098 6.829266691107375
Zr 6.604624582950003 9.931886519001113 6.832932955180448
Zr 5.8993388429675635 8.747845565970781 9.259561357590451
Zr 6.278748756486712 5.103200939525577 4.004430638719352
Zr 5.371645757588361 5.658629096721378 8.830687264813905
Zr 5.879988667534926 8.045637693179144 4.471546091239747
Zr 4.268873088144584 8.087695812242037 7.123039635137301
Zr 4.531617319152998 5.504353084231778 5.994701877040856
