12
Energy = -80.14634207 eV
Zr 6.931346305313271 7.529393433245585 5.115830564192959
Zr 6.852798405310118 4.557863893800122 4.174259231151874
Zr 4.755198223402217 6.216232611874497 3.501359339422828
Zr 4.400496979016037 8.892964500687409 4.6215743704865115
Zr 4.228503706037743 3.930753419563089 5.143395702700474
Zr 8.632472930112597 5.295551795200716 6.1502792522332355
Zr 3.2898325268746764 6.7216582796186515 5.948703070718
Zr 6.763542457968285 3.012878780818011 6.581557352225162
Zr 5.1981144631112395 8.571071381570555 7.3018083973267895
Zr 5.618641577182767 5.536591819064065 7.13773294834888
Zr 7.776162811468879 7.395413767484055 7.947790788773879
Zr 7.917634541296813 4.7043712441680166 8.740453909514178
