11
Energy = -72.26745885 eV
Zr 8.018286717018405 10.179688770399453 6.680483898877754
Zr 5.6107705720222 6.304682830851319 5.477516639787566
Zr 4.381897744511562 6.758131207347903 7.94594147079656
Zr 7.702504117834179 4.70460285424624 5.033079766910356
Zr 5.980383345893144 4.364181026096744 7.574080247940482
Zr 6.607303327532127 8.375212347096687 8.166327819364925
Zr 8.598469395110705 5.552481438545468 7.3988386471389385
Zr 8.251169813870098 7.701859006562928 5.347544454763234
Zr 5.520273991960892 9.018920778240929 5.681694290256784
Zr 7.041937833278291 6.093044443012565 9.653698535149346
Zr 9.377932122323951 8.049562986456596 8.156904702648948
