11
Energy = -71.84890258 eV
Zr 4.810759220817423 5.294346468006772 5.202735383296912
Zr 5.8174994285395645 8.211008536417367 6.859052813005976
Zr 7.188262343920897 4.872288798252187 3.585160435396917
Zr 5.754150005813637 4.46020383781229 7.95414294286558
Zr 6.780115430299384 7.431608376192158 4.172818443822101
Zr 7.03618531682485 6.737754353469969 8.870678375831819
Zr 6.60675541026707 3.1712945091821965 5.731469147813416
Zr 3.8603656285776013 7.810550652955165 5.100745189770676
Zr 8.024360598765702 5.55859985574422 6.282302231557044
Zr 3.8675216475430734 6.479133327412386 7.806353557561497
Zr 8.468732296238347 8.187918774420387 6.649248806685851
