13
Energy = -86.62279601 eV
Zr 10.896532131884635 8.365516077237789 7.305786661641343
Zr 9.538636996756841 5.817851408576192 7.278941773306768
Zr 9.436079914818755 10.566365148211698 7.59210487519977
Zr 8.430872716302993 8.417224253543338 5.87265343753627
Zr 8.448900222000997 8.053414475779944 8.883076194092435
Zr 7.423524160155962 3.5846964216807593 7.256805109271961
Zr 7.301025113577614 5.504847434066511 9.17646753145552
Zr 6.814525984998842 6.112240963154824 6.087421596438315
Zr 6.833550542675542 10.346190983665933 7.654436226479782
Zr 5.404810321689159 8.824782888938602 5.617013294457537
Zr 5.480435260903875 7.77544668889482 8.335991744661198
Zr 4.88278869695242 4.831805876402436 7.9322948625253895
Zr 3.954334651368797 6.6828866594766385 6.064409793363047
