12
Energy = -79.5915423 eV
Zr 8.362795111170406 8.442232404616789 6.6218326142865696
Zr 8.544994281092814 4.191124415477777 8.876049378311565
Zr 6.954602675310354 8.886399479916943 9.151713216069012
Zr 8.201766262737008 5.562101796986401 6.290383987846548
Zr 6.495734069546548 10.648855727152416 7.208470472668436
Zr 6.273085510579562 6.053946402221794 8.637327312151223
Zr 5.317634276928806 5.161764433634417 5.835934153268082
Zr 6.78348934642851 7.199980796062126 4.27217721696943
Zr 6.512062640264326 3.3892612799002264 7.375046216253576
Zr 6.558809392631621 9.78742010222853 4.702223849677428
Zr 9.085394905704174 6.7969684001096695 8.966482393615179
Zr 5.320707183550978 7.995118515968935 6.702908598475953
