10
Energy = -65.63295646
Zr 9.307480351922687 8.751222436652819 8.76439252965995
Zr 9.73100902388608 6.608700838588941 8.517983986224506
Zr 8.22657394772181 11.162660582675336 9.09792148636512
Zr 8.470904940245921 10.270624187126854 7.046275325634607
Zr 8.376713831488084 8.015998887509856 6.833322868859262
Zr 7.573992751950987 7.101782541706304 8.832883988204982
Zr 6.8021247938826095 9.115671015831943 8.519218139709558
Zr 10.438658615378943 8.751222436652817 6.689184286811167
Zr 7.744168023447891 8.778567728689058 10.685542570697827
Zr 9.01256472007483 7.12773934456608 10.697462817833243
