13
Energy = -89.29960943 eV
Zr 8.44111250677448 8.441113403953693 8.441211189450234
Zr 8.441112506774482 9.985277020591496 10.865725078398741
Zr 8.488615176132829 6.965006633405353 10.894554846927718
Zr 8.4152900820826 9.938985129915451 6.009463108839289
Zr 8.463088032751706 6.918923822864033 6.0384260982517155
Zr 9.982003387982763 10.868073904865312 8.432022735914359
Zr 9.942360743333047 6.011472114108827 8.420186800220998
Zr 6.961560604811713 10.892340966207788 8.483630433347562
Zr 6.922367775624149 6.035972454436137 8.472112791252854
Zr 10.870328784851498 8.439886341905307 9.978346346013861
Zr 10.890179755662373 8.482926524965931 6.9577992573511365
Zr 6.013610177283309 8.421028934697302 9.946313181589852
Zr 6.033918522164317 8.46454180431294 6.925756188671434
