12
Energy = -78.36541155 eV
Zr 6.2426235603068525 8.524018072700681 7.832793364637797
Zr 6.010474136326862 3.776865542743438 4.448630906896765
Zr 3.7269656083101057 7.865211396885805 6.116365747716258
Zr 6.1532678842251896 8.728699849328079 4.7510286180007695
Zr 7.779446291525115 5.781550180475202 8.721243716580386
Zr 4.989193716956907 6.232246768150004 8.140516445351182
Zr 7.31097566352912 6.089212449657084 4.125620691433971
Zr 3.917922133308832 4.839881105053492 5.885843229995135
Zr 4.527866841149929 6.4528427127366506 3.596567170635766
Zr 8.346609145159123 7.414743578724327 6.4068127905072165
Zr 8.536337778803725 4.4414459622860525 6.133329044708327
Zr 6.148961881440742 3.5439269501563877 7.5318927342152975
