12
Energy = -80.72807525 eV
Zr 8.44446272134892 11.41986419278677 9.758472299215137
Zr 9.074747772277231 6.28651460611468 7.823347301553404
Zr 6.5057610087037805 9.931137402538447 8.281332508851747
Zr 8.94404029539929 10.808347625241051 7.2489537332109615
Zr 11.11596573289693 7.27777025351265 9.412922299791669
Zr 6.458674413678225 8.651390272837618 10.669112454729397
Zr 10.667468825455801 8.646484642686275 7.097516144160606
Zr 6.547991196688267 7.165871877791078 8.432373470959437
Zr 8.771223837385595 8.651390272837622 9.291737569010207
Zr 10.991620096307821 10.419217801579814 9.09445921603895
Zr 8.044490777357428 8.46456298424512 6.319440269107125
Zr 8.283111322500167 6.304357623645222 10.41988873337108
