18
Energy = -126.72853598 eV
Zr 5.522801107116067 6.918942270089468 3.2586155844605473
Zr 5.060710436636481 4.394342177452044 4.117332252127399
Zr 7.979155033603618 5.229425701715084 3.9997068993765024
Zr 7.717412926346994 8.221249325595833 3.8990905919806793
Zr 3.2548678594456253 6.782314356530782 4.89017497420274
Zr 8.020537584925044 9.398407538140246 6.412107833771994
Zr 5.211684743944381 8.976226075849837 5.546314128792048
Zr 6.770071533028388 3.305258875743128 5.910368549593571
Zr 9.660825413864533 7.16408870051153 5.597524958643454
Zr 3.465930166829494 7.737674300302185 7.552951774684577
Zr 9.038490695628443 7.600979394539139 8.283658095528844
Zr 4.239909305296544 4.957471070268105 6.906752849217545
Zr 8.978802008621036 4.763397464696908 7.288030047236147
Zr 6.108991963351078 8.533531240194595 8.528006643785009
Zr 6.745320467839889 6.490692612326579 6.382442825815763
Zr 6.404353943989308 3.7571918567973377 8.547445566521663
Zr 4.6709895682585225 6.087592477956037 9.535420629882966
Zr 7.4646308377614 5.996700157778039 9.659541390865101
