17
Energy = -113.99207952 eV
Zr 10.297149095039014 5.208952420318913 4.531717282942549
Zr 4.175313093943621 7.229826967184658 5.401589126939386
Zr 7.742221164946573 4.073779199790277 3.2202448302475175
Zr 1.164904567223626 6.979962437215499 4.949021913888106
Zr 7.453208160993293 6.309893528826161 4.572479959103232
Zr 10.530633162505532 3.8716254532289587 7.2279343447317395
Zr 9.321727444904434 8.086595660864058 5.065628493324602
Zr 2.1863732528067517 9.441231455075629 6.072289689184808
Zr 5.630052591767224 4.482778333252499 5.796984044880269
Zr 8.429740936202883 3.2433631558802993 5.642205115300701
Zr 1.9212433373465154 7.132988582605399 7.646094788899238
Zr 4.281098855604858 8.875999828912217 7.782073775957751
Zr 2.624302617729728 4.849290561398771 5.944156357366284
Zr 9.694343135476364 6.444387835308725 7.116936869373778
Zr 6.789460020304024 7.380928365074419 7.132018563234405
Zr 7.565788335556607 4.69428864984627 7.975529571422637
Zr 4.3924736391403085 5.894140976708806 8.1231286846942
