13
Energy = -86.91303831 eV
Zr 6.334504199961718 7.898017057159802 4.40618211867857
Zr 4.414541161026177 6.839666493610828 8.74410806826605
Zr 8.812721427574036 6.6624383951750215 5.016046819775986
Zr 5.9042819925114225 4.388107781522296 7.95829118298067
Zr 4.854215158895971 3.7711419752891002 3.969038784620717
Zr 4.059931355787279 5.548779838165408 6.14613570755152
Zr 6.802780965044683 5.562491302699093 2.872621455547483
Zr 8.701929233228666 5.398362906512285 7.853971930890986
Zr 7.265834059260804 4.470517532195604 5.4841919571435005
Zr 4.077131456564111 6.484200237054843 3.4371060411676404
Zr 6.921193628201601 6.243095960136512 9.854656594910768
Zr 4.0349750359489756 8.268423402329855 6.020685205353158
Zr 6.758199420133492 7.406996376168405 7.179202899490124
