18
Energy = -124.8833962 eV
Zr 9.320017477154034 8.247509910468583 5.572248970457755
Zr 7.996684586891017 7.179501883399182 3.2208821703972057
Zr 9.877964831464801 8.472145556073942 8.754178348205429
Zr 8.856491554803975 5.285762699078648 5.511166397780577
Zr 6.899928965380968 9.56950663303252 4.492542203392105
Zr 7.7656985663760905 9.834232972037139 7.299728271248249
Zr 6.393951647378059 4.892421600786093 3.728220888075241
Zr 5.030368233302115 7.527380693813808 3.4539711414745207
Zr 6.483201892118009 7.014926963637232 5.771812227872581
Zr 4.051779894289809 5.472054762036582 5.370198150999753
Zr 6.331041185963541 4.015748928336266 6.530778955640471
Zr 7.736880586413472 6.679802391564023 8.134252528176578
Zr 7.274465509173458 9.125585894787065 9.94764725688888
Zr 8.582289554646712 6.6684695397776155 10.775702029774608
Zr 5.0674077124223675 8.504617471507178 7.848903112875725
Zr 7.049242765244674 4.370568419107696 9.60249434913811
Zr 4.69940469777531 5.4929019199238365 8.280309074577913
Zr 5.6954716534474 6.860829144560878 10.455579239613684
