19
Energy = -133.79406576 eV
Zr 5.713762201254476 8.27593150797043 3.796209298529404
Zr 6.411539811470502 5.597142764128282 3.5542348794093606
Zr 8.516818952136026 7.518610845145382 4.271196636465599
Zr 3.870863828581028 6.276813666263851 5.433928604044439
Zr 4.536276491226125 9.207564917152412 6.183743470843488
Zr 7.310252337761545 9.774493789547499 5.777987648535417
Zr 5.859727581834103 3.807819906310855 5.606959721691482
Zr 8.605218640820912 4.839599105490446 5.3596579780614135
Zr 6.4081586984623895 6.738100010285201 6.369646669470614
Zr 8.814337476009229 7.248612375425499 7.420265815315319
Zr 9.420991060335288 5.669865248904696 9.799099267860054
Zr 11.036803635015362 7.973208078126926 9.032451501998032
Zr 4.062126461515187 7.443502572806019 8.296566387025088
Zr 4.680821753301052 4.736685605007366 7.995156319002288
Zr 6.399004042739445 9.301190491873113 8.525335075104744
Zr 9.274957357629857 10.067798362941694 8.030391363130258
Zr 7.490570474524219 4.203324690551845 8.035162654634178
Zr 8.576082522439057 8.398758593177533 10.295121792553484
Zr 6.493644093768928 6.402934889716095 9.69884233715035
