11
Energy = -71.49255325 eV
Zr 9.371176424057179 5.870711366098618 7.171504547297534
Zr 6.93053455274007 6.928073436271862 6.918432221584302
Zr 6.666958714728359 4.409989443395896 6.103540680367227
Zr 6.713884710183234 9.452947991364777 6.087236858479134
Zr 4.7910360545797195 6.942543048498448 5.332747563207375
Zr 4.39919315799974 5.281843879241246 7.651490136367997
Zr 9.461134290508404 8.585914574607923 6.212789352933555
Zr 7.933150076986157 6.9152798906284705 4.4473541655227535
Zr 4.979794174339702 7.995847525183133 8.398452109200974
Zr 8.168046606866039 8.40156194702892 8.780509928295213
Zr 6.845126207643585 5.475322067743403 9.155977108231093
