17
Energy = -117.62188244 eV
Zr 3.9935024025424917 6.158754921651822 5.421588478711853
Zr 5.936841612151597 4.33285972619031 5.936913830069153
Zr 6.8251163715094 6.821162635525001 4.172513014473762
Zr 3.6177178418174485 4.62245002548931 7.818431966190165
Zr 2.8866091306746875 7.519780350807805 7.69336904185153
Zr 4.8289119435301595 8.724282185061671 5.748524169191818
Zr 7.4644850591286795 4.462068933245481 8.36487634385451
Zr 8.670634166107186 4.752701279479238 5.60235683918164
Zr 5.314058758493811 6.6243130596804845 8.458179257231901
Zr 7.4413465503164025 9.624875398342708 5.38882442917753
Zr 7.371012850156352 7.0753879169994125 6.838091178689738
Zr 6.18538812345411 9.535670198505839 8.14517181842849
Zr 10.054455941138054 5.476875370620972 7.896062806620929
Zr 9.786166840311521 7.626978678793051 5.565133115673678
Zr 8.326928414775624 7.445347946143632 9.523274252487894
Zr 8.95698076429792 9.838660032085182 7.702269738989247
Zr 10.841927079972303 8.014079845686386 8.26713553738906
