19
Energy = -132.45662346 eV
Zr 3.992037560233706 3.6139008925166967 5.213101182149327
Zr 6.572269274799582 3.8541977862431294 5.353244011852017
Zr 5.368318647113455 3.9522715528384125 8.081469414570483
Zr 5.212851239261868 6.345491150438577 4.12346528806913
Zr 3.509307255323655 5.839965457797848 6.474131801414351
Zr 8.444247740289553 4.5970503238177365 7.563737824261376
Zr 8.167600860943885 5.809283969864677 4.519268445094522
Zr 6.752724814728222 5.708002945508025 9.898867034377432
Zr 6.532416704964759 6.609119155201501 6.940998002396577
Zr 4.261983289011252 6.630962290626933 8.929852078609057
Zr 9.158084316155565 7.680433636597528 6.547544913828511
Zr 9.024525127517649 7.0878638444713875 9.434799356963975
Zr 4.57406946917727 8.551518638443621 6.366167890547986
Zr 11.378078642493202 8.665227225915755 7.902057357570551
Zr 7.117246172760641 8.520608215558589 4.480500720734246
Zr 6.331327386517364 8.635450384715277 9.22371495421133
Zr 10.009417398630399 10.291731209601673 5.997000542745611
Zr 9.030857639033345 9.932398527892964 8.689685439259435
Zr 7.075265171282593 10.106145045709967 6.714751196049953
