14
Energy = -94.63630167 eV
Zr 3.4539461872105726 9.260008847059682 7.354003015454527
Zr 6.007514012387018 6.177309421673014 4.2190801519663115
Zr 4.5119950691095365 7.021606713702918 8.644625501536204
Zr 8.141402770382912 4.410145202864477 4.992547700013823
Zr 6.054409991468942 8.427854454440222 6.32439773546639
Zr 3.727866603904649 6.770971650271783 5.8750617496144475
Zr 8.429033967208461 7.153882834063517 5.843618936163097
Zr 8.775825510007174 4.737040704132371 7.789646435792595
Zr 10.253340478145724 7.201521876506952 8.080471413910487
Zr 10.726407718661848 5.351233414531359 5.894279572943954
Zr 6.012370267770938 5.176700063632599 6.927144869637281
Zr 8.498004817672877 9.479499835104503 7.852632723040322
Zr 5.842519983423975 9.569596604970943 8.971145545554776
Zr 7.42380364234357 7.045871486393596 8.994686855701987
