14
Energy = -94.33901089 eV
Zr 5.265228647140942 9.119971426683962 8.906402348289156
Zr 3.5279414373999067 8.573521902827776 6.62191538673392
Zr 6.963035493505972 4.599995046473342 8.685051483623237
Zr 7.257777931458771 7.334518595360413 9.456348830001135
Zr 9.577520857084787 6.009781130176865 8.289416982210415
Zr 8.671321742805574 4.021523948241338 6.418015264246328
Zr 10.058743941560992 6.660778621341734 5.524580514837225
Zr 9.05731827278368 8.788471963577665 7.33412825669296
Zr 8.242699255301222 8.546422487619603 4.567772269840974
Zr 4.677086758840299 6.334692171523468 8.014139276774667
Zr 7.246847225135234 6.59104223844563 6.463774730269218
Zr 5.683478229046406 4.2333470538639935 6.139553232794854
Zr 6.2710744971189785 9.465999508340863 6.3117586982006575
Zr 4.8540846650021034 7.15345765215603 4.851579788957362
