17
Energy = -119.19099407 eV
Zr 11.401419630325107 5.726310242261274 5.708708629831717
Zr 8.230158244928193 5.447263528624792 5.224079007657476
Zr 9.956343236477442 7.900409241541027 5.184891157541621
Zr 9.814926285794954 4.985564982253988 7.7214831279339835
Zr 8.582848077901842 6.249375873144038 9.98449893851453
Zr 8.943671236356256 9.285164345863665 9.669447448256342
Zr 6.435574812012502 8.230121315989209 10.509150093237526
Zr 7.509277363457069 7.527729414153018 7.555046830217949
Zr 10.568133411466366 7.806019591084916 8.067237846183534
Zr 8.786550640461677 10.028164965286633 6.694650180960193
Zr 7.139838463951534 4.462483930030689 7.728747921331841
Zr 5.415862333877289 5.880667572227693 9.170654238360099
Zr 6.560816580692334 10.418747619981993 8.60160910880625
Zr 7.3240582630518904 8.116196885105294 4.5312926108392775
Zr 4.521507005831662 8.345188397755832 8.304154766279755
Zr 5.3256692535837695 6.340002503803327 6.0616902139307225
Zr 5.611129933349308 9.471622102597252 6.0374007781935335
