11
Energy = -71.23287072 eV
Zr 7.781450251159737 9.879110085263138 7.120694914357553
Zr 5.227281642117439 8.317032298587234 7.267416670751625
Zr 9.995128791272984 7.991296184527397 6.442343533745009
Zr 6.857352247414821 9.45266602165306 9.54485317788422
Zr 7.39985924005788 8.012737740742457 5.059860954284196
Zr 5.42324423604504 7.335448994980342 10.085102246937872
Zr 5.921307352282459 5.688477030876265 5.82709487894591
Zr 10.354607326975364 5.425344870208719 7.478094129403266
Zr 7.638106535879598 6.873879174582478 7.969518156425467
Zr 8.834512597530614 5.59939112798679 5.310218837396909
Zr 4.7254750248956485 5.584596394777661 8.236791245852197
