19
Energy = -134.20531597 eV
Zr 8.54215494177887 10.109451166909972 5.640578228565519
Zr 7.90243703295718 7.120913957186797 5.726563808059492
Zr 10.621615859110783 8.548206805130414 5.708927704510827
Zr 6.067332943508961 9.40531909380539 6.884751673344055
Zr 5.9765910884863 6.638722121115824 7.855876202016387
Zr 7.870265682558373 11.65410527216049 7.703381014709641
Zr 10.553927510627437 6.054626164624209 6.874660602623844
Zr 10.621559163672066 10.766773405045502 7.817576292784582
Zr 8.306624717522281 5.16986017662325 7.9946365738748995
Zr 12.020491343899918 8.08441502385685 8.085128037590277
Zr 10.46733360048659 6.214415079387742 9.921841373822614
Zr 8.766231166301855 10.887429521824814 10.389207481060703
Zr 5.859831198115374 11.085655213545353 9.399042065024732
Zr 7.429294444515805 6.088784069110559 10.423932401587875
Zr 4.393584605783683 8.492433180939496 9.129222878219194
Zr 11.131772380387385 9.195271603022388 10.360659845194503
Zr 9.00636914946103 8.100417825476569 11.63798963832127
Zr 8.778431896620363 8.358004831715256 8.410402589006509
Zr 6.515366646391415 8.856410860705234 10.866836961869001
