15
Energy = -102.07519002 eV
Zr 8.285043721534587 9.31358677954253 9.049707563429164
Zr 9.137990691997887 6.568997144515917 8.208513162652793
Zr 7.497756250138766 6.798602424017061 10.429448216911421
Zr 6.743163097620412 10.318203499089906 6.868974171510351
Zr 5.756223361832025 7.987588201227932 8.43078017531319
Zr 9.273509449924559 9.189900479893616 6.334089365723455
Zr 8.622714987087482 4.1900374656736 9.682507307844197
Zr 8.527090784849563 3.9854010587730757 6.870941790951505
Zr 6.200341490869828 4.996678173792692 8.36052315885194
Zr 7.313344707166834 9.30844339258261 4.245962084088901
Zr 4.772830131564556 8.790832915809574 5.601061874104784
Zr 7.371325794244287 6.963261548771715 6.009360112509645
Zr 4.394036676490272 6.145125494143572 6.387927888580669
Zr 6.24064106604613 4.247318848601195 5.428768534373181
Zr 5.615900989129166 6.770937044574047 3.814999917877346
