16
Energy = -106.94213568 eV
Zr 8.034382866998818 5.435688910678974 6.723958737170264
Zr 8.825764060585675 4.150215524336168 8.971585009844356
Zr 10.166002859440864 7.4133324710918105 5.755745354323635
Zr 7.094269679124055 6.377565674006899 9.596026313132915
Zr 5.333785285832031 8.88555289814593 8.734840631229048
Zr 9.742401397027816 10.288030248799267 5.62425847648952
Zr 7.642677094078079 8.349675628749875 6.892735912642665
Zr 7.964770605249173 9.085615886686464 9.980793401302558
Zr 7.330119297125946 11.020814623689102 7.425235898933024
Zr 5.347788126611217 6.474200787927042 6.931067079528177
Zr 5.944206892079609 4.028959182436259 8.375375373008048
Zr 6.664411165762518 11.473739715150947 9.971138944576472
Zr 4.214560146028534 6.10293419551953 9.414944411669007
Zr 12.00593638243038 8.819526989245183 6.9996542057941005
Zr 9.9487096560541 10.15123300081334 8.41355774501941
Zr 9.91439826183569 7.038639306441246 8.744103556645738
