12
Energy = -79.09198205 eV
Zr 5.337356582008958 8.716726507805507 2.7418554101100923
Zr 4.923857658758446 5.883124946749823 2.812101597390447
Zr 7.401666535454177 7.246443419253121 3.567451401160602
Zr 4.6157953398395986 7.382100143711496 5.132950122601997
Zr 3.9616913689304387 4.574954126781327 5.436786386375814
Zr 6.720800982189222 4.987356102749349 5.0622104885040144
Zr 8.089879491536694 5.166193783779981 7.535417157977578
Zr 5.763616802952314 3.3294493283803943 7.378944730852021
Zr 7.229436214154807 7.8289724567068655 6.465300699097532
Zr 5.1229710250550555 6.1274218920629515 7.747540862879157
Zr 6.522740182996333 4.549354120973986 9.800001218160995
Zr 7.300906404522232 7.198621759443502 9.31015851328787
