10
Energy = -65.06934235 eV
Zr 4.993203457261913 8.161989344476964 5.732779608463103
Zr 3.695976178991789 5.625689352699352 6.2189332222197065
Zr 4.021938682717389 6.587464452463723 3.4994685108143906
Zr 5.572115007583903 4.3305846215099715 4.448198195936387
Zr 7.714727908679714 7.631927236523443 6.647521405211048
Zr 5.475448917852166 6.755219272499672 8.244601056762084
Zr 5.88102341654506 4.041613915013607 7.337655654982477
Zr 6.869064024319435 6.863771366150152 3.95983659301585
Zr 8.126955780689789 4.9210806675494725 5.743904255872449
Zr 8.065465997200805 5.496579142955239 8.583020657547678
