13
Energy = -86.35918251 eV
Zr 9.820668756382249 7.316149809531025 8.856490649585902
Zr 10.053996800159242 8.131989387805909 5.8300360928023345
Zr 8.960138485510798 5.709082928003507 6.605450323440821
Zr 7.968981600164835 9.002229175152927 7.867453097566305
Zr 7.546576470566649 5.50959855516596 8.88570523154163
Zr 7.16650725487656 7.718512494622556 10.506058707005804
Zr 6.321909330218896 4.5148253140376955 6.457873301159489
Zr 4.796335023811659 5.828884264219954 8.881883674742248
Zr 5.1477999235652065 8.544085110938047 8.847243063384214
Zr 7.685732536069116 6.240996323354437 4.207227267145234
Zr 5.642724541337293 9.916307919217227 6.515348522529302
Zr 7.604694915638498 8.898417641341478 4.870768490607915
Zr 5.590881425090168 7.099622080174723 6.238073040262626
