15
Energy = -101.79275629 eV
Zr 4.325783762915931 7.907459356649787 8.880479707358472
Zr 5.200855524466455 9.958186804312486 7.102452090962745
Zr 6.67555704793748 8.898154121566947 4.857899299092701
Zr 6.232859906174283 9.80698482111697 9.85223450892845
Zr 5.190920216103893 7.068915526177846 6.326884852399672
Zr 7.600072832337068 8.325717662300365 7.691087559135317
Zr 9.467425444856842 9.140930875769572 5.505165767327577
Zr 10.44316473458788 9.010062816894491 8.219459124122048
Zr 7.978796321299347 6.394300376969159 5.355005140750579
Zr 8.766223854537532 8.516822904861653 10.49600138055863
Zr 6.606172164686048 6.8236649600684975 10.152666961366283
Zr 10.819067320363414 6.851981997286862 6.4226141686429905
Zr 9.330407558789503 6.161063356495009 9.008907174344973
Zr 6.66791632535784 5.1061920322630865 7.841876007420085
Zr 9.367958967106585 4.457606438775953 6.809484754700428
