13
Energy = -87.1404408 eV
Zr 9.660300814318063 7.427448265164927 7.086906526644881
Zr 8.242653713448158 8.657889058128788 4.823295692421453
Zr 8.93160961241715 5.82961420164045 4.75232332964619
Zr 7.546104322554724 9.451639891113418 7.527957292979437
Zr 8.701156827071726 4.770358205828201 7.938215120161028
Zr 6.115386632550076 7.001643714920343 3.750173256675321
Zr 7.087708462903293 4.746525991451553 10.508348780213357
Zr 6.850258902713358 6.576869034957939 6.466246585051845
Zr 4.017876324277074 6.679681610387994 5.997729641257189
Zr 5.417300254049649 9.12739147126935 5.637860097815105
Zr 7.799051227956432 7.165328161510004 9.348907558417055
Zr 5.603698244237627 5.002042884210255 8.341048906906822
Zr 5.086104041101102 8.015516889007639 8.373349040643395
