19
Energy = -133.06473489 eV
Zr 7.462388315323018 5.1103305776187 10.314435631618691
Zr 9.011900562458223 4.083609063471491 8.221415280517627
Zr 9.901768569002632 6.576259414631058 9.564775150875132
Zr 8.323595842359497 4.750519996968798 5.448060013005695
Zr 7.643660717985134 8.143928591878007 10.200081957664949
Zr 5.877274412237539 4.421587204027046 7.755335386312795
Zr 10.49713475921687 6.143931741151594 6.873734135210657
Zr 5.259510046124987 6.691186257393852 9.794929491105156
Zr 7.5595438600755624 6.6298948376131115 7.639106849190759
Zr 3.813859728654574 6.872881731543614 7.545975267521428
Zr 9.048568591014547 8.951637680792734 7.618732870271947
Zr 5.86942944542743 9.134407059768018 8.044969845744296
Zr 5.844543903451484 6.582458080861069 5.315023614416832
Zr 3.1462522680731655 6.449387796335541 4.6498059561927585
Zr 9.217225788106088 7.559338655824489 4.916159946804823
Zr 4.025471642331406 8.980417415356676 5.736468793695438
Zr 7.016784996873086 9.386955807663485 5.187084192919736
Zr 7.332862594493319 7.3124690397261105 2.948446172322017
Zr 4.84570388284036 8.379254645589846 3.1922451413309334
