15
Energy = -99.68560558 eV
Zr 8.84759078629242 9.008147836089078 6.266603974763774
Zr 5.846477167465829 8.13489014965058 6.224415443148907
Zr 8.036117510813996 7.305095350027593 11.141603943398039
Zr 3.1506788238082 6.866450286667662 5.775444044041712
Zr 4.293938735941936 6.740068900841613 8.365449666803705
Zr 6.975436194921008 8.713781424194893 8.844314879296732
Zr 5.539698976931806 5.256291591093546 6.046290372673792
Zr 11.23545257215469 7.393569073980569 6.546290082467244
Zr 6.891073301470485 5.7049264458781686 8.908711139586522
Zr 9.634193781568236 7.690023224707394 8.861186959058733
Zr 8.504177779742548 6.1396764714398495 6.535623176217332
Zr 4.681781963325799 6.876990945261759 3.6997625418902236
Zr 5.433232509956499 7.2113035285008475 10.90121525265038
Zr 10.122085856362915 7.263416035118405 4.214581052727857
Zr 7.40081184370703 7.0837485877914395 4.020886153418263
