12
Energy = -79.83493453 eV
Zr 4.857821738385881 8.978603763703298 6.598508883744025
Zr 7.754444124514676 9.910126007603578 8.082732763571778
Zr 5.934274355173052 7.924820170568088 9.00353215685412
Zr 4.840786740604077 6.184565127135737 7.098335576293965
Zr 5.632405555298937 6.532377093589699 4.3887716760082
Zr 7.32192002409215 8.485502172205834 5.632436330676059
Zr 9.765478954006925 8.093985246006035 6.977545905077525
Zr 6.567950613423716 4.229368664725859 5.962277666180644
Zr 8.5012996403137 6.0788822596362895 4.770065999741788
Zr 8.682465739950352 7.605139770412615 9.65589130569136
Zr 8.468594451957909 5.665671799079206 7.555280512318049
Zr 6.41705885369354 5.134802139686465 9.214410720118082
