19
Energy = -131.37624573 eV
Zr 7.667578449585451 7.026552879205567 3.5549593428639534
Zr 6.853084384163024 9.73721312700711 4.077303862553946
Zr 9.543389669529367 7.704506220268988 5.631803772843298
Zr 5.047628895854373 7.4994917916213035 4.333475823390088
Zr 9.091660258724573 4.863211157735181 4.850547305178017
Zr 6.059021688059399 4.789238113037413 4.246442765029386
Zr 4.488725416987016 9.69033547069717 6.16848900144367
Zr 7.006820843753291 9.067893872254803 6.710784796631557
Zr 7.2237512172919605 5.527924271817866 6.621747528357006
Zr 4.496519297015523 6.862365908806746 7.078842312416379
Zr 7.608480008270943 7.283410203321885 8.547376894520443
Zr 10.01613214165836 9.056923313225758 8.140142278635954
Zr 10.265969077623916 6.086826731411962 7.915667225510107
Zr 5.380171683646091 5.527473322640895 9.484545929961829
Zr 5.038550157928086 8.498385997034024 9.390429607039978
Zr 7.767985064336391 9.735919554397494 9.956267618302347
Zr 8.255939693044951 4.850186017003383 9.860198899760931
Zr 9.703589917109733 7.440913220441682 10.51681953456339
Zr 6.898327037765506 7.164553730419565 11.327480403346176
