19
Energy = -133.03980701 eV
Zr 5.8989881169455165 8.268157533146633 9.455182956557103
Zr 11.671887126936646 9.309635761694379 9.937540426077064
Zr 9.950245241820046 8.041044032802807 5.550209770440377
Zr 7.951459878325641 5.945111208725812 9.48304276109344
Zr 10.211125260980271 10.162368195165866 12.249182101257894
Zr 10.839776183030587 10.586430011604 7.061424583147402
Zr 11.870021555986392 7.8836570384422435 7.491995190374184
Zr 8.220081108024445 9.952952714952447 5.539690999456959
Zr 8.252582463053358 11.92557962569403 7.43735709051512
Zr 9.578859866725946 11.592771803673262 9.904847854040856
Zr 8.864812858426879 8.837892652644506 8.526217418909006
Zr 9.698928823855796 7.495193109478143 11.55926075056793
Zr 6.581387515819469 11.22866532362051 9.558767641794953
Zr 6.933566464581946 7.202057203546316 11.850884193712869
Zr 7.488249024220197 9.950663682158176 11.561338881847734
Zr 9.666942669131599 5.890219372139865 7.219204726270137
Zr 7.151248138839473 7.253582931076786 6.612048254862226
Zr 6.018526987413897 9.909647841384015 7.163026902713106
Zr 10.955563686165412 6.368622928333952 9.643030466645527
