19
Energy = -134.02937683 eV
Zr 9.786570622162069 6.862112398353113 4.549749444402437
Zr 7.883650107977051 4.885238373635242 4.932762813865737
Zr 6.955900194300166 7.298545942375742 4.063697433874025
Zr 11.007317941438147 8.102395844490754 6.823050838783762
Zr 9.727144267282679 5.465613465549478 7.236802474632476
Zr 7.2136659219830275 3.9654271344075576 7.368931217114852
Zr 8.522139699964669 9.27643913584843 5.6791754059333215
Zr 5.107113487032608 5.630128663398925 5.607349675270431
Zr 9.603880554672315 10.10639731063835 8.27935342881632
Zr 5.27802398806981 8.892706760056655 5.681470780455448
Zr 7.054227939423665 7.152941465704063 7.39297147331387
Zr 5.126481183234307 4.915733006527683 8.598538185162196
Zr 9.900829961663362 7.506004033602296 9.309649372676397
Zr 6.9053129886758065 10.690684593674321 7.509844420418957
Zr 3.7714054208850047 7.1787465390273635 7.600288124970233
Zr 7.808163724062014 5.626632674110073 9.816545429108572
Zr 4.876339379566886 9.482595544650254 8.594517120391266
Zr 7.445701085411177 8.881691320033704 9.966126105312089
Zr 5.201131996390176 7.131949750762062 10.165563108312442
