15
Energy = -102.3290714 eV
Zr 10.27536529630947 7.721617308355924 7.715576565294783
Zr 8.732070910520243 7.493308115522906 10.184971809630401
Zr 9.033373322021976 5.195232880001309 8.530323485711488
Zr 8.615367293158533 10.0835590889474 8.16588180165941
Zr 8.613278226900158 5.94207690803096 5.5273297655973295
Zr 6.421988773782826 5.690273802696938 9.776428830118764
Zr 8.856659809621013 9.053568626905207 5.52236386834886
Zr 7.418301554643521 7.494372493565904 7.589378934256738
Zr 6.224527235195578 9.992766290789703 6.425914790567362
Zr 6.604294555134264 4.328470540538603 7.305045207023259
Zr 6.4414761435735945 7.9438620053720275 4.486992082192257
Zr 5.715910413148462 5.285051332669847 4.8525986682572135
Zr 4.8243634362905174 7.16922009185208 7.31353549351814
Zr 3.6757518346950797 4.7798613720243415 6.747957103803252
Zr 3.5723211493242983 7.131525540963921 4.904859449041018
