18
Energy = -126.42360568 eV
Zr 11.65288102325545 7.502431553211009 9.875647422042096
Zr 6.6350934533999375 7.98058253709071 6.883478087428125
Zr 10.01700545727589 8.40941228803893 11.899322995488554
Zr 8.282958094147427 10.555883629515316 11.113369081117224
Zr 8.78060717887974 9.342198514920026 5.331377941904105
Zr 9.101001996891805 5.723352488110836 10.714308695741511
Zr 8.413331724785172 10.692250738303994 8.27864249204125
Zr 7.8973993133411415 5.232829848401577 7.910822083912633
Zr 8.817397249094832 7.970208691388503 9.047837733445133
Zr 10.943860087569444 10.294763174346865 9.69674779313218
Zr 7.250648710336442 7.9500706567245505 11.753439572279866
Zr 6.211262443105346 6.60879797383363 9.574511728985398
Zr 6.745330246370501 11.034177026379156 6.368657345112727
Zr 6.0059709504351435 9.480841338401893 9.4260321059018
Zr 9.207048319216875 6.662512223659787 5.859802653621225
Zr 10.685428126232132 5.695935858738413 8.066095542686224
Zr 11.07621173440771 8.723528321640075 7.130574459646298
Zr 10.020593305921583 11.599941389736127 6.514978464698336
