14
Energy = -91.83789344 eV
Zr 8.130271654865803 8.440357104822285 3.4784361905017787
Zr 7.791429790133508 8.475645372944863 6.3714413581378855
Zr 5.699469868752784 7.33625308969197 4.3958950585345224
Zr 4.942747839428451 8.373609575693097 7.255312019659066
Zr 8.431927906233222 5.933502005820642 4.673155891252164
Zr 7.056515634207962 10.402724218424057 8.50697810974031
Zr 3.506059643999076 6.182089203650341 6.116744560685665
Zr 9.362660306835618 9.26102629325803 8.771632736491979
Zr 4.4400740141959165 5.931089092852078 8.776465055026117
Zr 6.99882671161014 7.498313117692104 9.1797464658949
Zr 6.371542212208866 5.680711969806475 6.650692051748325
Zr 8.55970030954921 3.686122544453919 6.664687691280693
Zr 9.243112518825122 6.255778343977634 7.7021304282972345
Zr 7.376409251823442 4.49949219809164 9.096975514051946
