14
Energy = -95.64213935 eV
Zr 9.000187289081685 4.565543192956519 7.163495390131472
Zr 6.455688156803092 6.407575982009917 6.645060319787024
Zr 6.719589289355714 3.320809207431401 6.0781823895516105
Zr 4.788289880178591 8.86338662275972 7.606145778917146
Zr 4.935054325804399 8.481203380816744 4.77973668373484
Zr 7.479288208320531 7.587474899595937 3.8839449964214623
Zr 5.262377130156709 5.46097990477299 4.264543882551957
Zr 4.225776355061984 4.211369301972757 6.9976476507671626
Zr 3.300635999442311 6.780673662021548 6.294937294582706
Zr 8.340351098189526 5.004186840698846 4.478943005878598
Zr 4.232288758722446 6.295285467173833 8.896599244384989
Zr 9.3676854714985 7.233679558309837 5.991027069567414
Zr 6.462967698282503 4.234336128528237 8.762359241737437
Zr 7.297774807585114 9.421450283362335 6.025331484396937
