12
Energy = -80.12517408 eV
Zr 8.77813586208559 6.8015113953548285 9.244875852517508
Zr 7.172432575203908 7.155601092868092 6.98467689282818
Zr 6.726429602394228 9.04737966014596 8.992448999720152
Zr 7.7059807000085465 4.40444676946783 7.72640842781695
Zr 8.913797227691001 8.636256461731229 6.017621600595652
Zr 7.799799561828309 5.423192900167688 4.86971022185523
Zr 5.75452351646392 7.659770465730301 4.61757534673888
Zr 5.179199525499306 5.2606986001100715 6.330679061522265
Zr 5.820260048182562 6.17644260022361 9.269461035576013
Zr 4.420643921475282 7.99918838843583 7.321685525506132
Zr 6.204215214915565 9.97503298513314 6.2922255244301555
Zr 9.945349049974956 5.881245685785202 6.753398017471078
