11
Energy = -71.69660366 eV
Zr 9.309774532954444 4.80604070191191 6.954465860347296
Zr 5.360760855163331 9.02052098589229 7.398690932304366
Zr 8.05475029457141 9.30364603286845 8.314746671257046
Zr 4.860727286226359 6.544245077271584 6.059496993940048
Zr 7.030651716044642 6.456745037578551 8.167480791589838
Zr 9.840231814412357 7.615039566826674 7.280874393925942
Zr 7.008300741750611 5.172110421445398 5.266831486011059
Zr 7.4399925045662005 8.102774535026247 5.573467381256098
Zr 5.989230516163802 8.448902566714292 10.118745986316167
Zr 9.6568710158272 6.280539898572338 4.680356910977737
Zr 4.161581404304418 6.869814787901317 8.833376011322418
