19
Energy = -133.91394532 eV
Zr 8.171463627687526 5.906878795056994 9.82866034440942
Zr 10.777788379555746 7.300264172376308 10.262089885335858
Zr 10.383979025407774 5.663338548330731 7.8877184084982765
Zr 5.661091227634253 5.295038836207354 8.931505137048005
Zr 5.702672593790257 8.221140418474484 9.755369608521324
Zr 9.472442040081617 7.110587631282909 5.352325968093609
Zr 4.070272144532427 7.327660999737377 7.665613394739314
Zr 8.31891889361252 8.64623704314136 10.787681935018748
Zr 7.9711966821149485 4.541478800131277 7.028587621119456
Zr 10.381829590663315 8.443573536276423 7.7734477413318785
Zr 7.1889393532379025 7.441515630804639 7.24016422196247
Zr 5.16598794416357 5.049694525799131 6.238779290976057
Zr 10.162926435941907 10.39009098762083 9.588933813127023
Zr 5.538258004973311 9.854523417405892 6.826250023466737
Zr 7.106778584863439 5.941026996475658 4.405289563479727
Zr 7.427694926056143 10.43629810914307 8.860604270967979
Zr 7.201323485198405 8.809089612642323 4.410963525843409
Zr 8.629299107031542 10.12430795509814 6.25937815341844
Zr 4.790859818611589 7.6475041049799355 4.990452804827384
