18
Energy = -125.98624862 eV
Zr 8.014882340144808 8.243716207012032 4.473499050921723
Zr 9.757374284444774 8.894465620399702 7.001174537566026
Zr 9.690411664531203 6.19913367980412 6.228443575966426
Zr 7.560046649057873 10.564686860299371 6.465651331433161
Zr 8.290290312874667 2.833267236425431 6.12642818758225
Zr 5.215835170449289 9.492743691546496 5.347399535995746
Zr 7.727154447488186 5.270980974675905 4.479679939582066
Zr 5.081332906216477 6.6261984329423855 4.811521577974717
Zr 6.928035459515187 7.668094244001906 6.989507970023113
Zr 7.960531778751207 9.503704372893445 9.231265764458639
Zr 5.635268141329509 3.6889275885833426 5.411053184648877
Zr 7.4156695264601105 4.921027249822334 7.707136976331859
Zr 3.8367177331794555 7.848532495216891 7.267283551572512
Zr 5.349868803502493 9.963586038544817 8.28093792531122
Zr 9.091266103915075 6.932867524629831 9.045360698990056
Zr 6.032584835366762 2.558606103490335 7.942377502942487
Zr 4.441813295826234 5.247363298304873 7.532190639876927
Zr 5.862103367637131 7.200610253847195 9.576555757476184
