10
Energy = -64.95568012 eV
Zr 4.213511459978352 7.514718342042777 3.8803001665218613
Zr 5.809960444883259 5.100132107227514 4.481049116764904
Zr 8.378265767209859 5.820703824467162 5.776259757566773
Zr 6.888493885098857 7.9675060753019995 4.629110642174961
Zr 2.977950098514768 5.500029867628156 5.034300893018297
Zr 4.468033136817493 4.00006740211384 6.9107837385992665
Zr 7.596244473232484 7.846603490808873 7.483024399987034
Zr 4.919289640001215 7.020255482032751 6.660370051668196
Zr 7.2366241871834465 3.257081557197721 6.247375351814366
Zr 6.750086827020917 5.211361771120265 8.135885801825543
