14
Energy = -94.37984452 eV
Zr 5.651018433113227 7.324498224492738 9.561669081006928
Zr 6.717651672114985 9.792040802806047 9.820250439069708
Zr 9.723265390773419 5.714072428045538 7.815447589692162
Zr 7.282534416046397 5.0798352390273385 9.424038961331346
Zr 7.824400964879568 7.942741878511647 7.543611231091436
Zr 9.662314065945957 7.885047325467382 5.327708213297646
Zr 7.779769578409883 3.6889309525561123 7.141261188783124
Zr 8.274903537347456 5.492725001947316 5.172345235557289
Zr 5.401395447338763 9.198513715032774 7.117089236729344
Zr 8.549465741487165 7.395803726819518 10.285374417292804
Zr 7.910313761139702 10.994997578512699 7.841875555652923
Zr 5.7396335783689345 5.908517114870608 6.887765074928539
Zr 7.7060191225491526 10.210201629456853 5.366130664750108
Zr 6.750501722446325 7.76516188096807 4.721840604923083
