18
Energy = -125.53808577 eV
Zr 7.157235018478643 4.120012811906366 3.6801003264992898
Zr 4.72015333160813 5.789803225369738 3.5505611755855044
Zr 7.338052221291262 6.960514405880148 3.6362979286000163
Zr 9.04913706031462 5.100629568803121 5.91039304035131
Zr 4.707232792030965 3.172834046251648 4.84019136048199
Zr 7.198716104794042 2.8323536446161754 6.337131856344834
Zr 6.41159077244119 10.24961901825614 5.129879185384313
Zr 5.162730781052914 7.950815929644416 5.859286332289516
Zr 6.2575039332649 5.6094355772453195 6.173542457935125
Zr 8.518162958858838 8.179094809333229 5.648132958682764
Zr 3.2240802068195435 5.421413151233525 5.967072257621479
Zr 4.7818605560540135 9.8229038577774 7.800305830732701
Zr 7.646103765695741 9.835545347628605 7.685262479396867
Zr 4.669634470271215 3.5068702808918903 7.694375511541886
Zr 4.33296301935543 6.222274431395224 8.493368227833853
Zr 7.363250086232054 4.690275808716871 8.636907924128325
Zr 9.121806684255146 7.026219846961919 8.154319494053473
Zr 6.493488757387515 7.663086758294391 8.956574172743363
