10
Energy = -63.95301215 eV
Zr 9.836695548627512 10.453453141974279 6.252730245516209
Zr 6.039492525566305 7.022785014068746 6.524653526066582
Zr 6.424586984853779 8.802027322284728 8.883993822040674
Zr 7.980903648526266 4.843650145872234 6.262105300340443
Zr 5.186414609629664 6.507242317433326 9.303111231677848
Zr 8.090522281420592 6.337216094524902 8.770335366048856
Zr 7.21285663044648 9.869580681169255 6.323035858855585
Zr 9.255692176963537 9.202754206088073 8.553311061741052
Zr 5.985536340574091 4.33861327808291 7.923867339064662
Zr 8.961111339472412 7.59396293134926 6.181767351532733
