18
Energy = -126.06636762 eV
Zr 10.070667620583853 7.287111776718811 5.654534569996461
Zr 8.047534545255967 7.516328819035152 4.003694592143605
Zr 7.994084250258321 9.629156408729509 6.173853371449545
Zr 8.290940023138338 4.752446049791655 5.661743198619733
Zr 5.492118123978869 8.524282350987471 4.854303476446037
Zr 10.10008094958093 8.455834015400548 8.08272007363312
Zr 9.877378524365549 5.550121084899618 7.906459461151376
Zr 6.119592653821575 5.74213195110012 3.9045619251792965
Zr 7.17817791295083 7.010289766266857 7.150797478365826
Zr 3.5014297094309854 6.030527573817106 3.9875571990381835
Zr 7.731713796088269 9.360740844462777 9.192112581920457
Zr 7.12805657437417 4.595759396683878 8.775616658450703
Zr 5.282719355026049 4.529535511036453 6.362435325756693
Zr 5.208405413111806 9.043609242110257 7.895826144446108
Zr 8.79761482942866 6.804454032197104 10.121148929788742
Zr 4.441297435575185 5.992942966045821 8.685712298995202
Zr 3.6081953361800347 7.027931248678438 6.420261902578729
Zr 6.142358482879054 7.235229614855696 10.235636387674203
