17
Energy = -116.90495189 eV
Zr 8.087132697523716 6.8691248160419445 4.57266630898229
Zr 8.397339407019324 4.148888155771024 5.636674393884861
Zr 4.964999279681795 7.2479638785611655 4.2069136430782
Zr 6.555909876219469 4.664805036775269 3.499098404854574
Zr 3.8288204326140445 4.303852656892854 4.234350662768244
Zr 6.521129277423152 9.126228902021381 5.779772230990514
Zr 7.2720958584273445 6.844266143604826 7.929038629418348
Zr 2.743762174784044 6.172480961954673 6.149991982024875
Zr 5.869124799251378 2.5598748825410746 5.349811518261188
Zr 3.4747620064449296 3.5275776415812072 6.975746797542297
Zr 9.989254280743983 6.234110222114519 6.789496592715672
Zr 4.000237155699394 5.853643276270826 8.734669328043195
Zr 7.102809643350224 9.486397595400831 8.648568533397107
Zr 9.125445360139082 8.951619061201868 6.533230811268456
Zr 4.41334168751889 8.222580354305816 7.248168359629558
Zr 9.616332392724376 8.00928231793256 9.0837233692067
Zr 5.651248796115962 5.391049222709609 6.241823559615369
