18
Energy = -121.55390561 eV
Zr 8.656191623074939 12.4298235265015 6.294059807413555
Zr 9.24318911784647 5.710621893781155 9.872368650213613
Zr 10.957998376721076 5.314942757491656 7.895238630584517
Zr 9.54401535517295 10.230085115892814 8.014351794041637
Zr 6.611619919416056 9.75385033185768 8.159929462139221
Zr 9.821250024073395 12.92664100729903 8.972037549537298
Zr 5.96519693631467 11.720242699716666 6.134509686413377
Zr 11.151144435671243 8.004685139250638 8.20515065191465
Zr 8.19871564989819 11.155672109488755 10.616681525465358
Zr 8.393558827753568 8.326013474858907 10.229772375084046
Zr 11.863106928540766 8.60410488090602 13.082155441352247
Zr 6.972610436374932 12.748504892817078 8.598683095587885
Zr 11.026926517155186 9.895678384486242 10.587909549908467
Zr 7.867877908631236 9.69059332670823 5.486879494231568
Zr 8.443562605342366 7.356618023233746 7.402076510487444
Zr 9.295111307998074 9.642291169226553 12.995059437913717
Zr 11.916778515398477 6.8123240486259276 10.602790612516685
Zr 9.74989564656746 6.85981257683404 12.46959020144896
