14
Energy = -94.33680245 eV
Zr 4.964737696648147 6.807292642707814 3.8736349372745416
Zr 4.5372278179133705 6.887074595859529 6.635159165856892
Zr 4.893613277581772 4.389333079604432 5.684932667245437
Zr 7.310828896224869 6.107914503241473 5.079223617428056
Zr 10.657709824795353 9.288032397221297 7.5287870447412075
Zr 4.926371389619583 5.035089735252724 8.874718172759637
Zr 7.170278798361151 4.695982322251783 7.440950945883757
Zr 6.244345839534084 8.907056109688181 5.827144591899804
Zr 6.266588351232807 7.8687502912671965 8.687307280343681
Zr 8.056975550318992 10.052002900419042 7.607397945397665
Zr 7.712816017946481 5.802353531218861 9.977838018093669
Zr 9.03285187908545 8.775891183885825 5.116407541426402
Zr 8.964703776094467 8.46471300721752 9.811152165630611
Zr 8.98407414321769 6.988488250810728 7.3481855381493375
