12
Energy = -79.61591023 eV
Zr 9.674157988271137 9.03728088728861 8.15145411933405
Zr 7.179097487985678 9.967613143297346 7.9388264243124755
Zr 10.535505905535866 6.989611265644305 6.86414544716728
Zr 7.571503364040101 6.815934520727956 7.794744652489288
Zr 8.322974550295651 8.505574271609612 5.514098322843976
Zr 5.264033002124803 8.020498865769538 9.206188062736251
Zr 5.376625810856586 8.683938021551347 6.342611051868335
Zr 8.818777013854453 5.446266585318538 5.398268828142485
Zr 5.778128651252155 5.1692974963046385 9.422127244659636
Zr 6.2344736381951575 6.347881595339704 4.920546033133218
Zr 4.4257560052252 6.132342122152242 7.172740950496014
Zr 6.457946722081848 4.1576357348971245 6.805740568367211
