10
Energy = -65.21289726 eV
Zr 8.964287265550864 5.517230197059712 6.328025991185578
Zr 7.28128287663508 7.407109419193595 7.598074593364758
Zr 7.062417014916895 3.417945855860215 5.982213645052737
Zr 5.8342217658520665 9.70440802087825 6.960706723074741
Zr 6.826835282388395 5.792714209088792 4.421898994627283
Zr 4.806261256968154 5.085728188582138 6.454651238019408
Zr 4.932510718300672 7.701735761707792 5.350252685860483
Zr 4.6602518843063345 7.258698822501727 8.304744683532356
Zr 7.847850263150772 8.369932585823747 5.124011233704958
Zr 6.804175846840865 4.764591129147738 8.495514401421119
