15
Energy = -100.67952541 eV
Zr 3.785442914788539 5.979267484197552 4.049590251297001
Zr 2.4636997941251253 8.082731377502768 5.099836559838578
Zr 8.797054496167641 5.8371508356094495 6.864639237697568
Zr 4.634688843977666 3.599007439165114 6.308609287906933
Zr 6.4060405186352245 4.71585645390556 8.27754296703683
Zr 3.911025582304875 6.360854395123558 7.258737872848808
Zr 6.721351564699408 7.63391929250473 7.7980214306942575
Zr 6.513554654705605 6.653011565266039 2.6952279674679103
Zr 8.929136876206424 3.12967344092839 8.018820866206603
Zr 6.265347059231283 6.021990202932482 5.424457082948302
Zr 7.422844251292273 8.591411151943305 4.889917332521934
Zr 7.53790461826932 3.495703077888244 5.618967803866677
Zr 4.865559945831603 8.936334170965583 6.223970197578582
Zr 4.813076780287092 8.676924238876817 3.4025906491516795
Zr 6.502172924676114 1.8550656983884304 7.63797131813619
