14
Energy = -94.64074512 eV
Zr 6.319243666762274 6.309497575899534 6.256783589745804
Zr 9.175942276042685 6.23423024064722 5.344766121649147
Zr 3.525393794797996 6.285097195014846 5.120394821427855
Zr 7.677562009835954 8.75953842646965 5.164319282923209
Zr 4.961971340400543 8.744273611387973 5.108339596484376
Zr 7.793265076310278 3.858955942238941 5.355192837666993
Zr 4.851706717881191 3.9152568773573138 5.188840752737241
Zr 6.275419416433705 8.269094717940675 8.178548793365604
Zr 8.997681004219093 7.945363497288006 7.525550438804486
Zr 3.5503926362290503 7.9273625124428095 7.416697027391481
Zr 7.975085952341436 5.351115653075701 8.27532350983577
Zr 4.6072685386355365 5.404369896808967 8.201214701079353
Zr 6.46983887821509 6.2158945729939035 3.7207872526382313
Zr 6.2202653231823435 3.18098575140722 7.544278065852412
