15
Energy = -104.93336911 eV
Zr 4.376572503948274 5.917068186353274 4.208062203141889
Zr 4.828302956360197 8.709106193605741 5.0837968765721735
Zr 5.136564365565333 4.078621382221137 6.664025144836893
Zr 3.362091023787054 6.701165995718689 6.717526749077593
Zr 6.448016990817182 6.445868244695116 6.452712825084055
Zr 5.072939342701868 8.825121603194578 7.882897792692174
Zr 6.837155317809334 4.544228041531361 4.042765596606952
Zr 6.829977655026401 7.4615169424904115 3.5486322617633848
Zr 8.28683680692424 3.946954826916508 6.384596814479318
Zr 7.766870262574018 8.826234714613493 6.235107637516266
Zr 7.268772134009062 4.729022363811387 8.897040174157885
Zr 7.314482177086394 7.68603218249598 9.145090120979036
Zr 9.325441449563735 6.442662252671662 7.6178764943098365
Zr 9.08114619125391 6.332374540986345 4.809775650070176
Zr 4.818765129247776 6.1079568353692375 9.064027950453275
