16
Energy = -109.1377691 eV
Zr 9.58880736142512 7.804318550628756 5.219092265124711
Zr 9.127063933677055 6.0630789239780345 7.507891842145723
Zr 7.83539752123462 8.919804224209143 7.338707689666921
Zr 9.024625804607911 4.9564008410146725 4.694034027179563
Zr 7.36417000739171 9.40626034432291 4.3829859435270855
Zr 8.098297241909389 6.969134392689094 2.881368851792893
Zr 8.287991264404114 7.706803175262597 10.020427515941654
Zr 6.708989954731358 6.8322070267840616 5.470342955722992
Zr 6.390437697730027 6.107337454190064 8.591700637029511
Zr 5.756467851850437 9.08654263805598 9.458876391461764
Zr 7.076774837179489 4.036226277642158 6.571972477900767
Zr 6.2742229982566355 4.702011108780849 3.8349828543890045
Zr 4.814303077544402 8.356403234877911 6.932741600858384
Zr 5.855174913139923 7.103652357637779 11.356795777799237
Zr 3.812828458048947 6.937283961530364 9.316036674649078
Zr 4.399990392870124 5.387063296159795 6.5916243345110646
