15
Energy = -100.36825433 eV
Zr 4.239988176982016 4.501685410035981 1.6732391614062618
Zr 5.5997112028623075 7.0970614971142485 2.1511556495168462
Zr 3.398095748111192 6.338075536944808 3.5817471070842015
Zr 6.445083047752612 5.040709627737265 3.7021990295652967
Zr 4.71125790232969 3.0172473565883777 4.1340292228544415
Zr 2.0470804480914015 3.7954748715689983 3.988852955996599
Zr 5.712781278542848 7.335015359695538 5.373114498079048
Zr 8.263787449114481 6.53012918378618 6.388080672092544
Zr 3.305539200523218 2.731325263384793 6.464497543091506
Zr 6.168101068060213 4.2416091202988 6.578234525952528
Zr 3.5253228305953597 5.4086107480435555 6.107944466370401
Zr 7.213622255008996 9.005304303152627 7.45664015154423
Zr 8.34268832114204 4.752851698045368 8.671093213262619
Zr 8.690562127125153 7.424411549176397 9.110982598822483
Zr 6.057090171880295 6.501199702548752 8.338900432482703
