16
Energy = -110.73307075 eV
Zr 8.272951565418197 6.590646686775675 10.323645629150514
Zr 7.318493813637766 9.35230731361063 9.211671596349813
Zr 5.612638369424121 6.7486971538898555 10.011698316309612
Zr 10.009572529837603 8.151763327962382 8.677948163786628
Zr 4.579977778757628 8.616803252707697 8.30279063189993
Zr 7.035887032980926 4.558233523670032 8.604153771517238
Zr 9.89166521509665 5.311650006911117 8.583246632130228
Zr 6.114908072923178 10.05671149251514 6.485026419330999
Zr 4.517715900005601 7.717460233729162 5.611743387103561
Zr 9.020622211047543 9.346830316693469 6.125207970242331
Zr 4.6160053133490475 5.679977109790832 7.546099186801145
Zr 10.555378453730468 6.798611304976412 6.300735276686424
Zr 6.722106662381869 8.383085869189681 4.223341579215098
Zr 7.305829329756622 7.249570232604722 7.2678634441744245
Zr 6.460898213162071 5.473760162684162 5.157910214336265
Zr 8.917407646100129 6.971579177028751 4.240479655209603
