11
Energy = -71.95586603 eV
Zr 4.752831768299442 9.938013931740295 6.7017090145822165
Zr 6.858744658679169 8.14820345817882 5.710350660238762
Zr 7.208694935243467 10.714614830958997 7.155714276687485
Zr 9.197042037854525 8.729934200532268 7.718873295255236
Zr 4.168217923818494 7.393926700126018 6.721745950013714
Zr 8.834047518606713 6.222542056711474 6.266189224996564
Zr 6.370582271613924 8.225951181441399 8.574793973452929
Zr 6.227778043767083 5.514210624195777 7.336344685507871
Zr 8.313956507240091 6.3597886104361585 9.348969064228086
Zr 8.841255228333889 4.023139929719676 7.933621721110785
Zr 10.831215797371685 6.176079888442169 8.147478263609026
