14
Energy = -94.63521335 eV
Zr 9.535514686678894 4.06340328578208 8.524782677638445
Zr 10.367174422829931 4.894949960345933 6.084702993221224
Zr 9.04173465833232 6.85113836782484 8.0045033594961
Zr 6.922215827700075 5.338740149481114 9.310407602639023
Zr 7.665888889610531 4.617347074874435 6.425442013170999
Zr 8.005205084353872 9.447493505282951 7.071904892385154
Zr 8.490322655611681 7.243658933816019 5.075332895572213
Zr 6.768338152821181 8.236239667997895 9.487446654574002
Zr 6.120000094049888 6.894291421839759 6.862037314022675
Zr 5.769986465630322 6.539176807249281 4.025400499450627
Zr 4.1217338340113026 7.240703884401902 8.777488165068398
Zr 5.108454045040008 9.64319875518596 7.566938227550344
Zr 6.17212923817853 9.18652252440252 4.880040076133815
Zr 3.6869493658323487 7.9437790133405395 5.678631896324421
