11
Energy = -71.56428298 eV
Zr 4.468104324134842 5.619186015790306 7.3975159453518335
Zr 4.469356449789185 5.6142369802979415 4.1635563627571655
Zr 3.2058215324838484 7.703855010528133 5.777525586141166
Zr 6.41514614474173 4.004926264259789 5.7834107403601775
Zr 5.970831324558922 7.651973108386639 5.778178417710987
Zr 1.936843993966936 5.311703469570478 5.780062325780371
Zr 3.7386451616873906 3.294727684758897 5.783214872386359
Zr 7.517050084189494 5.9997888005604585 7.594937887644669
Zr 7.51902856382968 5.994534234297079 3.967634656735096
Zr 9.340990629904162 4.811515029047525 5.783750430753801
Zr 9.007880571291935 7.583251904848013 5.77991155495609
