18
Energy = -125.86867326 eV
Zr 7.3432405240069 3.5612985837528144 6.815392122366483
Zr 4.561848058246946 3.8025740108635264 6.915528354135313
Zr 9.195255285392596 4.862303996507772 8.443680045924012
Zr 6.032145816605319 5.147530253520342 4.877856267599901
Zr 6.319784860166499 5.220493601003604 8.994531769969505
Zr 8.354381746226286 6.678799810952879 10.358597869103146
Zr 8.782658037152459 5.859480661757019 5.6203737302619405
Zr 7.536601802313987 7.845485710958464 7.499995521050299
Zr 4.705222427875153 6.750119809787376 6.916247960762215
Zr 8.64730128551541 9.265916385105056 10.010492531091595
Zr 5.642314810709802 8.258756888942678 9.570279470949135
Zr 6.527982643193497 7.946843731177583 4.6119714875561675
Zr 6.811659295105386 10.76651514253254 8.509820579124183
Zr 4.982036670036878 9.429136954157686 6.778051580622348
Zr 10.359320582234098 7.482146961605827 8.120238325909364
Zr 9.468730235194268 8.595669328481502 5.279426561311674
Zr 9.56587807088273 10.281866918052732 7.559016807571605
Zr 7.384409257870806 10.510064020648754 5.656012599454701
