12
Energy = -80.6818143 eV
Zr 5.348118495218507 6.212296251093459 3.512933872231754
Zr 8.158141923300642 6.151977388025496 4.332880690572925
Zr 8.545211952626682 7.674644034983337 6.753989634459173
Zr 4.29149431110456 6.567954377655211 8.642416143765972
Zr 5.9513382354619875 4.028200360627731 8.45262700072084
Zr 6.733241544777791 3.7716060490766177 4.658157274267809
Zr 8.402771042488594 4.691521715450071 6.925740298794776
Zr 6.528455942453983 8.543578407417193 4.766494616692041
Zr 3.8874404477678683 7.976120718250757 5.787200110624084
Zr 5.935000300882873 8.745996045289049 7.665637076666019
Zr 7.192279838916382 6.459254749435995 9.005929694336452
Zr 5.848485032372193 5.998828970066479 6.317972654240228
