10
Energy = -64.43205539 eV
Zr 7.280962737696462 6.470980259130288 8.997845028539967
Zr 8.632995531429353 8.982918701040086 9.588741741032415
Zr 6.975743192423278 7.940873061222093 11.48238207674235
Zr 7.53018670462862 5.291898626261146 6.168726704840583
Zr 9.362596304769825 7.3677922919579455 7.071169435756267
Zr 9.666035308857765 5.88309678190987 4.59577779919686
Zr 5.669859453285184 7.408856804932765 6.749266727106187
Zr 5.7452438511452435 8.955697779742813 9.17386561006594
Zr 7.491127686554668 9.603665018689814 7.017559890607888
Zr 7.656852471647392 7.83236886680691 4.749357988779833
