19
Energy = -131.26371013 eV
Zr 9.258480348246666 8.747607709181214 8.720371032144353
Zr 3.9570199715602428 9.752786541629062 7.779496932050527
Zr 8.45491447670797 10.418193304187902 6.549820281789884
Zr 7.299170231212496 6.9592697836241735 9.975484008435219
Zr 5.725548523898789 10.625995096243821 6.006371052303838
Zr 4.602048629825449 7.4779803383980115 9.230753189921051
Zr 5.321118018497426 4.87430181644035 10.59912567148722
Zr 7.64738724361352 3.914826062667306 9.667967956383483
Zr 7.952701856466667 3.3643689049350387 6.77734996405642
Zr 4.510500002172147 7.861998192031359 5.69465548143123
Zr 7.267594257570915 5.758796020697628 5.1628881878953345
Zr 5.823222598640979 5.192458816120454 7.769419990640805
Zr 6.5709057542547935 10.08005594182456 9.05142737018065
Zr 9.107136049133276 5.774898140347777 7.900471295252871
Zr 6.854863401483109 7.995430930002177 7.182017790760241
Zr 10.002832183252156 4.833220181115665 5.187215518216945
Zr 9.191927747863625 6.6000481952865755 3.237516090395015
Zr 7.305030563086221 8.744036301197275 4.330418593288496
Zr 9.698631742865487 7.752948048686169 5.8891754947634105
