19
Energy = -133.58186941 eV
Zr 9.557276301183618 5.653561676887545 6.0800610166816424
Zr 7.53676316155601 7.083965010087504 7.995390673246506
Zr 9.831536440552746 8.535058079212416 6.3664619315825846
Zr 7.878255564249986 7.143649557402369 4.404052498526465
Zr 8.594613963880109 4.158470358322827 8.128067962898227
Zr 5.767593256596075 4.55178083798085 8.73996567052421
Zr 8.096473147868755 10.051662091619038 4.404933916734056
Zr 4.837232216095299 6.749423883848758 4.657846737668425
Zr 5.89064272699742 8.813627065080214 3.2086558389145825
Zr 6.678836900083903 4.9149705510666175 5.9874655288521375
Zr 10.236714952767581 6.647996840149069 8.872315946595448
Zr 5.811416869676548 9.044299743136715 6.089640301024015
Zr 7.966315248917515 5.227219619605505 10.566271375603792
Zr 4.503912754030304 7.031168764716138 7.76119245365191
Zr 5.555419295498923 6.827665429178671 10.432627042121483
Zr 7.91321416214437 10.719398731890857 7.1224789117353495
Zr 6.093631115763602 9.441514804668413 9.157668195267902
Zr 9.252868023428539 9.49232018263034 9.089497740321827
Zr 8.087668771898736 7.9781392821673505 10.948090623892062
