19
Energy = -133.19278444 eV
Zr 4.259031428195841 7.476819295713368 8.165431526873832
Zr 6.1740281601498666 5.531781321092455 9.588846314269158
Zr 4.688476254023005 4.761541195333821 7.13510247790175
Zr 6.704849644126665 4.953829944847998 4.717348745905906
Zr 5.520781809408717 9.547896336877908 6.325755747684061
Zr 7.107242947761884 3.6041701401181525 7.545678164101817
Zr 7.1510044750572614 8.429799508297892 8.880823175388905
Zr 4.868480653816642 10.185250168467743 9.152983118176406
Zr 9.58059502972879 7.41405834324493 10.224063504216895
Zr 9.048038505115823 5.08311402076755 8.934445195190332
Zr 7.232248475504978 11.205757763066975 8.056690580714946
Zr 4.447414548104829 6.92544401758523 5.379342787893952
Zr 9.692977423271747 9.785211910641523 8.802149230615843
Zr 10.249031947322438 7.318126158565227 7.28451429629177
Zr 7.160125543442092 6.640687651844702 6.867505375710794
Zr 8.507705164683035 9.476094390915643 5.992020501485379
Zr 6.683104273730824 7.989001652832916 4.1114422852778825
Zr 9.41118483469916 4.646848683777621 6.156389744850916
Zr 9.139674650556 6.902028880603644 4.548178815873899
