12
Energy = -78.98800129 eV
Zr 6.473226861268357 8.103158855308365 3.9111931629773293
Zr 5.729785025797742 6.051696124287844 5.4146886497726925
Zr 7.439883699048945 5.308731290960519 7.477833072560708
Zr 8.74513027784776 6.953271808980823 5.433056866846295
Zr 8.334153086891138 9.772056896463695 4.744404868343729
Zr 6.523877211178804 8.44089621107973 6.817021922899814
Zr 9.312323524827846 9.4276960621229 7.140622160225642
Zr 9.641325612439722 6.872811280394273 8.279364055080444
Zr 5.195548567485198 6.355544134689345 8.789606499068958
Zr 7.669007900962256 5.687284916269353 10.270225708276921
Zr 7.4716371879084065 8.370796466601995 9.4617911293799
Zr 5.557194858919633 7.279054866497295 11.315663485024857
