18
Energy = -121.76369153 eV
Zr 11.74584795218198 4.873092033892304 8.928679754396013
Zr 11.022112948929697 5.071829631345602 6.303153383570617
Zr 7.750359994337495 11.532499618054084 9.470207228818396
Zr 6.809723996020123 6.550723358703394 4.220590291833643
Zr 6.598989269286679 11.600974816132062 7.075952634986113
Zr 6.602285388969577 9.13840713895818 5.5095373325930534
Zr 6.873126070334183 6.742084873443672 7.16615435822844
Zr 9.46616659933949 9.305292505450867 10.35609446695213
Zr 10.46831205076159 7.379955998601012 8.2191168218084
Zr 7.5921336126493255 6.997874811164549 9.970015485888235
Zr 8.472685120588832 7.908205269706509 12.61973717645806
Zr 9.271471686497328 7.296733040940596 5.4351916559237035
Zr 10.090498897773344 6.108400371213552 10.899838421286544
Zr 8.173646968171038 4.564519908941106 5.445830500773492
Zr 8.942733200478626 4.816447222498164 8.328982345123881
Zr 8.715065554067165 9.539235173978637 7.414984820413216
Zr 6.699155143168971 9.521969484005382 11.449958394516912
Zr 5.996571792149432 9.270538418428252 8.58084137807649
