18
Energy = -122.23681817 eV
Zr 8.509389690319527 7.094705298068825 8.289690919311015
Zr 9.712535121521626 7.697408265675 11.05430036421408
Zr 10.237177581070025 9.692104999338433 9.009249839744847
Zr 9.530471613439342 5.6915166941725746 4.653250568022676
Zr 8.836573538127952 10.357027104694504 11.582099861496832
Zr 7.677793642358407 7.643853986406377 5.270219835658988
Zr 7.44938463976151 4.951952406714367 6.573396353844207
Zr 5.933587195904565 11.38063060004931 10.791595241302527
Zr 7.124079009785607 8.943914096372241 9.787916372257701
Zr 9.215811632393986 3.1298722852764342 5.499060846000417
Zr 8.249361128040917 11.784583725415722 9.156145353861701
Zr 5.787928050869549 11.060137455191057 7.909059911573135
Zr 10.295899966176757 4.8327408196859265 7.446836260442015
Zr 10.539316384786698 7.892294583416067 6.330066831503519
Zr 8.134728481575195 9.886767565683419 6.7833678080588955
Zr 11.409363758205059 7.053650959566203 8.950735057514962
Zr 4.1879014949978774 9.538532785832386 9.546054231257287
Zr 5.681088728681305 8.108660485480126 7.370679461533343
