19
Energy = -130.94070691 eV
Zr 10.187131484033788 9.656319209074587 7.078690626992839
Zr 7.760678301933693 9.441452080787144 5.491303566299508
Zr 7.866732376878831 11.319600212517763 7.707916156394445
Zr 9.812013735380486 6.7932828386094535 6.746785219386822
Zr 7.850960320605642 8.796223433835571 9.00636429548624
Zr 8.068465083213768 6.632855109403522 4.282649074912895
Zr 3.825379495429214 6.730118938269794 6.893573370476089
Zr 8.137783470912751 4.342498156942901 6.344285417600463
Zr 5.331571405399595 8.075021683831682 4.672501891940359
Zr 10.541075730558843 7.862951451073968 9.369370620835198
Zr 3.4067925268372763 3.707244530889769 6.3446813442624785
Zr 5.790000565701529 2.383038665961639 6.052671848280629
Zr 6.8076751318131175 6.919626303303121 6.90007785449533
Zr 5.53338737948344 5.062268683638878 4.892664621965156
Zr 9.931901832241914 10.706363958334801 9.640225122571726
Zr 8.266328122138681 5.729221822097554 9.15731398891952
Zr 5.564735132121211 4.48544479972357 8.044795083674993
Zr 5.291149964283248 9.445426072469335 7.338163862062126
Zr 5.378085356088761 7.171728513960115 9.426820922145685
