18
Energy = -124.83622425 eV
Zr 7.925789512818382 9.466251141891952 3.2256791210988047
Zr 9.15670377222439 7.711518246079987 5.447117287832884
Zr 5.470359304005748 10.106445249125521 3.822590680234045
Zr 7.300510939585138 9.659175223688313 6.134524436086115
Zr 6.289128604479655 7.331381753312353 4.452512242121154
Zr 8.339525497968914 5.02980404320945 5.016362568895815
Zr 8.793168296677916 8.15904679147511 8.734711090024193
Zr 10.00324407099257 5.8445686220137745 7.288353073490493
Zr 6.814002010411687 6.795824248866379 7.369026035116149
Zr 6.447507472874068 7.178628069745797 10.420517575880142
Zr 4.489728403413729 8.583667234934019 6.320616367783852
Zr 9.24704250469138 3.2437252601719284 7.182622943326704
Zr 5.974073537626288 9.458007113978985 8.751604278205363
Zr 6.631938999562822 3.623788061942517 7.212818147525822
Zr 8.266008965630009 5.1082214740637015 9.523738928394925
Zr 4.033239013812264 7.270397420504824 8.784715559113636
Zr 4.420927947200671 5.4803257180639875 6.4764395882969366
Zr 5.2857430685588085 4.802210883314445 9.25829264851035
