18
Energy = -126.14114568 eV
Zr 11.144534830080742 9.555071714825319 6.771015217992942
Zr 9.200270690715262 11.63185763966978 7.388731052097222
Zr 10.820087295334092 10.380265981975194 9.520108154003308
Zr 11.28489772363405 7.628970479316644 8.884128990448302
Zr 9.918250983210918 6.992384306262709 6.208917165299091
Zr 8.669833175728366 9.765257248833837 5.346499954189776
Zr 9.177398737479024 5.805318014203493 9.213044007816736
Zr 8.12188375769203 11.198038099351056 9.926732599263838
Zr 9.194799412412797 8.451696559831746 11.060152717627371
Zr 6.289288017148246 9.410396002566117 10.333749757801284
Zr 6.421443207291667 4.717077220547677 9.121758683543908
Zr 6.922246009576775 6.710095423546328 10.984765167442303
Zr 6.454813740636154 10.439570575217349 7.343923752139284
Zr 6.953022306707202 7.7583195991858735 5.539102766976362
Zr 8.50907835165731 8.640925106203342 8.21657560939471
Zr 5.51731568437051 7.440996845783702 8.533464874674333
Zr 7.745693763779647 5.315006628564269 6.720855784240672
Zr 5.078432504906624 5.640057475232348 6.521847779166763
