17
Energy = -116.13263908 eV
Zr 10.080224304603396 6.609103424889731 6.692780298181375
Zr 9.039051377517 9.422662253053991 6.7733744763402735
Zr 8.193576748018653 7.680820214109254 4.475214665528327
Zr 10.931414328747023 5.685317737278354 9.43437633273791
Zr 5.628346683897561 8.68856347574969 3.195488284209794
Zr 9.161985370759105 7.948384086632577 9.416469344729682
Zr 7.8373001245481655 4.927674679109042 5.625714076996879
Zr 6.139606313195553 9.631271040001378 5.861858696751149
Zr 5.31320436058614 6.530969517932749 5.072838265972205
Zr 7.232320217766796 7.22890041398505 7.2365619476577345
Zr 6.641017443611426 9.52654721585989 8.862364967235495
Zr 8.323345838212163 4.79777150214678 8.609518590178961
Zr 3.526215866758053 8.782289774949723 5.014038019717997
Zr 8.829895860276494 5.770376274683319 11.268016794003591
Zr 4.3932410727236135 7.843727498297534 7.784854820410037
Zr 6.277720860919729 6.775649395541688 10.008102313157533
Zr 5.445653439706216 5.030685258160883 7.717622141115172
