18
Energy = -126.00156801 eV
Zr 10.153082057780548 6.274718055475728 6.452361446964015
Zr 9.275103148234434 7.329032080523308 3.885704576627884
Zr 9.677582436484084 9.145337957912174 6.359659202327203
Zr 8.862795539729014 7.600558297165746 8.95066296222647
Zr 7.6487110209256475 4.707976007138676 5.3150502563363835
Zr 8.814096096802395 4.547020078055044 8.17377647300378
Zr 7.478615995026272 7.501538109609542 5.967314495101943
Zr 7.471946408936962 9.763821257133056 4.400239267860306
Zr 6.30126979529594 7.055294879028094 3.48422884792714
Zr 6.953741054568773 5.129344603912512 10.328203050090277
Zr 6.460315061792868 6.391613028054581 7.930311352258855
Zr 4.877162818834877 8.825050348895633 5.302391545003596
Zr 6.718909786248028 9.655636339439393 7.717770572839879
Zr 6.081387189715613 3.6323577301230565 7.773939035187789
Zr 5.812500963883847 7.916644175358459 10.146990374170466
Zr 4.640519890329272 5.784360163630251 5.7894504728894
Zr 4.149957458794381 5.5080828735519365 9.132040009990858
Zr 4.032601932437298 8.113940322758337 7.8527527474950665
