19
Energy = -133.2005704 eV
Zr 6.5557984463349115 7.47246513107006 2.7528708817501206
Zr 5.15691982793423 5.1016205314848895 3.620503929866737
Zr 4.229608008328295 8.005101445367552 4.14564010656069
Zr 8.23881567741682 5.3925759861785085 3.5823208548950487
Zr 6.508459274219322 9.564410235627756 4.741909906874107
Zr 8.886979410910904 8.022977100397828 4.404050891995246
Zr 4.5310548617379744 3.498493432161828 5.754144365172418
Zr 3.2828559893954647 6.1832895716370375 5.928831576263137
Zr 7.544378769956955 3.56335548366748 5.480994131177783
Zr 6.397138093592987 6.4683026754810795 5.968864926498748
Zr 8.101379367150175 8.86723753870709 6.985364191432509
Zr 9.36668356432451 5.987366730373366 6.265201739496627
Zr 6.111399936783957 2.549360603134578 7.826892642214118
Zr 8.134989649494836 4.571616118982092 8.265274141713535
Zr 4.936831617481543 8.94642571221532 6.981909488408376
Zr 3.91716044882567 7.0097282393628335 8.666378915043515
Zr 3.180563022302083 4.118642171970384 8.061530935750685
Zr 6.908600278531622 7.334039910957145 8.906599888731211
Zr 5.562239070747898 4.894846696693748 9.212571801626137
