13
Energy = -87.25628301 eV
Zr 4.53632439967737 4.845081189021376 3.917982868735326
Zr 3.5275621761857847 3.9075623127805335 6.342074738889144
Zr 4.605441958505646 4.947814513715923 8.694675110152371
Zr 7.495995598004934 5.47212382198834 3.703969631004205
Zr 6.225580103058896 4.815270229534806 6.284812697580618
Zr 7.571693805860903 5.574359954544177 8.794489641124526
Zr 5.493904121809027 7.494560408208303 3.74190548787476
Zr 3.791114655191312 6.709356548156347 6.2747633620722425
Zr 5.566771671582199 7.598093108195308 8.726428146730766
Zr 8.51696657767337 8.035861450699311 4.512564402291713
Zr 6.421295005948364 8.033008343148811 6.2058497538285415
Zr 8.567158890639254 8.107394870822668 7.841539696008836
Zr 8.946007870544694 5.7253299098583 6.22476095037426
