12
Energy = -79.60948981 eV
Zr 4.917827246072752 8.989749807565365 6.738642532948501
Zr 5.101655101993597 3.403580398881932 6.264760731020774
Zr 4.517792243834544 6.121234897336503 6.735166121170128
Zr 7.747630383147617 4.431606171393571 5.410959749434651
Zr 7.048986180663565 7.4352637075367385 5.48564152172873
Zr 3.296597071441539 4.716117849834423 4.3400859684968065
Zr 4.095409414046847 7.792394898907625 4.455482308500119
Zr 6.791947052033923 4.835969247785456 8.11693448257134
Zr 6.682243630705967 7.7123275066353045 8.419671642961143
Zr 5.814841901567878 5.751915134550732 3.6472662398028874
Zr 5.599658852518082 3.029255036478796 3.6056246189487378
Zr 8.980710573687277 6.375884438341363 7.375063455896628
