13
Energy = -87.03946636 eV
Zr 8.145411792992064 7.62254702558493 4.660199657650514
Zr 10.291175135451033 6.119960282231251 5.971636442379897
Zr 7.5885023890131205 5.125374835841333 5.631327030365473
Zr 8.603115455643874 4.406771026388599 8.011711817996352
Zr 7.15005800445413 9.738287948407713 6.452284547133997
Zr 10.164396003954765 8.969606107404068 5.943812238493421
Zr 8.545638136471734 7.479940930884061 7.811765514401074
Zr 5.564030268909351 7.231562300601128 6.084399691692929
Zr 5.288296759077549 4.348526818981929 7.133197353710963
Zr 4.090250352723371 9.46639642645367 7.15810510695568
Zr 6.378606712942384 5.890909042390951 9.038880765619034
Zr 6.01085966621821 8.602710528393299 8.912291444446472
Zr 3.749499068706571 6.854283348746901 8.287733893768465
