17
Energy = -118.04800139 eV
Zr 5.609078447292329 7.566557969076958 3.022810147825996
Zr 8.411296851028968 7.3018513102682 3.519408204542564
Zr 7.04577928893592 9.353955378945658 4.975781611443703
Zr 9.198069657004348 5.069959833350609 4.8383482411310865
Zr 6.661879948551737 4.902987346142075 3.387711850495997
Zr 4.281128022411931 8.601768931424969 5.295339248231886
Zr 4.003926416974958 5.666880074965698 4.584323320751013
Zr 6.571927288460844 6.5835310976127195 5.801190179219703
Zr 3.6089138109294385 6.820877427169386 7.2357723045016735
Zr 6.125723266096307 8.718433184194396 7.718116487300705
Zr 5.7988546822116165 4.352164683619847 6.9610690995481175
Zr 8.85954959842449 4.64696701332957 7.451979199247412
Zr 9.048049025518806 7.62189954892444 6.596611006357468
Zr 5.086114255969995 6.388029806752601 9.468563697607467
Zr 7.755226100888482 6.517976293010508 9.026408801287424
Zr 6.513915074919543 3.905113213712757 9.61629589128981
Zr 3.6066539002389923 4.167132523358188 8.686356345076254
