15
Energy = -101.98844909 eV
Zr 6.48523611237982 4.568482994479197 6.447783296235388
Zr 7.919085973480564 8.015815539228544 3.221051009167274
Zr 3.9929611415049755 5.974253683320637 5.794110565722903
Zr 6.848664796702123 4.859175717243697 9.38008455294683
Zr 9.587853307682392 8.209775275686939 5.583281462375559
Zr 7.720304231779118 10.250470678460221 5.055390473770897
Zr 7.451146990836115 7.5598759609162665 10.250728105651309
Zr 4.9030925494755415 6.290447014701013 10.730183188494578
Zr 4.153224196238085 4.808626706225119 8.310940101660005
Zr 5.979544413635468 5.627191424983248 3.720172502629741
Zr 8.70180584433136 6.404517594270763 7.805991200138138
Zr 5.526541759275088 7.435364531103494 8.194259794739752
Zr 8.634936190023117 5.612421784689103 4.817908910474649
Zr 6.5573710615285075 7.636995956151044 5.655401269839954
Zr 8.187824952695998 9.26283149448019 7.802069039932108
