15
Energy = -103.23086891 eV
Zr 7.717750754798944 4.976440185901441 3.5962819086790736
Zr 3.742587890577852 4.908819023195716 6.2147768322755415
Zr 7.541021207205954 4.970109294813267 9.076657352037659
Zr 4.995915566705572 6.306215284765225 3.7596941995425417
Zr 6.43549763518022 6.2914720600060825 6.298469278494018
Zr 4.83494622629578 6.304291785138058 8.739211729731844
Zr 7.566486326164192 7.5877413169179935 9.078397984171719
Zr 3.769139824902897 7.72703216920453 6.217815526814546
Zr 7.7384266322901 7.5929131953740026 3.59311425507805
Zr 5.900623062751741 9.068653101256784 4.8611168493997
Zr 8.388071232077 8.537463024382511 6.356681685874312
Zr 5.813711597026812 9.067290544350488 7.700228251971045
Zr 5.76053975176894 3.5255113394716595 7.695455176800049
Zr 8.345980941484326 4.00664646599359 6.356797549341593
Zr 5.849500637381469 3.529600495840453 4.855500706399612
