19
Energy = -134.24147938 eV
Zr 10.350248236551247 8.924899398362559 6.927746025196785
Zr 8.331126501467981 9.439165019582429 4.836962121706509
Zr 9.799796037538572 6.889719813144033 4.754820543024201
Zr 9.203475195811754 7.89146909362977 9.44493407168699
Zr 10.321411566433856 5.949172154926521 7.530228840119584
Zr 6.820482047538106 6.863366602322895 3.9684021196423127
Zr 7.1789285120377935 9.883096252873214 7.852042870990557
Zr 5.6237347050774495 9.27043394034204 5.354863203949355
Zr 8.015807079263913 7.40997293563958 6.864740548460233
Zr 4.2177413900825815 8.430345329400376 7.920284781961617
Zr 6.4734518027598185 7.757178543076609 9.845130186477808
Zr 3.8583489694799047 7.208596281134004 4.92739533869791
Zr 5.741408892030189 6.335846403842054 6.922023334280685
Zr 7.7798575291436896 5.138510684859577 9.066318202888805
Zr 5.037817562527222 4.5159439415962455 4.859707014896793
Zr 8.01091075811447 4.519788424635166 5.879205798820935
Zr 4.73378867616272 5.658246916125775 9.537784286487415
Zr 3.1435461601505477 5.33388518739076 7.084846947439417
Zr 5.561036452959079 3.590598291726007 7.621747100368704
