14
Energy = -94.17157349 eV
Zr 3.532143164689199 3.3508362974168846 8.435808464940855
Zr 4.892613269952309 5.927988146109476 7.957483194351547
Zr 8.212439031801377 7.774692610645841 5.026873959864332
Zr 5.7683428417881615 5.973866612130295 4.218740140684352
Zr 6.017652529950774 3.003548774026611 7.647392305279367
Zr 6.912994267861736 3.1717834980586357 4.940835898465055
Zr 5.69297690694075 8.790066993808535 3.8595249162969023
Zr 2.099108878064614 5.27080833360527 7.321510455905644
Zr 3.4626137475911696 7.133247761736829 5.694291971240002
Zr 6.03223692247166 8.081490115207552 6.629745758871752
Zr 7.561513915140247 5.404726884256697 6.748769177093883
Zr 4.124040274750492 4.074958034581957 5.661205339992381
Zr 8.565213962577618 5.117194696534871 3.9366902733002735
Zr 7.559766387715533 7.358447343176479 2.3547842450097507
