10
Energy = -61.98422024 eV
Zr 7.7956422491904585 11.205047536769477 8.408957957255982
Zr 7.073158861014986 9.18120523597092 9.908927203291118
Zr 7.096997261755671 9.29613732639125 6.702060002136789
Zr 6.775090331981322 6.720074542792521 10.755509652203083
Zr 6.463125525344045 6.520607424907923 8.16103908013313
Zr 6.813281748745049 6.9013309555099855 5.585210093174444
Zr 9.860242600015411 9.519371950428228 8.383018109204844
Zr 9.22246700986915 6.749814628431944 9.836752595372227
Zr 9.253545907982247 6.854711196466475 6.6273138664145455
Zr 11.2748328728242 7.260718769656165 8.29336301816777
