18
Energy = -125.21154429 eV
Zr 6.819315034136734 3.0105608523346423 5.4305417664867015
Zr 9.051235026221311 5.137583531203886 5.7320653364964915
Zr 9.17350971634357 5.526921798326884 8.59884770798988
Zr 4.38080639104389 4.053057658509569 5.459279869316592
Zr 6.586569617009661 5.780904864278013 4.350088657427968
Zr 6.2689623186103 4.986616359673283 7.451647171489187
Zr 7.042923193492017 6.2372220534516964 10.09111178232705
Zr 10.349197740777598 7.565947605476827 6.903415996013787
Zr 9.070424526373875 8.424505426166252 9.371138927754943
Zr 4.415532082644265 7.0749915989877525 5.787804984309199
Zr 6.502400545192285 8.549751199913493 11.229754037607874
Zr 8.958336046729274 7.722627852270053 4.463427024291582
Zr 7.280049916426282 7.427641568009734 7.006179094598542
Zr 4.721493046528751 7.583181763418207 8.779440585418397
Zr 6.3712526633451025 8.767734736312699 4.383451552759039
Zr 5.209097032643263 9.70701969280767 6.738638114260989
Zr 8.33152745448277 9.942050072698201 6.542211343481739
Zr 6.604196488744042 9.980059813780665 9.004640835114325
