10
Energy = -64.96852566 eV
Zr 7.665011131789622 4.7110470216281515 8.143231723091935
Zr 9.161069777483752 7.277123992290108 8.228479464864657
Zr 7.611810754925658 6.571618241843324 5.868067690701133
Zr 9.715849857799025 8.702151202119532 5.827505597100462
Zr 5.353849722432435 4.450460265364041 9.522237901039217
Zr 5.101376012295914 5.222784551999092 6.854052834538333
Zr 6.163482509160551 7.206287768090342 8.634136520339228
Zr 7.384009692802973 9.14621793661475 4.4230565768700325
Zr 5.132960240963691 8.026501168249967 5.909891685239649
Zr 7.384633381335736 9.353313497849431 7.215124528209392
