18
Energy = -122.30995485 eV
Zr 7.098746235051597 10.580862933918425 9.263387707605338
Zr 6.919728040762745 7.645768122489285 9.4990219672645
Zr 5.038123816358488 11.540235816906716 7.5311913010457046
Zr 4.800922626097311 6.4797332920266815 8.114013596872823
Zr 10.287998029946884 6.982263466756481 5.771560283137968
Zr 9.618680904960682 6.086629851985075 8.576242385977599
Zr 5.854573305270084 8.895131326597655 6.687368414915128
Zr 7.623800792727671 11.402300366208776 6.474242168726319
Zr 11.62512172620761 8.403332023115292 8.483643870061277
Zr 7.430832952457516 6.387796224218971 6.600817374918305
Zr 6.936939318210207 4.879202281751058 9.188735628853026
Zr 9.991239772585018 11.133541688443723 8.564541669785854
Zr 9.016160040354531 8.94133062685758 7.256694237077892
Zr 4.406928947609015 9.328666269927504 9.196526462628446
Zr 8.074015014869216 8.630169901765518 4.666403484835252
Zr 9.464807905368362 8.810329523007082 10.440720035960357
Zr 8.739385677341083 6.0903059649719875 11.368717741834997
Zr 11.428716531519557 6.746628209413649 10.731016741689533
