10
Energy = -64.54779293 eV
Zr 8.932169020663665 8.145033633488556 6.368630288143094
Zr 8.694167086251584 10.300707207407067 8.188676504714765
Zr 8.2672386715216 5.420205312443748 4.804196595942732
Zr 8.158410843766088 5.455065762848515 7.447371467350266
Zr 7.575513003766517 7.789529110344513 8.987185555184038
Zr 6.365030005607332 9.569270067760064 6.968101410262617
Zr 6.350649259024706 7.320016336057734 5.198044366266597
Zr 6.055919297626941 5.010385569231065 9.107047418343814
Zr 5.707821355341318 4.6500704852134565 6.176549118742452
Zr 4.992107904537212 7.066132044220828 7.662009089694956
