15
Energy = -101.40957409 eV
Zr 4.601787101684902 8.769321284102105 6.800299635519034
Zr 5.1180601649621575 3.074931519895945 6.6863020538199684
Zr 4.6648955738518145 5.930957333175441 6.992606896307163
Zr 7.732509509733389 3.953800249754212 5.818518932200951
Zr 7.46467932235501 6.912794454560907 5.7888117671348756
Zr 3.3165823623389588 4.214974426882722 4.774217961889044
Zr 3.392586698569352 7.073089007852904 4.7127312283542295
Zr 6.724869286494888 4.607669794674765 8.45710786121098
Zr 6.7741081661050595 7.559034173710832 8.611750166739167
Zr 5.785607275846819 5.381701491722984 3.936399323400065
Zr 5.714727266882275 8.596948470666149 4.205498201219547
Zr 5.647571549556798 2.5933020913278746 4.024062712935448
Zr 9.214465847389523 5.8221202848317 7.866050202261146
Zr 9.329396471805643 8.428683256988082 7.517955765594546
Zr 7.19154998051309 9.75406825699978 6.481083548874408
