13
Energy = -87.05744759 eV
Zr 7.6635273740485195 8.147056789622866 8.874328494758768
Zr 7.672926927739438 10.159331438738652 7.130757328337664
Zr 10.036912941836512 8.026098604825771 7.32333576699827
Zr 4.9576617800161475 9.223379756778247 8.752335692599738
Zr 8.15587408806524 5.433238894578749 7.689926682896087
Zr 5.670139027842992 6.329883951507924 8.798160176482428
Zr 3.4687888495548966 6.522281543430252 7.354488200990155
Zr 5.409050620342478 8.502605313640737 6.252006613082055
Zr 5.502585667327877 3.9407642792809137 7.105503633982601
Zr 7.989359617941319 7.635647788579253 5.36964349776429
Zr 10.170748602347311 5.8060573873882255 5.68678811996111
Zr 5.502394505503838 5.954206599577856 5.356190441806299
Zr 7.869954919279873 4.423892441489094 5.033244528203066
