19
Energy = -132.73355251 eV
Zr 11.131085181597854 5.920743458743106 6.179350901593836
Zr 10.056947776393624 4.483974142776041 8.496334360497137
Zr 7.495345705912743 3.272687389224048 8.525776136386533
Zr 8.77169992562606 7.48621516018795 5.051704349631726
Zr 8.24421171770828 4.991671989332818 6.251370740533914
Zr 11.221467631580795 8.607823119907351 6.077914517418207
Zr 9.587893825788646 7.464283010799186 8.10632209059248
Zr 5.641088274078992 6.480344253330806 4.805196269016228
Zr 7.756371881440253 5.895301924288133 9.568666707767306
Zr 5.45315639626624 4.564930931072006 7.12239711513577
Zr 8.509862339568022 9.923066234080563 6.878305472646991
Zr 6.4374868150415985 7.608876893520384 7.133758430282737
Zr 3.4702123133465896 6.534066348862638 7.048696386272706
Zr 4.952979927579333 6.320633667457803 9.533407179154102
Zr 6.603362085482562 9.45211692988243 4.742895481491793
Zr 6.930567469843904 8.859790543755977 9.485532956409134
Zr 3.996132717330032 8.862307187132691 8.619596197481053
Zr 5.748418179518669 10.61799705802545 7.25947390345819
Zr 3.9770113710591035 8.960235746280132 5.695624543936831
