10
Energy = -64.17623934 eV
Zr 4.774015585353042 6.2187637663932245 3.879665920073553
Zr 5.145607489961703 3.5105388876049086 4.543329001033599
Zr 6.449231532286225 8.087274954680726 4.773838722134449
Zr 7.401953788193113 5.202632408492437 5.131206068649338
Zr 4.873604423041143 6.591442515109657 6.775212363933613
Zr 6.789713727663804 8.821448232072122 7.656105586938181
Zr 3.0547462134575785 4.462860496139539 5.840534466096064
Zr 8.780768884603221 7.609284830626314 6.313708701884056
Zr 7.342950742043676 5.915358464605935 8.07541298402691
Zr 5.682371100086832 3.8753589309648127 7.305949671920575
