13
Energy = -86.77746486 eV
Zr 8.453135732456545 5.411659458160413 5.006731184005115
Zr 6.298696310794535 7.209567112734593 6.098062941163251
Zr 9.409038733982417 5.759009794163368 7.7927104340248565
Zr 7.984917990459248 7.698995747888271 8.656391415586329
Zr 6.333266062150372 6.208087591940142 3.284608861794954
Zr 8.234288620759434 3.357908248033681 6.8340951825278164
Zr 5.8390580139091535 4.105450005645292 5.2605472504349295
Zr 3.7142431753793415 8.436878673278397 6.5144899868676465
Zr 4.880258148256381 8.622152430664503 3.892065233978571
Zr 3.7792576990527182 6.194919314255986 4.597681849476853
Zr 5.258232572919116 7.496285961376614 8.939432059700392
Zr 6.626302574635835 5.047942708071955 8.35525077161699
Zr 3.9649073542260664 5.603960614149827 7.281991435397428
