18
Energy = -125.85200246 eV
Zr 5.334282054318229 4.038980668475659 6.76890398201708
Zr 4.032724106541994 5.62995135770059 8.512023679627447
Zr 8.029329304238903 3.708826326363655 6.671070550939899
Zr 6.774364341687202 4.882478263731968 9.350355585289202
Zr 6.681258798069434 5.069016486526412 4.492672206810412
Zr 4.441322073938627 6.655720055729672 5.6420508512491345
Zr 3.107453377322603 8.114921007286089 7.802317980190321
Zr 9.421043884369263 5.984672355898254 5.219065482857233
Zr 9.606318369737194 5.178973361518715 8.290010375334221
Zr 7.208001372052835 6.672693173583717 7.03799067832772
Zr 6.9222883425360715 7.941165061438004 4.303389272438323
Zr 10.203482871494204 7.737501219204541 7.604844651152112
Zr 8.39328474536936 7.357356425693916 9.771302310424312
Zr 5.621731629208241 8.00479371777587 9.250969323525753
Zr 5.190123665471404 9.462210283470078 6.496245400703495
Zr 7.882294996900281 9.600534387843027 7.867018847081865
Zr 9.45673850537856 8.9693003090086 5.324875884561956
Zr 7.3009480675635805 10.712804726735474 5.195662808743823
