18
Energy = -122.76714869 eV
Zr 11.937502054587448 5.55660640889781 5.349871935355011
Zr 5.513637158685264 7.712346903048731 9.679026657585167
Zr 6.2640226808615695 7.647101061573659 6.780433506988793
Zr 6.5814345304774085 10.063205362106643 8.394349093021718
Zr 8.84346398423452 9.240313510469191 6.366098969291272
Zr 13.352616121145598 7.383562424524469 6.996728103565692
Zr 11.302072535437826 8.211239747236954 5.07344383497192
Zr 10.94321284934369 8.362897873266645 9.890208249344273
Zr 7.597211020008521 11.86323561724897 10.629975017239177
Zr 11.672701002805985 9.70323095310496 7.375898046923119
Zr 7.541978041530215 10.665167303056037 13.129938687333196
Zr 9.42042445170297 10.690722939071039 8.887849327400508
Zr 8.254640500947344 7.320263823469873 8.632715886878962
Zr 8.17364233390371 8.74775855942431 11.07667905335144
Zr 10.060624505695 10.828744472271756 11.786933403597398
Zr 5.467134059471937 10.059311008490196 11.197304877855647
Zr 10.810053399686463 6.518809793580811 7.67195603941391
Zr 8.899944899017093 6.438953854586053 5.639727384149964
