10
Energy = -64.99773326 eV
Zr 9.964975753746561 7.194554944291609 6.858811772125473
Zr 8.989983836968152 9.17808810568164 8.77453879090211
Zr 7.970690967946108 6.499800818669483 8.58557582996405
Zr 7.3998400875755825 6.249900777664512 5.304059663996557
Zr 7.68577753219125 8.807419378147921 6.356155943675613
Zr 5.010250784163064 8.086782813745788 5.618585269059521
Zr 6.115468789298454 8.895031789921479 8.685346033892287
Zr 4.71305560293054 5.2352874141063985 5.2796754072906245
Zr 6.870901304147361 4.091316304912615 6.886333436390018
Zr 5.321453968644439 6.298999149895166 7.765542574278007
