16
Energy = -111.92451808 eV
Zr 6.7360620639723905 10.023786062967314 11.313800893019668
Zr 6.444223971515578 7.7295757011952 9.523495199613256
Zr 9.063733419615815 6.076384602594283 9.811940316508347
Zr 8.459805642460083 12.123917749728824 10.423225355491969
Zr 6.788739955858862 10.92950874076477 8.289211944986443
Zr 9.465494247675691 10.161589391341412 12.307845240048026
Zr 8.997799927814015 9.204301499554983 9.390309556113879
Zr 11.641077703710618 9.672275006668873 7.896167825522131
Zr 10.750806485500366 7.116608247346461 7.79853710706972
Zr 11.214459151068183 11.216867521983316 10.214952343527937
Zr 8.280661750051753 7.652389850024802 11.913467499961456
Zr 11.218923713824706 8.138292115447271 10.664531234612985
Zr 9.655684005151063 11.798142313510546 7.857378137011329
Zr 8.980266515384274 9.370280720874492 6.449633748894383
Zr 6.205270896746188 8.663870868488635 6.786653020219243
Zr 8.05534219234586 6.519705144583132 7.203676161480769
