11
Energy = -71.06359648 eV
Zr 10.698155907297862 12.199750058173818 8.890535330435775
Zr 8.329750899379732 8.070538408779017 5.718272203454401
Zr 10.060506130267445 7.271862129323481 7.907094849516871
Zr 8.300125885238273 11.071910306660325 9.750569048604705
Zr 10.846567786709837 9.558755850206316 9.797600770162694
Zr 8.667787946137423 5.6324955695437895 9.860904947956588
Zr 9.484164719489844 10.099387113317725 7.31810869756783
Zr 5.995427116221606 7.027677113489554 9.78327095485917
Zr 7.329974935699213 6.27267905448989 7.511904644802241
Zr 6.700397836743473 9.155641865909985 7.86873680287927
Zr 8.33835048079852 8.390512174089329 10.344211393743686
