14
Energy = -93.31004663 eV
Zr 8.156632996850096 10.504771930362741 7.642944413780001
Zr 9.720401683295893 8.477710394647934 6.197495603114036
Zr 8.474754868854587 8.074349526240361 8.934641448269156
Zr 6.730896889712342 8.896131742141918 5.885307223419764
Zr 5.703471198115144 9.276158321514146 8.707149969026585
Zr 10.433685990552162 6.290211439792206 8.035592432876312
Zr 6.40539763194175 7.085580306907699 10.541837278314562
Zr 8.11301212001223 7.3801403082892465 3.9854226962309496
Zr 8.439519716192184 5.7526254740796094 6.196977861706291
Zr 7.970666436564967 5.057393597149621 9.085983633811534
Zr 5.454718616956782 6.342356428321826 8.058391803392942
Zr 4.096723857293199 8.172456019556018 6.495110114523819
Zr 5.675652683603207 6.133500148077823 5.069046468955757
Zr 6.39131334062881 3.976728173541366 6.891588351179791
