11
Energy = -73.10887669
Zr 9.293350740571606 7.85083792679263 8.570848117121482
Zr 6.852107505115606 6.253242585951573 8.571588946465702
Zr 10.89379837043228 10.289745512318072 8.571588946465702
Zr 8.214103020325801 7.5272773863757125 5.996916014723996
Zr 8.14169816701335 10.717378407357076 9.420796779681277
Zr 8.704757981512271 10.337943187443123 6.652588519399216
Zr 8.432898248366907 6.237718632718413 10.953111426329052
Zr 6.42522836895311 9.009479076827693 7.733403943746864
Zr 9.626640707751381 8.920975393771052 11.1457515288341
Zr 6.814323780885423 8.435965023834381 10.497604522832795
Zr 10.899672765481796 8.717663210200328 6.184382910808932
