19
Energy = -134.19816233 eV
Zr 8.382424928696297 8.164169291292739 4.341296890508432
Zr 5.102667966577742 4.667940422096467 5.221338426878999
Zr 5.621546475203346 7.414347511337969 4.583589594913256
Zr 8.016524444000712 5.438228789225955 4.97112103038741
Zr 3.455309634429995 6.798326554794845 6.59337597995054
Zr 6.603574596745375 10.040878411613226 5.437843230388918
Zr 10.319169888975905 7.216448268857322 6.391244109579595
Zr 9.193766094849794 9.970602046817469 6.3100375658279235
Zr 7.0295011223272015 3.5136513515512466 7.087916644176012
Zr 4.616389945761861 9.185843585033435 7.002046905939548
Zr 7.4668560272918985 7.451457720873557 7.304896526699837
Zr 9.335305653381205 4.724184105698148 7.516572860177436
Zr 5.085203282775036 5.21552043258408 7.941048412358905
Zr 9.747490179072019 9.18657888533499 8.765679501625224
Zr 6.925689990911685 10.19187735722462 8.464555047572617
Zr 9.869939594004927 6.551463787692751 9.409432823062552
Zr 5.137942955846615 7.784264579569909 9.419966739919774
Zr 7.285267446316258 5.3113412633585355 9.740519495233842
Zr 7.743514988166649 8.110960850377428 10.43560343013388
