17
Energy = -116.53140246 eV
Zr 8.136632319259675 5.487262933059542 4.023367265211752
Zr 5.6925136445872155 4.777560739254263 5.949350146958839
Zr 5.691566064262328 7.030154245568381 4.136913592442941
Zr 8.11020883495442 8.588087514073806 4.298332089850167
Zr 8.733463354251006 3.9854829918385484 6.569317450289843
Zr 10.31130637527052 7.895227938426481 6.8604977579416335
Zr 3.593689522084309 7.199251913907013 6.113455161544889
Zr 8.110603010556463 6.680482891637949 6.501452488585805
Zr 6.708594458492472 4.311966869976091 8.614766342634141
Zr 5.936027364279285 7.443516892952919 7.56878319003582
Zr 4.143013540455613 5.640447995992841 8.61642696805075
Zr 5.537662669175541 9.539321400057357 5.524505658335143
Zr 9.157303622685795 5.704472796681736 9.100018034112784
Zr 8.066200616063446 9.93198321777104 6.916244303946231
Zr 6.568933557506124 6.65713925355027 10.301866891546354
Zr 8.564984943365747 8.541917019690183 9.22815086240391
Zr 5.782158212449324 9.644646948673724 8.84908899523182
