15
Energy = -101.73337666 eV
Zr 5.4902743496938715 6.242922498285724 8.096966333963799
Zr 8.46334252358451 6.637071030559134 8.493407868722414
Zr 4.251052326753632 3.49190510926465 8.193489214441144
Zr 7.203684105479195 3.9529512638569564 8.049992561371027
Zr 3.0474338756844666 5.6105626162291475 6.626241580714881
Zr 5.493828180291375 3.9402510539651594 5.631113599766371
Zr 7.917137000844064 5.740556663420764 5.807705270318835
Zr 4.899905675586943 7.306036839501064 5.239590969823309
Zr 9.556132728147565 8.090411826231097 6.285272967359345
Zr 6.917248187924254 8.494295806699116 6.899973608269365
Zr 7.4505531664524325 8.08524569135046 4.002488604641075
Zr 5.061820687726289 7.381429844593202 2.318803527622649
Zr 3.5515470948307293 5.182616716815751 3.7224975460825034
Zr 6.486552445918258 5.360460406042006 3.3613178721880965
Zr 2.743538931283762 3.0173341567073595 5.805189754916928
