22
Energy = -156.47451432 eV
Zr 10.652191672048964 4.607915659225151 6.7930345242816905
Zr 9.727242499903488 5.879271981421082 9.25594369482888
Zr 8.269513895157557 3.615117462786388 8.110693267068894
Zr 10.800616235945474 7.595097547828743 6.853903411657808
Zr 6.437586408380434 5.890576281839118 9.381396892407565
Zr 9.857834107526346 6.245015537293285 4.44390837831316
Zr 8.425532110411888 3.7896503116132676 5.135716007915915
Zr 8.156164104688244 6.295395346648216 6.834195699976862
Zr 8.399882594518777 8.442390849864015 8.996390464314127
Zr 5.9140310589580585 4.083545979415908 6.693402461168393
Zr 9.6000525271556 10.118673309048381 7.235135162865726
Zr 6.9482888955246755 6.298464148157072 4.064141714303596
Zr 5.7701765975882955 9.160915794199877 9.643531475548915
Zr 5.5966618249791855 7.4486055532363045 7.127457401121157
Zr 4.272771115064569 5.845903524583024 4.9047536966518335
Zr 6.708022091529226 10.346624529118058 7.023799946487498
Zr 3.601545466069507 5.224410333641282 7.713392538252576
Zr 8.366048465338714 8.769823192847937 5.045804019764446
Zr 3.5219434548656 7.55024347715447 9.246101893299862
Zr 5.187231875101497 8.847462143653207 4.766618072040046
Zr 3.9436505252477434 9.89796050047495 7.516128436993815
Zr 2.6958049542094975 7.641557397190075 6.386887947199225
