24
Energy = -173.13414908 eV
Zr 7.075500740550993 11.922490283096757 6.957165342983575
Zr 8.22678397825844 10.946467451908676 9.386869450474993
Zr 5.206496942786394 10.383309239559658 5.765456342460565
Zr 9.760985729752182 11.156294210084104 7.00709350880742
Zr 5.446198042560103 10.15865313233969 8.784809049629713
Zr 8.137729447466057 10.23517827078716 4.554659787382195
Zr 4.463640618925925 7.639192829842832 6.758409553939436
Zr 7.506436440344112 8.50498878882873 10.473066679701423
Zr 6.008839499816707 8.199343640182136 4.367384881643811
Zr 7.599161646505953 8.915684689842731 7.094521238589769
Zr 4.812153977786734 7.590033451601179 9.563703420412788
Zr 10.491768905188069 8.837792628114732 5.855134346807465
Zr 6.360427532761933 5.878401628026496 10.907884862818953
Zr 8.61062614438659 7.090970005847238 4.598535403839163
Zr 4.769913910913195 4.967091469196296 8.255366204846842
Zr 7.410549037387003 6.11821347546516 7.967633775961274
Zr 9.32301856116302 6.101209911533841 10.17460051596633
Zr 10.473369873695985 6.3711965297187865 7.2298906570192845
Zr 10.186302253842733 8.752925068962465 8.865936093061537
Zr 5.96238613779209 5.492228676642248 5.346287493695688
Zr 7.288487952091313 3.6975911344269567 9.778467482477692
Zr 8.810075871458013 4.530657435429107 5.515511090673876
Zr 9.542591792357896 3.8561606795257752 8.145559800412554
Zr 6.8326169324007875 3.2339767149326457 7.045015248927613
