29
Energy = -210.00817158 eV
Zr 10.477067292178367 10.147479687348953 10.433523674121405
Zr 9.852362134508043 11.76522791033382 8.300593740950383
Zr 8.388383966796123 8.702663827562557 11.539562572823408
Zr 11.457947849865588 9.127578112972179 7.733950020606289
Zr 7.514840541038973 11.107397379380817 10.116434029721608
Zr 9.64919931685069 10.630623503313046 5.836433887902221
Zr 10.568876925561893 7.235968987691009 10.067264135983613
Zr 7.144479890546866 11.582326866474219 7.0759067443200285
Zr 7.6358269542479915 6.194590565271216 10.616188133509953
Zr 8.661046506999705 9.004019025227546 8.363135639798681
Zr 11.175300348794712 5.94657648389209 7.388601769786689
Zr 5.630232972815907 8.590077101477227 10.510424941197112
Zr 9.90435308259492 7.879902582612323 5.373681398932741
Zr 9.713740300277536 4.519254555036566 9.615292414226294
Zr 9.618985019364008 5.053031913208821 4.933145671549854
Zr 3.546645303057729 8.207028222652902 8.05921422640402
Zr 8.18352045803889 6.021048040739455 7.39589433890811
Zr 7.245869550684696 9.416468400873837 4.889228168726654
Zr 9.550544483530206 3.376556519139893 7.156439616253515
Zr 4.922632687077811 10.734627699772883 8.774743324561035
Zr 6.179843399281182 8.129784506387118 7.473110620030623
Zr 6.933866938689786 3.756101335965135 8.699806289048533
Zr 4.67599720350457 10.299311632225761 6.036542255994855
Zr 7.164493402271241 6.515384409604229 4.380915445294831
Zr 4.993992191761406 5.944650207977117 9.474894309579929
Zr 7.072445255070188 3.6957108982317366 5.617200861353692
Zr 4.897456895532714 5.338710822971689 6.790553819132805
Zr 4.4357338054259285 7.705609670351786 5.0004249312651154
Zr 4.806974501451398 5.014764497186136 4.034504503564623
