21
Energy = -147.33698843 eV
Zr 5.043646623180769 6.574315299452459 5.451080030663297
Zr 4.9074229727812035 6.51358960984583 10.090416512715978
Zr 3.5571638887180175 6.07500930692208 7.8004121073581585
Zr 4.278101940942238 8.770487924165913 7.452199654624303
Zr 5.753448727581279 4.351804210780186 7.443440405311703
Zr 6.280115539144054 9.389953133670225 5.328327784832048
Zr 6.387565355665956 10.62726569913782 7.920815884490781
Zr 7.275517702991212 7.325273640048633 3.654975755470706
Zr 6.909639095137539 7.191721031113601 7.87581552610121
Zr 5.821207223974796 9.266200581763927 10.111743703127631
Zr 9.053339158117728 9.465655293032704 4.0818297109242
Zr 7.723625964730776 5.069346219762836 5.318190778595824
Zr 7.58345251099673 7.406869107298493 10.987129310671248
Zr 9.98380777629798 6.684671598184536 4.075211872116745
Zr 8.811233964967926 9.401917867896573 9.214588129352759
Zr 7.292981058989037 4.86650336672791 10.098155860195826
Zr 8.560275899665596 4.132162520669678 7.901411309134566
Zr 8.688155311926177 10.73680255520093 6.549974360945225
Zr 9.709556967234079 8.134421935543605 6.591260409914763
Zr 9.761564185378308 6.565327745596253 9.205487402325659
Zr 10.459899476993991 5.44092398631171 6.536601099883699
