29
Energy = -210.50989834 eV
Zr 8.961991785357805 5.818521467477034 4.712529755354935
Zr 10.40251147191416 4.990113645765676 7.304603017484082
Zr 5.804419710157549 5.961219666851176 5.87624503302986
Zr 6.641817986911425 7.217755176535576 8.856807433471232
Zr 11.972773151687756 9.805485206102185 9.916857276934424
Zr 9.74530066751579 9.072870312503674 4.6140564803358775
Zr 4.515732706730331 6.0684481105944945 10.704566952172794
Zr 9.297875197552559 5.699654746621996 9.888510519345436
Zr 6.842147276992245 4.464469606497308 10.33874776307011
Zr 3.7946200858304744 7.368572541481473 8.104129901708376
Zr 11.569887418648307 7.294065749573533 8.749917782080905
Zr 10.967038492129012 12.082755064563829 8.558413087214927
Zr 7.1862222666704545 10.13686064142794 10.895696900424474
Zr 5.569464900624635 10.252605376714511 8.381877336458144
Zr 9.804220380261333 8.257741209092067 11.237578405436173
Zr 9.76023517917833 11.580053794273832 6.166331145293982
Zr 7.077920441287911 7.096988271402693 11.774215977678512
Zr 9.731897196668799 11.220940642320752 10.963236772299306
Zr 4.860871033522599 4.637844345355854 8.31187364292653
Zr 7.949772198678536 12.144900449178966 8.608544582942539
Zr 4.711167201218257 8.785600090371087 10.664245798409349
Zr 5.180288663853244 8.738887622597355 6.036781951709061
Zr 7.292643440378834 10.527567563311559 5.801869925438029
Zr 9.232619066817493 9.54369705849016 8.518451404854426
Zr 11.868988820914236 9.674749927214044 6.891232261998076
Zr 8.473249381607813 7.437553707565896 6.7712291969832235
Zr 7.656648848201764 4.403937312399455 7.459401199278232
Zr 11.449917979160182 7.057449284017747 5.805094368474913
Zr 7.062473262693613 8.067803503480974 4.134371742058611
