21
Energy = -150.09046462 eV
Zr 8.539909383703467 5.602379886719334 3.830375500926738
Zr 7.728910605084595 8.380021672838549 3.4878954956744477
Zr 5.746797131547725 6.018718495791061 3.568799778973095
Zr 5.095754223615007 8.68324469373013 4.523581679187701
Zr 9.529470941483865 4.9299191518141905 6.227456755908311
Zr 7.472968708093947 9.993259659160895 6.070886430480418
Zr 9.834198299701514 8.017177356045304 5.588417673582966
Zr 4.167793972962707 6.2790789696199205 5.952026277890771
Zr 6.545053768599167 4.191395502170816 6.043945392097292
Zr 7.107535334742885 6.945060237514304 5.955384513481477
Zr 10.417527997691865 6.5994430225121254 8.088165377715036
Zr 4.763267512378864 9.001936701590429 7.213252968547245
Zr 8.065451546194007 4.604349378520485 8.743995382423623
Zr 5.161458494155792 5.458015558706785 8.51923015038079
Zr 6.595924902212631 10.37907881046247 8.863949286990058
Zr 7.393036991857699 7.547516287129322 8.527745196433068
Zr 9.514622218235578 9.429121003389472 8.425250755821342
Zr 9.428873544162721 6.883250135088871 10.538845340527606
Zr 4.892654008787341 8.251002482620482 10.041287289504636
Zr 6.6681777782435026 6.099704788184497 10.95632989495557
Zr 7.570271001507598 8.945984571354034 11.072837223461848
