25
Energy = -179.68711853 eV
Zr 8.957642912289213 10.159959963428529 10.83477347302844
Zr 6.211072072755225 9.507705450960476 10.017563408911506
Zr 8.247773275747114 11.404860269796925 8.069030554157973
Zr 10.856039528001718 7.963062519597572 10.427783243954478
Zr 8.89494974513895 8.617953676332382 8.247299815540723
Zr 5.664671095090184 10.259436887794129 7.382332421592107
Zr 9.610741297856851 5.559824754712991 9.275275517030938
Zr 6.816159572733043 6.790732602734821 8.723029891830477
Zr 11.056520738584986 10.38467977363292 8.85325966298913
Zr 4.981092065802239 6.794625817597432 10.824450313254346
Zr 8.045591525129934 7.326466226047802 11.312160607985568
Zr 10.36865376964008 10.290621586743812 6.160578823921245
Zr 7.869474396189941 5.267625097652212 4.51903883455392
Zr 5.063944303495225 5.816080959511082 5.638805093134687
Zr 6.716105399011897 7.631569602983896 3.5080155675462112
Zr 9.800801217842695 5.482691881428732 6.49122719541914
Zr 9.700112124792588 7.866242769380031 4.676687012779064
Zr 4.788641011114319 8.832229046512774 5.182063255822117
Zr 7.2753664296520215 4.194467890938157 7.285187592438385
Zr 7.26448228405837 7.599606204437145 6.209398529156497
Zr 11.462464406429891 7.6982735532491295 7.380760504431366
Zr 4.661563290400875 4.94491010257372 8.519686058556553
Zr 6.929839915604282 4.544280382094374 10.393120862565485
Zr 7.638554844175218 10.245050164160913 5.114911455995526
Zr 4.122132021035409 7.82143205827002 7.95794954597626
