28
Energy = -200.30247629 eV
Zr 3.4264451137986187 6.461349895580135 9.709207969883632
Zr 2.8911224452340267 8.832791654689654 8.56005104656358
Zr 6.093686893608476 5.8065706237412655 10.622374909690794
Zr 4.981816974061777 8.666530757067354 10.845013320790299
Zr 4.719165408292957 4.592022204540581 8.313408730952645
Zr 4.69081306641401 10.833416923416118 8.581225669419585
Zr 9.044570926051188 5.455545573464995 10.174807761055535
Zr 7.973353307228419 8.010504271853527 10.697422447395189
Zr 7.026635394688346 10.524358849045878 9.849503608665763
Zr 3.305364303423535 6.640719925328683 6.716947280381049
Zr 7.432388852967741 4.309451412306454 8.154593019873088
Zr 5.662589895094044 4.845569973994306 5.704559796478959
Zr 5.849617168180212 7.864006996166884 8.122049325247378
Zr 9.183562458542928 9.770841634752797 8.621692524657565
Zr 11.332374838206006 3.906801498527764 5.0300736457575494
Zr 4.918733300706069 7.269912729729448 4.5168108298667
Zr 8.483882695549843 3.9532180560056434 5.423027406048125
Zr 10.377263510890511 4.592945096282843 7.68102046645792
Zr 8.22739118127729 6.918190107302626 6.28762229058576
Zr 7.050059330513153 10.750252088441611 6.901541411536892
Zr 10.412989551355238 7.377813279709463 8.551674853930164
Zr 4.336700891335798 9.537887787795526 6.015930203738298
Zr 11.231647028395953 6.705398919815858 5.72848788138846
Zr 7.193264989051836 6.1790389728090025 3.4883153463467664
Zr 7.0019167462524265 9.177302116282682 4.446467760915805
Zr 9.946781102948425 5.443572708106037 3.315079054576954
Zr 9.77378365824922 9.516058565244068 6.002314684681345
Zr 9.495719472512581 8.083834581739405 3.663258113995764
