22
Energy = -158.06946495 eV
Zr 5.112671560856778 3.4191785647423223 5.864796683706494
Zr 3.873173159673176 7.830280298991207 7.343373324006695
Zr 4.007028343898851 6.157998657313283 4.741656110528656
Zr 3.658548279991084 5.122204773608203 7.5798079572408925
Zr 5.566793991045917 9.237276872904646 5.553910949670477
Zr 5.599813572409725 9.565031181717542 8.80805660497209
Zr 5.412431925832183 6.479479395306243 9.57269707789575
Zr 6.424638305527978 7.351318104202607 3.4696790803249895
Zr 6.344042293064995 6.075874525107703 6.3636513188127495
Zr 6.445364027760908 4.534598107104866 3.792070989728253
Zr 7.631539773902413 10.825518124373687 6.773646917024655
Zr 8.561709163964887 8.773215249243218 4.888536183806478
Zr 7.7542022288838846 8.013226420902297 7.712378291545443
Zr 6.065192812858347 3.8307106913143465 8.500652137724064
Zr 8.523946022305113 10.268535487168023 9.417083497028354
Zr 8.795343399324736 5.953429132377184 4.253894504077264
Zr 7.528413454625022 7.938693502686582 10.673912528304632
Zr 10.260037491171357 9.535006800201074 7.153871759606859
Zr 8.190202943874763 3.859342586058125 6.393039911781287
Zr 8.404674754177236 5.381694459601207 9.173122395072172
Zr 10.049408974970476 6.378003507209801 6.782483706856732
Zr 10.142596896674377 7.759113993901249 9.452841004359765
