20
Energy = -140.96816774 eV
Zr 5.334079521910552 6.257426592737413 4.772910196542945
Zr 7.6370904112897176 7.319936480215142 4.002889964539475
Zr 5.3034417505298705 4.4368214292541435 6.728876844203406
Zr 8.609936571013252 9.707455003007812 4.881213371901754
Zr 9.301535665359117 9.095807887865604 7.574136226074153
Zr 10.033391016531905 6.974908421327993 5.375771325582929
Zr 8.044128953732526 4.853861694098108 5.58085766636867
Zr 7.179416268582335 10.882216569137087 7.103016946479273
Zr 5.600973674549318 9.122913277810632 5.328853356061667
Zr 3.9168513340712208 7.138960511834055 7.238444050458257
Zr 6.866952105645038 7.161455430927911 7.349107252170164
Zr 11.738420998095677 7.828977343659957 7.595993831906315
Zr 9.81822722048321 5.753011003091416 8.014676913098496
Zr 7.334578376252581 9.484252079677107 9.77698279702257
Zr 5.160569613267619 5.234026416214115 9.364845844805233
Zr 7.581985911824371 4.141729212192183 8.378576932092251
Zr 4.925339515443512 9.76258845633643 8.13083390944647
Zr 10.124417923956518 8.058271441843392 9.978618141019787
Zr 5.132862922236155 7.799325654791572 10.035396093336946
Zr 7.815718595120035 6.445973443872258 10.247916686783578
