25
Energy = -175.68142974 eV
Zr 5.60126163311253 6.0995022103149354 3.6383147310087334
Zr 7.8301525541627095 8.642970027921965 4.111956522272935
Zr 5.940466367483829 3.6922287622494454 5.375920684179937
Zr 5.199762049625354 8.576543008798897 5.38808693481248
Zr 4.252520572333952 5.79736570599746 6.165594696338515
Zr 6.7556045669298745 11.028737273322603 5.362785580430619
Zr 7.344791015593656 6.247068712454729 5.78953022922971
Zr 9.558569436413034 10.708767269325886 5.359651142679334
Zr 10.448511184814961 8.050927126806897 5.48239683591525
Zr 8.473316395679342 3.4830631233609926 6.641324103403324
Zr 10.659842121548202 10.068012475867677 8.000612654272114
Zr 7.93972598758072 8.768575192795948 7.242147661010971
Zr 9.584192542487866 5.9727870911837 7.666976974683202
Zr 12.03884282860882 7.519395081453068 7.8202349206777635
Zr 5.694090486192923 10.609434711432833 8.170579429002977
Zr 4.779689608811132 7.761867524443013 8.143222857134871
Zr 6.217295412732441 4.684307357902042 8.21919186436032
Zr 8.286849794310372 11.794196760922855 7.694532884523219
Zr 8.83590193102785 4.144745234074346 9.6511624833623
Zr 10.122846126617194 7.8097095282891615 9.867772052004709
Zr 8.236098318514966 10.101682386749637 9.965411781804907
Zr 7.427711306278515 6.876598684676767 9.847183506199453
Zr 4.572532318731046 6.072693839509316 10.449594900469988
Zr 5.549023352380741 8.953690272395248 10.625503702073281
Zr 6.518485285508944 4.403213835231132 11.18839406562893
