23
Energy = -164.03545374 eV
Zr 6.595817654978616 8.416376038716402 10.856798032392105
Zr 7.71133850437415 5.667626930985804 9.92531668218611
Zr 9.11445097287603 8.234107099342785 9.021922666338494
Zr 4.618593790866381 6.341786768686277 10.0146751035092
Zr 6.8219565137099965 10.383126845143186 8.623572263637307
Zr 4.15897481160309 9.1885298118015 9.24022389521333
Zr 6.272453471556402 7.654843590205854 8.134084313985973
Zr 5.6329360728074205 4.610968548225642 7.685408160889784
Zr 8.123519356482081 9.157210837249355 6.091638864231585
Zr 10.522981207106007 5.483417427605434 8.599261315566087
Zr 8.481057526948234 3.4382803688006573 7.803694421631805
Zr 10.708423295834304 7.483772718709818 6.3773937278744235
Zr 4.876562057333611 9.56173080979206 6.241401317680293
Zr 8.298157860510566 6.145217388386751 6.985747592158174
Zr 3.4776362678491113 7.029362157241204 7.127451301257219
Zr 10.275251137684947 4.5946542000110675 5.703317111314349
Zr 6.069416526502478 6.858809526444781 5.543882670191277
Zr 6.402741101390884 8.822421814729896 3.5466279351706853
Zr 7.297940105363744 4.141593902247129 4.939616776296894
Zr 4.201348475147675 4.813735702717764 4.968164138379949
Zr 8.698519998639979 6.69568115924575 4.041401908881438
Zr 3.7380658305446213 7.62219888501521 4.097537581137364
Zr 5.926909975817038 5.970677782029294 2.8371713349290473
