25
Energy = -179.36780599 eV
Zr 9.790147759466915 4.2767101633354665 4.718539783295872
Zr 9.744886586725512 3.468436373252931 7.422826413086444
Zr 10.980831092018311 6.227258017236579 6.887781985667186
Zr 7.448079598589739 3.074009061391456 5.775904159082536
Zr 9.763970582142484 6.895166959468113 4.086733107502417
Zr 6.970993730182088 5.372935191959036 3.975972214015725
Zr 9.390707193751116 5.302159583781578 9.389382742943226
Zr 8.200553244097737 6.003089717417129 6.567786505136907
Zr 9.073876027897835 8.025965049992951 8.931838795614215
Zr 9.668175596474388 8.84062686527235 6.067552327038147
Zr 6.994840344443614 3.719918323427487 8.599965400013888
Zr 6.874110081923562 6.217086367774201 10.453929591511349
Zr 4.9599547918154165 4.424029907928105 6.282207124523526
Zr 4.4406620189169494 4.722591172556075 9.254328847306159
Zr 7.335698299983225 8.423949415501939 4.1833629001104145
Zr 5.885552159639184 6.913478255294874 7.782957207613267
Zr 7.1351571289106985 9.505219707595192 7.089377825217779
Zr 4.661771968569517 7.196415746175614 5.046322954891398
Zr 6.2329814458331 9.18991716000598 9.733255699298475
Zr 7.476874420930161 11.412160608036725 5.113008421537799
Zr 4.076447085536645 7.3975493074169485 10.03861749125372
Zr 3.0265872379 6.41424811006977 7.384454719072971
Zr 4.993708881199804 10.093279207940627 5.014573910931364
Zr 3.9375805610606447 9.253452588643512 7.657830358533894
Zr 5.515942879004163 11.795557838869156 7.259861371953806
