29
Energy = -204.14254549 eV
Zr 8.100045496490324 8.850874098933172 3.931928181049747
Zr 8.708554868890584 5.864618419291282 3.980955729988184
Zr 5.811510720000102 7.033717162208812 3.7460513964869855
Zr 5.662939876758896 9.560681899178757 5.543436794593254
Zr 10.288374690905984 8.177139167649042 5.649094776664884
Zr 8.421006599968369 10.523150087048394 6.29868186077052
Zr 3.5714147699590533 5.362146564094954 4.3436422679110915
Zr 9.184601254414098 3.0264847771127945 5.05162085527363
Zr 6.26762138316484 4.284038122177253 4.618872576024954
Zr 3.4017760458262987 7.950946034975806 5.627123318449318
Zr 10.644970966647325 5.2653827422540775 5.97436594649244
Zr 3.6454077338188937 10.586770416482048 7.616565831649063
Zr 7.527690231316105 7.1783915991094105 6.386304260975326
Zr 11.088260590695626 11.144013303969384 6.879556025535054
Zr 4.7718581616504165 5.669865082709241 6.7828136335084
Zr 6.221675223598969 11.585627965409417 7.675455748426227
Zr 7.66765903394129 4.17954089957248 7.169876703025687
Zr 4.61220558016971 8.18648744167262 8.463479680763546
Zr 10.236708380091397 3.1975687793334715 7.763792894516607
Zr 8.871201525604535 11.43278280213037 9.0408974506085
Zr 9.641910111508052 6.161566462262497 8.506443614089086
Zr 10.385865346048156 9.07302379778461 8.475177076866096
Zr 7.506067415600327 8.8537566745001 8.916501349454684
Zr 6.629291480024838 5.879130815382939 9.408890239954186
Zr 5.323653427431991 10.603755574323655 10.145522691390447
Zr 8.698788634907093 7.183619449099509 11.122585110659987
Zr 8.822041679788658 4.2760659328883595 10.539926772334477
Zr 5.80423108834031 7.8618459133192 11.345362024715643
Zr 6.84073243923856 5.307229890087134 12.271143314051184
