22
Energy = -158.02315687 eV
Zr 10.872843290352003 8.6323807248422 6.807375352858784
Zr 9.201262287150616 10.088435216265736 4.8428764558088275
Zr 9.872313795572252 11.380045146147864 7.343202302595515
Zr 10.18085032030769 9.79071430088492 9.707343168575154
Zr 11.689097076788068 7.198955872807082 9.102265495487563
Zr 7.383772733168129 11.941941374047875 6.138149684491874
Zr 10.119485425618688 7.465618582774573 11.517766511928455
Zr 7.462327819741845 11.37036081324872 9.233161346618946
Zr 6.3462161387071445 9.475600060420303 4.754518971631407
Zr 7.728241693956764 9.21540833078927 7.371692243970206
Zr 5.1430736206394 10.671112249413325 7.159259841552201
Zr 8.665036133250059 7.348793816747396 5.097080575554719
Zr 8.699901294385427 7.1083904826056195 8.902984478612881
Zr 10.356874258025604 4.914427922697511 10.03763851263445
Zr 5.280993583043694 9.181232453535905 9.431854916977029
Zr 7.832393046472021 5.6880193943757575 11.40280857767877
Zr 5.090994459994933 7.761669805082829 6.85499146692733
Zr 7.580786101611233 8.868254252578556 11.074420303129374
Zr 6.99634079992816 5.5792572315744975 6.645538263644215
Zr 10.116260117692763 5.537543515110507 6.987070072193319
Zr 5.839723993374457 6.341950584064767 9.367472321969613
Zr 7.899984184778705 4.244911218892446 8.841501846674628
