28
Energy = -202.78876813 eV
Zr 9.455959851866913 11.124423974947344 4.94882593970379
Zr 8.67031763074516 11.770660664878479 7.709371235985882
Zr 6.734931826585429 10.977055997927915 5.509706119381373
Zr 7.721909137616518 8.729748133677557 3.898317737845894
Zr 10.065766484189966 10.230135477815029 9.77063022839424
Zr 10.790773068398625 8.758420290862519 4.480842807668975
Zr 11.266514288407642 9.990176407165633 7.1410434094244835
Zr 5.728451084122538 10.837469182827025 8.166609584351372
Zr 7.194134555569457 8.372858143428628 9.40154075601015
Zr 7.578281816232692 11.31570333947399 10.372301706034772
Zr 5.492332841172843 8.436502013110928 6.0919152976619815
Zr 9.427248332312733 6.43209228364561 4.281122897487858
Zr 6.697515191648472 5.780826072072221 5.068964047595584
Zr 8.674644546366482 8.900788981564636 6.6916265119327285
Zr 4.137463830309104 8.525348246921807 8.602397469763003
Zr 5.0596583162511415 5.8591929868814985 7.660166077495961
Zr 11.16834717837163 6.658378329857394 6.606015248230333
Zr 8.113980322578705 6.313971686802981 7.625827583623354
Zr 10.706452006910828 7.566578756841601 9.184170607650927
Zr 8.466832305418336 9.125852483466522 11.996203924880566
Zr 9.32414810160063 4.293118639708976 5.840153906289308
Zr 5.397298322312475 9.499379869514708 11.182526216909553
Zr 7.038055172353017 3.6771162531197716 7.322068684053495
Zr 4.66348936035445 6.642218251877309 10.489341873535352
Zr 9.770540169239245 4.428739983513319 8.759112908252057
Zr 9.187126293934906 6.229097741957936 11.020154687392674
Zr 6.838900521084202 4.753815251503539 10.026934889584062
Zr 6.801555028443819 6.900582772625358 12.172150540028861
