20
Energy = -140.15849449 eV
Zr 6.531333807752123 10.509415549089619 8.057271920553962
Zr 8.90117541296364 8.663050249381529 8.397056012456758
Zr 8.206974651837266 10.059739293640293 5.667107672057963
Zr 6.081256049430064 7.942639982411431 9.726270465672851
Zr 5.241618842309039 10.274304640052657 5.366180084090321
Zr 3.9554463399990185 9.09804906735028 7.803478461998725
Zr 6.3693193227334035 8.056279851999358 6.604501785848449
Zr 9.605339516350849 7.5683444569597675 5.59879492300139
Zr 10.260817928749228 5.8860352393873985 7.796108096109015
Zr 8.619219445470012 6.273931520143367 10.212584493144336
Zr 3.8711516680372395 7.635168165463702 5.2600839158135155
Zr 7.388479041680156 5.947345111850828 7.644729022256807
Zr 9.268944867682931 6.045180032645501 3.019747540857936
Zr 4.202541588059814 6.0458141767702 7.861789980554597
Zr 6.972543445092845 7.491011876334402 4.0033929194026525
Zr 6.056502127272769 4.858999134812154 9.981952983927465
Zr 8.511801407647322 3.660775490463099 8.763955475034876
Zr 8.338566513406834 4.744151099486974 5.398063689282754
Zr 5.292488028929436 5.202033978754269 5.181963513521386
Zr 5.886056754245481 3.51897159725501 7.368371572542473
