23
Energy = -164.87660362 eV
Zr 10.857482657091754 11.96332034715735 8.48863764619968
Zr 11.429215773799585 10.641988992327127 11.115893554956918
Zr 12.908869188815498 10.285095526849014 8.241552597220375
Zr 10.507530408167783 9.880501948626755 6.250630876707902
Zr 8.493350034184918 11.848221597188894 10.161110306053834
Zr 8.586992427848125 12.153546544855969 7.2341057645641955
Zr 12.652125545717453 7.650103991515739 7.311720618433425
Zr 7.441816929649093 10.494638489276406 5.508343100921941
Zr 13.284409279267466 8.380034079115902 10.222732743274808
Zr 10.507387662556583 8.774617711462879 9.156722774088207
Zr 11.799790451785201 6.024304325319751 9.515325063042038
Zr 5.941531294120239 11.366525610782446 8.208403776192686
Zr 5.572011236118918 8.692360901159569 6.4601181900218245
Zr 11.010438113108865 7.637580535906908 11.867487450197041
Zr 8.20150881031264 7.811197085785941 5.608040088097042
Zr 7.842764941062108 9.24376860994392 8.38411489910687
Zr 9.986942938559016 6.478783798519132 7.167614193109015
Zr 9.126549639247973 6.025619362580084 9.983549089862919
Zr 6.282908488561066 10.184519281516659 10.941158186067872
Zr 8.812910981109923 9.424678869180292 11.88733670814784
Zr 4.977134079430293 8.540835033749591 9.102573521884095
Zr 6.936649702572176 6.429926273042757 8.024893621918526
Zr 6.846579085422644 7.3882731378038695 10.892933630868344
