24
Energy = -170.9965962 eV
Zr 9.309211462573167 8.960024932755399 3.200591746362739
Zr 11.385302913025521 8.069270364263357 4.51708897646549
Zr 7.813411595552235 10.442748470613395 9.07672941368764
Zr 9.295885849462644 9.348937550813782 6.188358849671153
Zr 9.95343600467259 8.510609344410515 9.321685211849355
Zr 4.269540419103505 8.99085744147915 6.3752829707724175
Zr 6.55339151333321 8.40371695891407 4.554039802241437
Zr 7.400048231406774 8.128366863897883 10.713679432809592
Zr 10.433059261324765 6.693313402772219 7.220936144647441
Zr 6.40991472982962 10.521681273473284 6.723044141905465
Zr 8.807672289167765 6.609946912653194 4.8462405943967175
Zr 7.5663820170459335 7.868458497060077 7.735449976006234
Zr 8.67259953414382 5.726804928902441 9.60471406518896
Zr 5.893079701975257 5.916742299000308 6.793453889265352
Zr 8.821898217122275 4.356178224529287 6.87358946500706
Zr 6.1083372288742215 5.326060554325627 3.943102995387605
Zr 3.8311816908699052 6.972979545661739 4.709431535245888
Zr 5.0735225752944935 8.94859624561095 9.108208269805573
Zr 3.2720878876131847 6.615859049197518 7.845177135661759
Zr 5.529668201736798 5.983396517283998 9.920596149641936
Zr 6.2751408715228125 3.084885246917195 6.021303561207981
Zr 3.731350488488632 4.400066342789283 5.5221805933393355
Zr 6.912997539454236 3.6237031511836313 8.783629691529367
Zr 4.248658863859117 3.8293936189824564 8.214646647845566
