21
Energy = -148.290585 eV
Zr 6.277611020233798 4.905924144728716 2.5033251577252202
Zr 4.311382321408681 6.774884894914882 2.6894753801845943
Zr 7.072537198522152 7.537858862710258 2.860641955690479
Zr 3.8860256964080437 4.247774347082362 4.498895835177394
Zr 8.577084384586607 5.448521208017124 4.327208168001529
Zr 5.171530103350973 9.106426244909482 4.349543943237744
Zr 6.6615948524470205 3.1265300171357624 4.361347341381495
Zr 2.7780961583820734 6.968473916357285 4.8475400229830266
Zr 8.185096809280065 8.286485733183286 5.395071860606847
Zr 8.509031924953156 3.1545805079858265 6.298456661732747
Zr 5.73509940837708 6.346485800033974 5.5102708580344455
Zr 6.096874163533729 9.504713306716214 6.981631055120678
Zr 3.5767755843054476 8.411963406384958 6.8671805237814425
Zr 8.301352037531398 5.840880672170336 7.340102865694681
Zr 5.550551124562693 3.2321856125591824 6.960040721539559
Zr 8.15158942114941 8.454843667477698 8.454378193878094
Zr 3.4489730190584895 5.45362240267025 7.2733244318385974
Zr 5.35615620160482 7.5067394398883 8.945686360258874
Zr 7.882112320268211 3.476066112441424 8.951961471952815
Zr 5.484127276908897 4.804941436100981 9.27515434332867
Zr 7.795781092905221 6.21948038630909 10.118144967628881
