29
Energy = -210.01971041 eV
Zr 8.580270369646879 2.5163833012961345 7.373349690623986
Zr 6.614731775894649 3.753840499594254 8.976397080681535
Zr 9.334722995766242 5.158550910793408 8.486881145887669
Zr 5.77523679145411 2.1152762111295664 6.7004997256951295
Zr 7.8002099478606794 7.165347842486792 6.797287017784708
Zr 7.572795477632159 6.981097551438813 10.214007866588794
Zr 9.832053700848153 8.26745489717712 8.906596346023212
Zr 5.417060561716127 6.370246639202072 8.92649917527791
Zr 7.695139041524324 2.2368063006578054 4.640376652402288
Zr 4.244831205773758 4.448779366644517 7.272150689417775
Zr 9.8590447864889 4.310582726442889 5.382873001123557
Zr 6.9750456751516285 4.666460042588944 6.060528820400007
Zr 8.0431382352404 9.673842253286596 10.792273970002817
Zr 10.677845350104603 6.8599550337701265 6.517643342232427
Zr 9.054013653728083 11.054850061906707 8.52166448616151
Zr 5.097522231125703 9.185261168361395 10.529713821774308
Zr 5.092315201976713 3.899302644101571 4.210048323577258
Zr 7.882352070903095 4.48000849812338 3.141667287062988
Zr 9.374534456628103 9.54673367947012 6.0968041604736465
Zr 9.08918250124291 6.985622214026736 4.074042899606066
Zr 6.547262160632019 11.723210560478563 9.643112473695306
Zr 6.571601162279462 9.235944720970116 8.099427403224263
Zr 4.572894627410863 6.8760508668059765 5.739174315019128
Zr 3.547367909434662 8.389063737791155 8.0539871828065
Zr 6.82043205506746 11.632458213520504 6.578775032391856
Zr 7.047794965527136 9.228269907796294 4.647218064115643
Zr 4.285137011559312 11.106600416981108 8.290010449717164
Zr 6.233818556125891 6.654387104891119 3.602173646948289
Zr 4.541351146766775 9.827659184253946 5.790245981348656
