20
Energy = -140.56127165 eV
Zr 7.882285028744625 9.191056613758613 5.005135529225967
Zr 6.659091936164751 6.71179513414286 5.647340846511341
Zr 9.391460493898203 6.574453958834855 5.536963429501907
Zr 9.686401249645705 11.132136248252369 6.3320145270700685
Zr 10.836798151914348 8.727096640239088 5.959564934921184
Zr 8.193817257496914 8.400209644958931 7.902382249837187
Zr 10.774876311265812 6.576038283522519 8.096119988327418
Zr 5.345346071289833 9.071469372626831 6.8871150752961015
Zr 7.045864382505231 11.28688894842575 7.03479192290285
Zr 8.134014928419985 5.168082301314854 7.832807164858605
Zr 5.353586709983256 6.230063902304703 7.8561966699693775
Zr 6.405539168552882 10.366672581883071 9.63734814198777
Zr 9.057775307159499 11.380383516611284 9.070850438683923
Zr 11.33481444378967 9.645908666876604 8.589276275940533
Zr 9.183209838688963 5.957584840717579 10.503461240827757
Zr 4.573481782075628 8.056630872035 9.683996689898091
Zr 6.267345278596294 5.347885051832525 10.278928426413724
Zr 9.380876235172124 9.066525540468511 10.759557163208468
Zr 6.971459630166779 7.860272881147374 11.030320583199183
Zr 11.705006303610892 7.431895509188655 10.538879210560633
