26
Energy = -181.00800163 eV
Zr 12.115672154721413 7.007981085234547 9.118198509524731
Zr 10.61922239870382 7.012701202421375 6.362877983665471
Zr 10.177757923262593 7.333716023735354 11.006407422812387
Zr 8.892890186899065 9.486488555008043 5.463643023226338
Zr 10.082911441283445 8.897001906268528 8.433040639739186
Zr 9.659582215201894 5.627373898089538 8.726833060136752
Zr 9.363560434034929 6.8465670890233294 3.7981284580581938
Zr 8.784055216063 4.810476395573268 5.751089478987923
Zr 7.485637287594366 12.186853578102774 5.591396877971795
Zr 7.682778233236396 10.592375735724703 8.006139659706875
Zr 7.346912194053155 4.864430015880543 3.1220881035875445
Zr 7.503818326086698 7.427990495072186 7.314386390281503
Zr 7.602137094001919 5.6914548623954 10.927377527001909
Zr 7.632350949592382 8.508092269633176 10.229043719299279
Zr 6.723257366005031 7.380591037186365 4.244035994124868
Zr 5.834326253953662 4.35108704580397 5.609246303291033
Zr 6.859733791717917 4.415029046947669 8.249728315050687
Zr 5.303919834645172 3.962452835802949 10.517816481368197
Zr 5.371317627187689 12.211623182891831 7.237911485948227
Zr 5.186524269355714 9.353892956659418 8.491488013079282
Zr 5.225943618143023 6.747699005107685 9.683420630932838
Zr 5.885984009524268 9.766827925524508 5.761787321237802
Zr 4.538854688891469 6.981017618533387 6.546503285954673
Zr 2.963392658603777 4.793570061339086 5.4043240177813585
Zr 3.849592624007764 4.565300548655564 8.11127418516598
Zr 4.467736595506379 5.897587531788352 3.5381562572664134
