22
Energy = -158.10511949 eV
Zr 8.408524534623103 4.521601567627761 5.330249920944712
Zr 8.138150829259864 3.2112738881056013 7.663624960383465
Zr 10.000435662784952 5.630413957660745 7.656134317549529
Zr 9.466956230851322 7.102742193948058 4.812499681820461
Zr 6.512251588465216 6.044901362472619 3.8342397178721246
Zr 5.556185723731422 4.074926599497559 6.228225137902608
Zr 8.477340738629904 4.6754924503193305 10.113210869409892
Zr 5.776282627393004 3.694219854334422 9.230496526557925
Zr 9.832726507031097 8.482051928152629 7.4699323018012524
Zr 7.5051172220697895 8.865438368751052 3.318083366081838
Zr 7.066670046458198 5.993561308358035 7.907065330759304
Zr 9.000982482109414 10.056650669802378 5.4755459729214175
Zr 6.902216783633854 7.962508302061553 6.062040961175654
Zr 6.073858134895379 6.120314650926084 10.758706657587048
Zr 8.521040212295942 7.703903663337876 9.868252037050912
Zr 4.129709320434266 6.098281335274177 8.39173159357022
Zr 4.0703604757815315 6.426501346481985 5.5740868232873275
Zr 4.747486072824533 8.555164129933484 4.074129110636416
Zr 6.202005788558378 10.705818809109905 5.3060309759654904
Zr 7.369718790458928 10.131142072370736 8.0499130589544
Zr 5.616838406153859 8.458404272715425 9.542149951345408
Zr 4.331253532566645 9.05675629582742 7.055597844899634
