27
Energy = -193.61727573 eV
Zr 8.106683307637942 9.009501752520709 3.9783924581386434
Zr 9.162653513618151 10.444010087134552 5.95562156340115
Zr 10.386474764248367 9.490951650659003 8.137564869917426
Zr 10.621674997241948 8.010389699164277 5.147476658316287
Zr 5.766106179953616 7.458403956174461 4.915103099996177
Zr 6.221081328368727 10.257286819812833 5.814261660016511
Zr 7.891767376242522 11.628478230032705 8.169059903484355
Zr 6.816570462076032 8.839080837666776 8.679580129117788
Zr 8.534722221635095 6.428663056997069 3.7257822076447114
Zr 11.535328156027601 7.0129967839791405 8.04177277075106
Zr 8.30350810272426 7.132973687303021 6.797537234858902
Zr 4.981449437614943 11.280671312443246 8.161559706030785
Zr 4.147770810025817 8.586277475602566 7.251747515769009
Zr 6.960745026416499 4.784446958085369 5.155212993407239
Zr 12.033645643033852 8.68235478439702 10.472791078968914
Zr 12.08925544194668 5.996997926506315 10.705012822620061
Zr 4.168181697685053 9.487911281009188 10.1772544873354
Zr 6.3961838779400555 11.109356821225369 10.669901853976764
Zr 4.568930460843742 6.890105535567405 9.764345119886118
Zr 9.980970339821251 4.978499342029306 5.810337906879787
Zr 6.601376449918458 8.208958242235056 11.54384385594021
Zr 5.2922427081496926 5.777837794894162 7.318711801059861
Zr 8.942715893541173 10.108197394565689 10.685769687717466
Zr 9.873419760734615 4.97514687706324 8.846138015732688
Zr 7.044252851264802 5.621818185049481 9.903871704866901
Zr 9.42918486317624 7.381306302246704 10.37793448244778
Zr 7.705723296305253 4.018301991643394 7.57760964202671
