24
Energy = -172.21644915 eV
Zr 5.275740082083962 6.711672450414727 9.052770343049376
Zr 4.362537296513209 4.254578720587707 7.749828473236043
Zr 4.843486723407715 4.5517114348837335 4.900010390487604
Zr 9.195308953548093 9.458395478618055 9.143048367776554
Zr 3.9827445052365973 9.182403436169677 8.217115627969072
Zr 7.9807055188402005 6.839116951290523 9.546502186858769
Zr 6.080203489083766 2.569929074279195 6.376321492766796
Zr 7.976376878996796 11.459056639632891 7.668404915487001
Zr 6.905881526661507 8.616663035116117 7.17322728440228
Zr 4.476279845846977 9.478242211784979 5.373099980201483
Zr 6.853530452559818 3.6553602017654665 9.117170674232394
Zr 7.662439798606212 4.180538828039143 4.321083878951384
Zr 6.047251730303479 7.1822261229516045 4.506261775482703
Zr 10.049113629096048 4.8734490565347635 5.806972578244378
Zr 7.19886019421547 10.37671276073238 4.919394214477612
Zr 3.8187604135384574 6.828361781055584 6.455359925335338
Zr 8.761751521537263 7.350850256641699 4.961977537935865
Zr 5.423449847990296 11.319254318324965 7.215724513436755
Zr 8.630149964175981 2.7211500535818867 6.8217266146698545
Zr 10.209016298224702 7.197133848207274 7.581126233310126
Zr 7.145548595646458 5.421629903592585 6.866875346060593
Zr 6.377583043155921 9.858171838521754 9.71412308759966
Zr 9.569963782360876 4.55720293119436 8.660812921014394
Zr 9.684653915786265 9.774681399875218 6.292428472312409
