28
Energy = -201.30900732 eV
Zr 5.651505303607247 9.059170065633518 3.7088182825230858
Zr 4.066497313901084 9.339027121973867 6.246482228210305
Zr 6.489892864778507 11.102553384779274 6.3322159624724295
Zr 6.393830402149853 5.641073797735392 3.645121109951661
Zr 4.667114358191209 10.65055445526311 8.766728119378927
Zr 8.537160356830276 10.316112377812344 4.119353222642306
Zr 8.300864166249468 7.78681282219605 2.871158082044203
Zr 9.314570775914627 10.28107931677493 6.899031588684292
Zr 7.352261515262935 8.23782783712334 5.6156367764028
Zr 3.6374758527075226 7.734129471618969 8.766827783284786
Zr 7.724469467350674 10.586340493497286 9.372366799466908
Zr 4.698471062912451 6.57358299825318 5.991874876203914
Zr 5.54716058266888 8.937332439744111 10.834224344189984
Zr 6.47653933586875 8.583974958945152 8.074619489918883
Zr 9.510333080370073 5.465727105306182 3.7629144643657626
Zr 7.985142797414172 5.703402530258443 6.240588679214177
Zr 6.554443915232001 5.931048094286344 8.484177838480765
Zr 5.531103133048607 3.771447907598466 5.9496252390600874
Zr 9.531375852243903 7.694596002195815 8.146874279868827
Zr 8.140082596893405 3.2476792796606344 4.8430485665306815
Zr 4.712353082051933 3.98309131974279 8.752160203578871
Zr 5.043286575987152 6.196556444323493 10.940775402536822
Zr 10.342781215430671 7.9660494885309685 5.183446737843867
Zr 7.970867454583615 7.233718821923039 10.858189508583113
Zr 10.396350128649733 4.560462553825281 6.55638669761923
Zr 9.471893839410217 5.0952167462091795 9.333928754173494
Zr 7.731932259297853 3.1239767903284594 7.909289522203389
Zr 7.073089336700609 4.239319364750841 10.698615168530718
