21
Energy = -144.25829012 eV
Zr 3.947460306598372 6.236228616833609 6.742266003507911
Zr 3.533566452788114 8.432888109121299 8.535058356427054
Zr 4.195168998635668 5.822366765964831 9.59686414948915
Zr 5.6641773763222645 10.188248058791727 9.4243220465442
Zr 6.671907836708768 7.302119945562607 6.672086459965408
Zr 5.542637841399344 4.707678659780273 5.117427005076498
Zr 5.135771300830151 9.801277247417039 6.606329594714082
Zr 4.352447440846465 8.2620284775892 11.14936491109306
Zr 6.504035210508573 7.236609511230567 3.9365449553157967
Zr 7.262898186987676 9.93389709328186 4.890426146434729
Zr 7.222579677561256 2.697399892773249 6.247937134100326
Zr 6.51829345971196 4.718928976216075 8.049442605464444
Zr 6.6182026157934395 7.4500956775310465 9.737475653719578
Zr 9.354436720015208 7.952306923129468 4.927909211406909
Zr 9.842669272713314 10.659493774861096 5.886685215794298
Zr 8.143899930034296 9.567098976558794 7.834599397668768
Zr 8.407147891398239 5.073017409349261 5.043464678464407
Zr 9.191856645295244 6.585029256668274 8.34095348180781
Zr 9.417255128266275 3.8323439660218286 7.542364440489417
Zr 11.009116142890857 8.575745499887125 7.312479924753634
Zr 11.017772953149318 5.872522643575203 6.293565509239334
