27
Energy = -193.18028376 eV
Zr 10.319479308633738 4.863620096284834 8.42063718070237
Zr 9.106756639980862 7.06394284673445 10.242883539276665
Zr 10.281661613848947 3.6629869534100967 5.849822915901877
Zr 8.236549709157766 6.324200823362007 6.9898089400232735
Zr 7.75164368396854 3.4113494941550084 7.148674938905789
Zr 7.756903108507957 4.591131391243568 9.73309438438121
Zr 7.621938733977523 9.11669863580558 11.308212041182374
Zr 5.3425796896059765 5.236548985393224 8.240477736789966
Zr 10.960007092647713 6.653814941434627 5.659631297176224
Zr 10.940624177206967 7.710504365194258 8.178940403756007
Zr 10.743264178097975 5.009737263881644 3.499212933950224
Zr 8.074110292100709 4.829985667502999 4.216285575473282
Zr 5.952011151599195 6.757525654263256 10.663369271486989
Zr 5.596786831077251 4.464587378977485 5.4889765885157
Zr 9.22009877269796 9.965070669839413 9.028003349445074
Zr 9.40335484286434 9.309158443232082 6.152684665300487
Zr 6.554249138602849 8.614124063866372 8.251560369341782
Zr 8.945715000413086 7.6191185673385595 3.769057661689698
Zr 6.233763977939571 7.203687550312777 4.816572774149813
Zr 4.906643330627243 9.482680893299872 10.867734523431588
Zr 3.737506882031797 7.874087723644688 8.793429857628732
Zr 6.804859912091042 11.373808480595812 9.886497430813199
Zr 3.860388085025571 6.631971022655721 6.2048408796095025
Zr 7.182268390614457 11.269372480201888 7.036677717452818
Zr 4.579009700867176 9.495711838143803 6.036471711748843
Zr 7.06051733456196 9.829025323023968 4.5825752398460535
Zr 4.439494868133582 10.826274495558021 8.417175757112043
