28
Energy = -203.66333487 eV
Zr 6.543451363462662 6.5906570877948765 2.5343173140187205
Zr 9.014809100647733 6.474909900694707 3.9078501549804106
Zr 7.447587928196832 9.187018759603024 3.7499991725737982
Zr 10.043729621150726 8.822620839866877 5.624241714480779
Zr 11.167631800551147 5.993554867579884 5.801530821077531
Zr 6.637342179459859 4.422532287349303 4.623095676130361
Zr 4.519758708706719 8.451069333377088 3.135172296328155
Zr 9.245084929266886 3.991393230470216 5.631901008308774
Zr 4.10018777165673 5.660411499146068 3.7829731541665947
Zr 11.328026766009149 7.4065133138591035 8.114048553706665
Zr 6.037488281672105 7.267228618725689 5.4350001321103
Zr 4.98138179832366 10.107178793559509 5.226436148962438
Zr 7.327303042395092 9.95678092524927 6.790924938490316
Zr 8.578565694045821 6.749122278211819 7.049955176248322
Zr 9.523551620703763 9.444317093892296 8.443124620341125
Zr 10.051147370747561 4.663412455863962 8.386294843043244
Zr 3.1419253505230356 7.723191262890124 5.7403596202343925
Zr 4.497713092850099 9.431527353881146 7.999096042337287
Zr 9.227173027557845 7.115229980301149 10.199003781013365
Zr 6.973983006055917 3.7788704359995116 7.545364099002458
Zr 6.073558862028549 6.785416529129273 8.42256058227107
Zr 6.96603974428157 9.259052518929655 9.830573984115825
Zr 4.245406634941267 4.802859142819361 6.557401749361914
Zr 7.721061202468674 4.592404679620138 10.108864313316237
Zr 3.0435939857561247 6.717520049683539 8.381761516009423
Zr 6.5967486298186335 6.7175007405673215 11.453142931030047
Zr 4.305214137093024 7.854741073958767 10.51548025901794
Zr 4.780753087635509 4.814218005097151 9.909720686740638
