24
Energy = -170.76158148 eV
Zr 7.182119366796645 10.224252860715142 4.135252430937467
Zr 8.128174822192253 10.866811233521688 6.779305423817108
Zr 10.036795148462017 9.308820341633885 5.049326993913412
Zr 9.618686235784256 8.71714735137144 8.344004090551074
Zr 5.3070559253156 9.956989721551235 6.38257468012382
Zr 6.683222042004691 9.377980869786464 8.9481526122357
Zr 7.502063149609102 7.568373998027051 2.984361359618939
Zr 4.835600992028797 8.414211718653506 3.838828977589186
Zr 8.055470546341398 8.042373493104536 5.9487892071640625
Zr 10.398829137780469 6.391389331825647 6.846318623699314
Zr 8.14815598213072 7.578419732098645 10.788318818812648
Zr 7.282722399363414 6.333012697258941 8.287261871937016
Zr 4.000283154522641 7.931892237803665 8.222826831525238
Zr 5.700116016476029 6.816404500805918 6.0902209265977625
Zr 8.167899789541277 5.217619367845143 4.454833329598504
Zr 5.275706892344928 7.259591682596817 10.518943500385054
Zr 8.898335936275636 4.0692253233589435 6.819010651060742
Zr 9.4730362170573 5.071310524212786 9.558102839475447
Zr 5.39665277343507 5.510174009341119 3.5288158986612292
Zr 3.3403041235160487 5.809303740248761 5.825480589396005
Zr 7.082389342375999 3.3126828864936537 8.73680453641032
Zr 6.745991783914841 4.975216081055175 10.88629350159025
Zr 4.502798038977933 4.967520258178753 8.616049298228727
Zr 5.878330125517637 3.8530506905624735 6.0478038381373995
