25
Energy = -178.08258655 eV
Zr 8.056625117377475 5.751016768598103 5.130512539679145
Zr 6.03723724407283 7.424533183646003 4.785887105646934
Zr 8.834894645232318 8.840269535709426 5.399599618576461
Zr 5.597849299615079 5.001541741907932 6.757611664995904
Zr 10.631848764473808 10.847817944009176 7.141741719161348
Zr 4.004713425793129 7.591794339097191 6.754413151307302
Zr 10.691202890966917 6.090042958767337 5.693457692237665
Zr 11.82859903269743 8.38011430369093 6.635352345970938
Zr 5.789231969297973 10.057182015314615 6.13725127693508
Zr 6.769469923353969 7.329850847123307 7.66173123612263
Zr 8.161936530762777 11.779944059099936 6.609557496448571
Zr 9.072124359130806 4.341761336850016 7.497892544002085
Zr 11.389629961837256 9.35174241445825 9.422291282248123
Zr 6.149812976307703 11.695697131642861 8.655283088234357
Zr 8.177374868508602 9.628166656954425 8.600150847102952
Zr 11.806743656752593 5.947396217741521 8.423263589895308
Zr 6.9647721871013415 4.7123622968596255 9.428033556286577
Zr 4.432841077173252 9.508353519562679 8.696142233090061
Zr 9.476759160592357 7.302945457629282 8.132745530218305
Zr 9.119725891518668 11.75694887522526 9.6591771638376
Zr 4.747650773933438 6.741654031138696 9.62821966814481
Zr 9.625945474725365 5.362387972214876 10.341066376758702
Zr 6.272521732997409 9.463346341902094 10.87416639996584
Zr 9.403104253334181 8.618349100491177 11.194938706232914
Zr 7.327477639594362 6.844873807516476 11.109606024052292
