28
Energy = -201.06958357 eV
Zr 7.366637690630079 10.877767185267484 12.217987659025452
Zr 9.599687368355463 9.357667436086485 7.958772236001553
Zr 9.532030019101898 6.559359494908061 6.748848627974813
Zr 11.10925088081317 6.819403881954923 9.524514479380162
Zr 8.017340869481487 8.714546205670452 5.232692007478949
Zr 14.40039841580336 9.611602261588931 13.265403440315826
Zr 10.774910085405367 8.75360929094286 5.058525764016004
Zr 6.893247949848281 7.699621663421092 7.476785440642356
Zr 11.867515415245975 12.007114030991414 9.175124525260102
Zr 12.003785091359228 10.826146552508403 6.674061755208129
Zr 12.232572499255891 7.748608765522459 7.102559516846909
Zr 11.557282660682866 9.024845972814838 13.949572574373995
Zr 8.369670161638798 6.764910006396831 9.723237983992131
Zr 7.226736015885453 7.842301144157161 12.09676778145727
Zr 8.656794411573516 9.011140874437498 14.06602934693753
Zr 13.026970487596813 11.55373544771945 14.466137123563525
Zr 10.011005373358552 11.46238550376981 13.61305773787944
Zr 12.93954944523987 9.339712293448603 9.284617707838661
Zr 7.421445059569169 11.931304764010674 9.59223481459753
Zr 6.511527164654221 9.262139365403696 9.768473407041967
Zr 6.965737511429969 10.728499719709928 7.102206485397537
Zr 9.889747980600509 6.7106878718951695 12.498394360107085
Zr 9.825696109878688 9.400322062137537 11.15456937775028
Zr 12.381792433005462 11.022577414091348 11.739724486716195
Zr 9.517216664694727 12.540680837835682 7.753374653076914
Zr 9.765254184197813 12.618573372898297 10.977893025015753
Zr 9.345325120755476 11.19248696376472 5.3388244540072085
Zr 12.599486127541098 7.795082111957089 11.719448759891208
