20
Energy = -142.50548337 eV
Zr 9.074880112145499 8.323326020721247 4.958438318368077
Zr 7.7166117413312225 2.9722252387366486 6.218354544366451
Zr 6.316691114989097 7.272445634675633 3.9258525568653857
Zr 9.707088521598118 4.560760928260303 7.744345079890936
Zr 5.735626233225888 10.699452964525205 7.542213422420609
Zr 7.08728892134525 5.597378539500207 7.145770750563276
Zr 6.621388747694009 8.131830960850994 6.67410028471007
Zr 7.215962148184932 3.509100367240303 9.122332402367073
Zr 4.958486443238374 3.6238452447897607 7.243222326082447
Zr 5.1701336089820344 5.94955947214579 9.310035343948524
Zr 7.024922154219587 8.611822515693742 9.4880315654524
Zr 8.226592120940385 5.999026233663103 9.875448612309745
Zr 4.157764278670946 8.458937990195802 8.259305246359004
Zr 4.053042942552428 6.2618946748008595 6.275868452675875
Zr 4.249651459046116 9.143560377436792 5.374239648882989
Zr 5.898551924161518 4.525553744022444 4.62291901886511
Zr 8.590737434067234 10.16445379266049 7.211598438460655
Zr 9.598332187735219 7.603057076435745 7.878694261233198
Zr 8.767788728481191 5.417430861768204 4.780920865159442
Zr 6.919842482485839 10.207625358020227 4.741144362382734
