24
Energy = -171.34132634 eV
Zr 4.351604810996277 2.980804588633656 7.38224695316937
Zr 5.588103950275589 3.294903526557228 9.735112346787009
Zr 3.4339223561694823 6.654641526197145 5.701095462807626
Zr 4.620182986957185 5.736406439922055 8.350494227227122
Zr 5.497710243969303 4.941912790272734 5.337023327174545
Zr 7.138009971022807 3.981544171477746 7.342944401841508
Zr 3.2635637317866535 8.584632011551209 7.861138187261137
Zr 6.91846548083058 6.031111814038539 9.850136863460005
Zr 8.322544858806534 5.1620602376965214 4.272402669082455
Zr 5.940757870394184 7.418269948747122 3.914261325753531
Zr 4.077119408753704 9.428115964534115 5.119191191862311
Zr 5.960984221014998 7.966364758936392 6.917663488323685
Zr 9.330888283348814 4.9821375401112835 9.19271698899269
Zr 10.188830471913057 4.397142701983311 6.482243907521886
Zr 5.089056600480001 10.769004079290397 7.440111090609635
Zr 8.341216068203577 6.641255344914 6.7800785718745304
Zr 5.622685638111025 8.768450650739867 9.689808143354673
Zr 8.678444646037494 8.154434782257054 3.978501368202599
Zr 8.851335901129751 8.119319672829663 9.400139879095278
Zr 7.040737289324345 10.140508027780687 5.175089995725619
Zr 10.766613151467864 6.818392302177902 5.042898386670183
Zr 11.112391007439674 6.8595353319196475 7.88515128636119
Zr 7.670719960203346 10.370200497645651 8.132256259242569
Zr 9.769839978028125 9.26551939968464 6.575222496623993
