25
Energy = -178.71135697 eV
Zr 4.970496920733965 9.056891189946354 5.246807914685766
Zr 7.865479184457845 9.334012742215409 4.154245596061586
Zr 9.04982337850218 6.645175545479436 4.902090468206689
Zr 6.355960877915005 11.237970419910708 6.037882995827613
Zr 6.306997339375592 6.854217662396705 4.431227943160151
Zr 9.192756896316293 11.25815284361703 6.087003715845742
Zr 4.666237818803881 6.648630710481475 6.961772672583112
Zr 10.6064156928721 8.61436816438556 6.149682486374939
Zr 7.5967473657530045 8.603943412861295 6.909060875269989
Zr 7.1418817578293705 4.860427994199929 6.24950250440709
Zr 10.006822282763553 5.979418609156415 7.605614821445405
Zr 12.329329562122544 10.664438998510658 6.9011474796345516
Zr 5.336932486948348 4.313490796519731 8.53628420904544
Zr 11.922833747975135 8.277751116110574 8.655982277080135
Zr 4.8479458302447505 9.396841320509967 8.13223455331239
Zr 7.239143400192877 6.515535938173887 8.849956289672626
Zr 4.7632326159567695 6.90136755525084 10.166337171157526
Zr 7.474335784566708 11.139669119277457 8.640814172389216
Zr 10.35104638986534 10.732813679027213 8.682077006993657
Zr 9.509482534310422 5.493529629172892 10.551020434553168
Zr 8.259357573269067 3.695143020596425 8.697423464135706
Zr 9.298145426278067 8.434947726501548 9.792674633222425
Zr 6.465218203071248 9.31031753050698 10.495061736667633
Zr 6.6973676686925945 4.56804558337755 11.017037661382824
Zr 7.425151951555975 7.142041382186117 11.82619960725689
