28
Energy = -202.63014377 eV
Zr 7.49119798624871 3.800656090107556 4.2220099981341255
Zr 5.485944898856841 3.0551914868260344 6.267607131919246
Zr 4.988044894941464 5.418852837140474 4.492340118288555
Zr 8.330562720020053 2.6999807609509583 6.734302108838048
Zr 7.5528029817091875 6.900717872868044 3.947382099022889
Zr 4.044642574079798 5.782022762805326 7.238592105021627
Zr 9.887721395174216 4.962292143816785 5.572889851084
Zr 7.124549498068784 5.42963728218436 6.66967488243369
Zr 4.925990294558874 8.044881838730625 3.0472827540357126
Zr 2.8322325479162225 7.374609041183953 5.043036379706623
Zr 5.404406768141027 6.360119974312203 9.755251471303904
Zr 9.690775731139745 4.365160871670647 8.671847277445663
Zr 5.682508007249592 8.099788767303107 6.044627844913608
Zr 6.619361455345556 3.575612475773134 8.952453570342009
Zr 7.911792650979962 5.2925739686564235 10.738340142576462
Zr 9.705364796146977 8.0491158909633 5.500992147374178
Zr 3.680611206321625 10.051324570036714 4.637507819387865
Zr 6.645129561398143 10.115758922579738 4.070672189524204
Zr 3.155322099571953 8.959958193061611 7.41209689698299
Zr 11.194402662544292 6.544570137845361 7.537505049150106
Zr 8.281216869898705 7.3722375102719075 8.362910903610842
Zr 5.80814179220385 9.11728478816872 8.89578980991018
Zr 7.994000124465596 10.00286982514721 6.793158620576483
Zr 7.386225537723974 7.971964151927727 11.233892010858824
Zr 10.268458591011846 7.125382846315367 10.341892205640741
Zr 5.265043920537816 10.996286169869066 6.651746189645151
Zr 10.644924121699814 9.221702592015516 8.06316700331449
Zr 8.706511458149842 9.90172088801029 9.85937053184238
