24
Energy = -169.02212972 eV
Zr 7.3066257343823695 3.488290041232056 3.619199663255096
Zr 5.177222772264563 4.194413890672773 5.634631749811822
Zr 4.2284528562349655 6.795656645494933 3.9885823957573976
Zr 7.032588326440756 6.336387585614036 3.875618312861688
Zr 8.107163273499598 4.768059952223619 6.111454048114523
Zr 9.733746542220233 4.961815262298007 3.9002899960488007
Zr 2.6215441935055717 6.0613277156822285 6.255478348931361
Zr 5.332488247019188 6.78228777514789 6.712587266693547
Zr 3.4385640404493327 8.909081858824177 5.900219013253638
Zr 6.753442005766239 4.421843267884482 8.613728877903254
Zr 3.9280836713738956 5.033005205984343 8.588878470091837
Zr 9.758369574923814 3.74689471106249 8.087783213997545
Zr 9.423055726634912 7.941380559069781 4.7938443995423325
Zr 3.3501537744432137 7.938324773478268 8.667162449498933
Zr 7.814966129571888 7.474210380172402 7.203750218124525
Zr 6.2780905475833695 9.05604777650837 4.803636553188455
Zr 10.860582264255278 6.00828014120211 6.697053229297866
Zr 9.349987935151397 6.275835082189574 9.377326158497738
Zr 5.6543305326925415 9.902824699090827 7.636865244965588
Zr 6.115745540360337 6.837843439576395 9.868418788643922
Zr 10.468681949098086 8.536095933702509 7.644648474989802
Zr 8.172955945398133 9.247192828668867 9.481670001570334
Zr 8.41602839442579 10.232061780834163 6.607480687205174
Zr 5.315758447710619 9.403362126668217 10.372433236524875
