25
Energy = -179.458174 eV
Zr 3.079060110337401 7.172540155240499 5.776238851201554
Zr 3.6358867551302785 5.548275019058525 7.860960499147596
Zr 4.435158306074986 8.378540692291221 8.17037224441941
Zr 5.643227972778184 6.468786362266392 9.809563641533167
Zr 7.127222531109771 9.114121860403255 10.150127300690524
Zr 4.474606140273606 4.515278030510945 4.977427284427655
Zr 4.512754105219534 6.9903533650092635 3.437173849079995
Zr 5.518078365512224 3.555297686918457 7.635728314888366
Zr 4.988963141165611 9.417422728767674 5.293115272208533
Zr 6.137186177081363 6.606966759269214 5.968881478968331
Zr 6.3562372309416935 3.9645623724933747 10.382696987068913
Zr 6.264049639410642 10.45415146095277 7.640374017045971
Zr 8.436369074457879 6.362444593847929 10.584691470751839
Zr 7.275416925614257 3.5945350371454436 5.659422284454117
Zr 10.101778291574997 8.562607283598217 9.689093302739783
Zr 8.298318738547655 4.306133322630924 8.304115079260072
Zr 7.994609067855718 7.680475607398479 7.770738272821533
Zr 8.955865142683663 10.50994883231546 8.146081260882363
Zr 7.162577320459258 5.478443879869643 3.441838563440651
Zr 6.7991549120552515 8.41243435706028 3.2647075734372377
Zr 8.076942906636809 9.944335005490874 5.419012188343779
Zr 9.474577272212516 5.409667866424477 5.762256363407254
Zr 10.50404873780999 6.043689480835895 8.499713750415129
Zr 10.559626316530506 8.398452518532338 6.667666784075316
Zr 9.163037361542067 7.582293606626544 4.213972140380261
