24
Energy = -172.37468633 eV
Zr 7.859017053340651 8.939986809312959 3.850115342886542
Zr 8.836495045086394 6.287144778342011 4.647208524857321
Zr 6.081361370908698 4.521749618752722 4.88031348813829
Zr 4.764206971223378 9.23526480318706 4.2829869649625225
Zr 8.74169983704438 3.754789142833104 5.918539663084692
Zr 7.138277240034235 10.645504731744497 5.9320971347748825
Zr 9.494959726428423 8.554821008025659 6.238340417955778
Zr 6.171178449103407 7.587366642604816 6.042366353445133
Zr 10.38466100234201 5.743206595100676 7.419499084301006
Zr 3.8877800069926267 6.2773647588110455 4.447187069277891
Zr 6.265121166969708 6.833292378210611 3.046185529183566
Zr 9.322303998492576 10.790922308721584 7.904046580360925
Zr 4.686727988873894 10.035299581224287 7.220909098202767
Zr 6.3406949134976145 3.143481903171927 7.3744695463814764
Zr 3.170961834551115 7.849044770084003 6.546129990782699
Zr 7.5646285531193 6.0103592098994865 7.838041614828666
Zr 9.668585236504795 8.11735601016894 9.216617493057086
Zr 4.3174393192617595 5.198123359746143 7.308243646674869
Zr 8.77415253069605 3.385798906599681 8.696693430306524
Zr 6.98855808141436 9.541758772907333 8.827208517528272
Zr 4.758924284906123 7.5020102718302075 9.018826975779731
Zr 9.18544977009632 5.479864655336676 10.315368763616709
Zr 6.166740482856632 4.672131775825681 9.91227975882563
Zr 7.218270175897157 7.381875863583379 10.634456731852326
