21
Energy = -146.94558239 eV
Zr 10.358516052116714 8.769573514645506 6.00600014569898
Zr 9.428212501529703 5.9514662820570265 5.822156922548465
Zr 7.816852298795257 8.088677654927992 4.385116975544554
Zr 10.314976567519727 7.126008446834098 8.572963369300295
Zr 8.143757108606271 10.738298926388039 5.964935224998713
Zr 9.697593022386467 10.207766301076703 8.536907343446105
Zr 7.202174326751649 5.130346929937765 4.08737126965128
Zr 10.459590852870507 8.545970101406262 10.933986601473022
Zr 7.808524976234377 3.5196802131517275 6.37157058497857
Zr 7.8927359149854155 8.269368854057936 7.394661397824924
Zr 7.810965072948031 8.364419006238116 10.300645307172807
Zr 6.0104872585766485 3.325589683967849 8.329709844260753
Zr 5.385195447238273 9.330714515414694 6.083209450599517
Zr 6.338511101729951 6.157875740894539 6.72764498961114
Zr 4.689796257098851 4.2253061413977555 5.756955653639663
Zr 6.725964165571974 10.62179285308605 8.556169814100194
Zr 7.725609001156681 5.528712013505657 9.089876782198813
Zr 4.983977257121329 6.925507746596248 4.2062911579071125
Zr 4.298013985161586 5.303768387025255 8.803654146674708
Zr 5.035752586088385 8.193523716043627 8.858303244210948
Zr 3.5040325667404897 7.002094527936282 6.648382339009234
