28
Energy = -203.21400073 eV
Zr 11.46608270440474 6.200960702321593 5.45577270273858
Zr 10.770123090538286 4.880293183086148 7.7862627788451535
Zr 11.106102381857687 7.894718321413849 7.942490221729739
Zr 9.229221423322183 4.134833567665774 5.370963836831467
Zr 9.343970314395957 6.629090174442102 3.566698731039665
Zr 10.454553711656866 8.874174848847108 4.997044028148313
Zr 8.27914858465067 3.3893721457516697 8.243464546211719
Zr 8.834950766718148 6.9873533052635075 6.536309445505907
Zr 9.02079024770703 6.048598635525442 9.73819105855195
Zr 6.7403318669897665 5.508478962633747 4.264649154671044
Zr 6.5066830998125065 3.1386576048203647 5.788256241160895
Zr 8.845277866283864 10.138613860513864 7.033182295911671
Zr 6.5114367965635775 4.652297511708697 10.337053684801994
Zr 7.390897108130445 8.8439684465859 4.47392018297464
Zr 6.461644470235651 11.354646185137609 6.260329757027124
Zr 8.746617573655906 8.833903714427281 9.448812895716982
Zr 4.075276032391936 4.971588322386936 6.0944019181904645
Zr 6.5430265279711755 5.66048766880601 7.5144691906330845
Zr 4.433700310595337 9.839164684857549 4.922881675750519
Zr 6.38626790258924 10.51320435870899 9.254787363382068
Zr 6.0000571473949 8.51024894622501 7.197531734115381
Zr 5.1848483624590465 3.240324913776973 8.263158315718918
Zr 4.700175183287267 7.2717932095005775 4.419245677675759
Zr 6.321333744039411 7.563059822066592 10.37651763039701
Zr 3.939016530252667 10.678126109510835 7.533040058392799
Zr 4.011913524016245 5.879542107281243 9.071210798556267
Zr 3.06014643568322 7.785897004307047 6.843087389441018
Zr 3.9262006896128305 8.771948128941391 9.501638399832059
