21
Energy = -148.01166749 eV
Zr 6.494312988489708 7.331095016984875 4.046090160967853
Zr 4.19822158254613 7.831025285601249 8.811178459560201
Zr 5.611107234818992 5.1886922158048865 8.578491018315336
Zr 6.971930132447411 4.883357436384022 5.718534294362628
Zr 8.210267748109992 3.6501862522580475 8.204977441700468
Zr 10.01049407935399 4.941722190649341 6.235987293287142
Zr 10.480725167631094 5.302742795301724 9.114135550164814
Zr 7.934028505892134 5.401472211453871 10.57825110747818
Zr 8.105213965433807 6.454772351159577 7.854796036631773
Zr 9.060102324375064 7.4470382309944485 4.931665158187347
Zr 6.521755181261231 8.000223704009986 10.215160592054781
Zr 5.41592552870957 7.58855190819167 6.461214867212625
Zr 5.578894221587449 10.383360445046266 8.018613163984028
Zr 6.940225235676014 10.087662476351166 5.155704733261372
Zr 8.09139260016392 9.026401524852528 7.57784398394175
Zr 9.977872384399078 10.18326864775163 5.670196806004443
Zr 7.900880724770617 10.63364232612839 10.01345482966556
Zr 8.158440623758409 11.841218728387512 7.32033741485717
Zr 10.449143959930316 10.44970160413605 8.559258286112462
Zr 9.612847173701718 8.011974004849288 10.148447033185315
Zr 10.952268978301548 7.718809484980871 7.348356376991109
