24
Energy = -171.28487791 eV
Zr 6.818950987252965 8.318345969579612 3.9378401262538496
Zr 7.414326120661469 4.497838159799258 2.1053699412570763
Zr 6.543226457141507 10.229192128292762 6.184833755837774
Zr 9.206851808277143 8.676262257146217 5.7070955246103106
Zr 4.364421171548622 8.019029848862596 5.794921248789298
Zr 4.271382342171899 9.781633800032587 8.054348185751891
Zr 8.981118423678389 10.347931012090852 8.040040711340414
Zr 5.269355241513595 5.967054041578714 3.779117982977764
Zr 8.624450185614416 5.931833751981042 4.114341217202091
Zr 6.5935359066768 11.002061991287396 9.19552098674597
Zr 6.310944487910718 3.4896946375475815 4.478915561902001
Zr 6.918782534247175 6.4844129972846 6.292949230455116
Zr 4.474138765525993 4.920309612582501 6.458856076236855
Zr 6.844535833702795 8.158764831104378 8.407221102653915
Zr 10.081197510813473 7.871300926839006 8.395759802804394
Zr 9.921070580043516 5.75474268528897 6.653751731757439
Zr 9.11575674190862 3.187661319030266 4.182370373677925
Zr 5.154552031829653 9.009256968528211 10.672739719299836
Zr 4.0236368064350065 6.916711762081342 8.743755233852884
Zr 7.839225216830864 3.7424087395539285 6.88803287320268
Zr 5.878795520432072 4.647464192810043 8.897174657585696
Zr 8.316998467795814 8.739928944284866 10.67606794294623
Zr 8.617125666003417 5.634989854152991 9.425960911492115
Zr 6.215595850430473 6.475438299658645 10.874146651709358
