23
Energy = -165.85996232 eV
Zr 10.395126093735216 8.206502362538785 8.598114214356967
Zr 9.909695780199991 6.3133325717290365 6.39296492788827
Zr 9.486951820789509 9.364861114944874 6.008275424419271
Zr 9.407053023373408 5.798035569388132 9.269396839885003
Zr 8.628780119938234 4.365054627215633 4.821923775477104
Zr 8.811102787574097 10.367196626696591 8.988472124599417
Zr 8.116207449435539 3.8020034088315233 7.701442324534908
Zr 6.76691953604783 5.332143646601994 9.848231169898481
Zr 7.949674942007876 7.950855220428504 10.585675321708456
Zr 8.126193881616755 7.210765441756053 4.069056485240563
Zr 6.430011942148523 5.907440947157772 6.28375650408445
Zr 7.482987405558709 8.049329608827469 7.681915531616047
Zr 6.19830033038083 3.0330726924374436 5.623055539106015
Zr 6.978910431337959 11.032278803150085 7.030500785935502
Zr 4.805910334981492 4.257182275489902 8.025606789609927
Zr 5.983840822217915 9.932945794759181 9.493175334621514
Zr 4.8156222882761535 7.23456180192318 9.26015339401159
Zr 6.76880408640436 9.54283534260116 4.803697008833054
Zr 3.438001451201893 6.6978329384248045 6.863981582424237
Zr 6.2573784085034125 4.976487498595739 3.398588906789147
Zr 4.637690249502916 9.24917485745424 6.863279921653583
Zr 3.9473877169720906 4.709099351239531 5.12957746447883
Zr 4.9180773260045285 7.495319050215414 4.292951538153138
