21
Energy = -150.31925964 eV
Zr 8.552115640400958 3.817576210372887 7.516940104549739
Zr 8.093716188625805 4.100079619346855 4.43927537456855
Zr 10.431876198106249 5.404181508999666 5.6294136151598595
Zr 5.381640084028657 4.4238717775825025 5.884981044351259
Zr 8.039605804611043 5.807113435086036 9.797836841898842
Zr 10.184904509827668 6.3386817106509445 8.223158863203698
Zr 8.955209484129721 6.873822012787254 3.6292317645237175
Zr 5.937348036327897 4.484803460491176 8.797777081082726
Zr 6.186957883268293 6.1545143690304585 3.69724747254572
Zr 7.787427211538261 6.246453920039018 6.297355950424055
Zr 9.715637141645114 8.47009448879112 6.162249669547901
Zr 6.150286021092307 7.702924136388783 7.660592962281977
Zr 4.209636972365781 7.354576186684196 5.430622659241248
Zr 3.7263611300126183 5.818118509887161 7.965777780095867
Zr 6.912505338225397 8.861829417224643 4.60568064211481
Zr 8.658058640918904 8.682363040287994 9.138206396909212
Zr 5.311193613602328 7.032995787199799 10.269489998921326
Zr 7.671065915535926 10.335751469396834 7.0330252949644105
Zr 3.490011701552615 8.546702439527584 8.305964511806478
Zr 4.902349253898418 10.171741217528634 6.443914054495015
Zr 5.856410263931933 10.01322993053021 9.288567904690025
