25
Energy = -179.19089153 eV
Zr 4.328207289325163 3.918555111408453 6.442655688513219
Zr 4.439694398091608 4.068068792752254 9.37125422080445
Zr 3.3118254430096346 6.250491443925264 7.923827299130538
Zr 6.978502162353362 3.1426857901925844 7.82768717775805
Zr 6.785485486046927 4.74869367110305 4.723823740684278
Zr 4.303281600233847 6.484978626467252 5.104412824026591
Zr 4.97356426609434 9.36612290081663 4.641811965280771
Zr 6.240408625209559 5.698293672737823 7.663766386043204
Zr 5.189160707322372 7.09129395774182 10.17410375511904
Zr 6.113539371544458 7.2229746843438125 2.9665120844608674
Zr 6.840779485045327 4.482503827880799 10.555332669052897
Zr 4.974664841980377 8.660234491092945 7.515548527299791
Zr 7.863222585760789 7.731290917556571 8.11873466169856
Zr 7.0902250084679475 10.66052891966019 6.40238365567713
Zr 7.484902293501145 9.776072564368995 3.3544154426465953
Zr 9.292616723377558 5.104485846487737 9.12560488666956
Zr 7.343468840927918 7.754914974631769 5.531040383858865
Zr 7.986354350752607 6.971615412259842 11.023837536028239
Zr 9.015618368865145 5.194248859673642 6.272759304410511
Zr 7.160456785020372 9.685535743915725 9.66860649446621
Zr 9.136359171126399 7.14497722611347 3.650345676033852
Zr 9.627080697989431 10.119170153122091 7.698473411016622
Zr 9.676821735616421 9.842376227332746 4.938372781741925
Zr 10.125424364564378 8.171308102390732 9.66672169088722
Zr 10.604747455958629 7.599050424312287 6.512303387104846
