23
Energy = -159.59591302 eV
Zr 7.334415105361487 6.192314665108333 11.073088043689092
Zr 5.643257387576755 8.321208055345334 9.502737214156081
Zr 6.501604154200948 11.151277724156959 8.825754226768137
Zr 6.093577635396257 4.018619607159038 6.628798544184472
Zr 7.6594738181025 5.9787437335081695 5.037372481490957
Zr 7.982947747846622 9.173216640028228 7.0723687175705425
Zr 11.072733005655536 8.39509435559051 9.209129296822454
Zr 9.823896051167809 7.611583184613753 11.857558018541818
Zr 6.531958922980297 8.841382687045918 4.500695729421531
Zr 10.877241913265319 9.71390933988904 6.613729486029691
Zr 9.54804213874622 8.063384644360944 4.616694437358399
Zr 7.742834723976989 6.5052485038392165 8.047875494065961
Zr 6.711153501867957 11.639018543761207 5.934545204796923
Zr 3.376611178837763 4.794985617202116 6.573184287942065
Zr 7.982897096459884 3.9770270979978903 9.089789360844023
Zr 5.270063161333266 6.962867899773538 6.622310309853698
Zr 10.084374498841118 5.74576287402669 9.867264066063791
Zr 8.926855055362104 10.712312433905549 4.665166714706669
Zr 4.876288116434864 5.357150884751806 4.311232193802011
Zr 8.348263032855522 8.965354922682833 10.081166318299898
Zr 5.23887430729672 5.148021499062295 9.131524143563187
Zr 10.570961772155533 6.775807990017496 6.97525165167983
Zr 4.93621097159887 9.805599820654539 6.9938790487684255
