26
Energy = -188.01658962 eV
Zr 8.848524056066612 7.181033274927041 3.9973473401815505
Zr 11.52325972048409 5.813276417393255 8.161919744922516
Zr 11.128264742210831 7.359876135897724 5.781950253076605
Zr 10.97974896359739 8.843332428215527 8.41342913811705
Zr 9.27402206484526 9.607809478063214 5.836983756714522
Zr 8.616412343825699 10.913974984670418 8.2441304600517
Zr 7.045569574672351 9.59560649074576 3.9037894972397957
Zr 9.864977748168478 6.796621783459149 10.568448925909614
Zr 6.1788274001917465 10.509078862436443 6.662155833794868
Zr 9.211646739548934 9.723071582109373 10.635983926604352
Zr 6.645533300986864 7.564655374125467 6.107100113086036
Zr 8.946848626299253 6.887308379883303 7.709620701368252
Zr 6.3321459107655835 10.530079826343627 10.29572782589022
Zr 6.973510701177335 8.330151063385488 8.912376727522165
Zr 5.886692878026419 6.991044905793642 3.3379131024361945
Zr 9.568524097723431 4.67266556042892 6.022176682606209
Zr 4.826800933885608 7.8620494679332475 10.754763246681783
Zr 7.398405539122657 8.1579964704099 11.926979604495937
Zr 9.267528119875998 4.28121492535179 9.03664771081746
Zr 4.3728200580860195 8.925987498282794 4.836244868381832
Zr 6.981336613878369 4.860601577227901 4.648774417432613
Zr 4.6902441755408715 5.98937043603464 8.673356865707536
Zr 4.1367148804524945 8.621284295070332 7.740256143995928
Zr 4.32896429099965 6.002872682157675 5.794160183073848
Zr 7.016112349288564 5.626030927275303 10.446150031994113
Zr 6.8108916865823685 4.438606795201294 7.467114394260302
