25
Energy = -178.24919682 eV
Zr 8.760122859384134 7.369912700222508 3.938854726363577
Zr 6.185192195034139 6.986679478519212 4.694156192605238
Zr 10.00230100782716 9.591237207444866 4.92316722391578
Zr 10.999661323989523 6.701377103315412 5.767739827042927
Zr 5.342358348059294 5.51055159710147 6.673811110595373
Zr 6.929659612410996 9.621568862370689 5.143215830875254
Zr 8.212027707807374 5.008232101214786 5.746641899609447
Zr 8.535395025093852 10.95355617161674 7.1920797548609405
Zr 11.293736051249718 9.578239977388716 7.3012701128165824
Zr 4.376729029622451 8.33449678598178 6.702001372821249
Zr 8.758145234092495 7.683804010686966 6.9812152421594975
Zr 9.928021122027433 5.043169541383911 8.070323497063418
Zr 5.561265056477509 10.824594092712868 7.45205043921923
Zr 11.309451272388943 7.340524181700217 8.983813915937892
Zr 6.721246057808778 8.206828211701053 8.579335572489141
Zr 4.308475812864126 6.367933050324095 9.015576581602568
Zr 7.093863699793809 4.974930774664289 8.75232554401014
Zr 9.529123770156351 9.847727902995498 9.688566545622665
Zr 4.531954051007248 9.198453324928195 9.883216917308218
Zr 12.402171234216103 9.711157461924993 10.212056994777628
Zr 8.857741455830793 6.470394011061518 10.490830217911169
Zr 6.868640528337213 11.112718127060964 9.791691528310874
Zr 5.993935925909745 6.668063696366285 11.131341850398423
Zr 10.636770623407667 8.380502946735565 11.807831383209379
Zr 7.358365527629751 9.00970121300402 11.573240250899666
