28
Energy = -199.38072866 eV
Zr 9.716711896428949 11.687933359012634 10.254824391885808
Zr 11.077008326141772 9.700139620412793 11.49436484845593
Zr 11.99764016185723 10.770828625848898 8.932403319523646
Zr 7.082599910101334 11.444847113188649 9.362826789079362
Zr 7.995076138220051 9.489583927939439 11.422191675251119
Zr 9.508833347919584 11.437762555720328 7.30654567992632
Zr 4.723607326560174 10.908175443281847 8.076454834169812
Zr 9.769674632308487 7.085188369744687 11.479873583450516
Zr 5.194374724286891 9.052109138840981 10.054828441594072
Zr 9.858219420629677 8.764785287664386 8.92135281483728
Zr 11.528166785761053 9.458316071751891 6.509773196603064
Zr 6.597864049410225 10.850559488637485 5.87792669139153
Zr 7.110125379005813 6.793922598486773 10.238525230750577
Zr 7.109308217293442 8.92298399245274 7.896228594111508
Zr 4.458386463613912 8.638339194295956 6.639900103561963
Zr 8.706733005059522 4.543056367014134 11.33185777169884
Zr 6.345898472050097 8.140983247920483 4.3121117776765265
Zr 9.567439673254128 5.630674283022376 8.81832830975566
Zr 7.236231555787289 6.389092170024956 6.7349924635464165
Zr 10.465137151266036 6.673210622261337 6.370996160013532
Zr 8.995792840814428 9.198334599582893 5.299218510283616
Zr 4.730935681533133 6.064997581996525 8.462179250842205
Zr 4.381434007208441 6.115222752232024 5.499607205642504
Zr 7.117715244531014 4.107267455908465 8.909261551943878
Zr 8.907041043901026 6.51488082662836 4.145178101343858
Zr 6.58637483034088 5.020393938323162 4.109709029915297
Zr 5.657685238840978 3.8442930109317976 6.542404775151084
Zr 8.719357850981043 4.08990623328151 6.1137251588990935
