25
Energy = -174.46500496 eV
Zr 7.005134574811287 6.585705338742535 3.5563377321138216
Zr 4.405469672462787 6.753215014780689 4.788689093853609
Zr 5.928762156129417 9.20208272507776 4.221140895264506
Zr 9.14619279138595 8.430266141198047 4.80999521141328
Zr 10.750018521343284 10.007331323181935 6.628290025403648
Zr 6.275973246129247 4.511056870807788 5.289135930111999
Zr 5.083075036745377 11.710689770405816 5.797973875799166
Zr 9.136858325364367 5.538456335479695 5.415720149694378
Zr 11.499842844827525 7.3301418381640895 6.13604013507619
Zr 4.63360842386594 9.297984712882185 6.88319150321655
Zr 6.668152107884705 7.253825185159224 6.42705158044973
Zr 7.588403088202822 10.26451114172172 6.509882236754345
Zr 8.231039631525297 3.2740107313693283 7.014227064016063
Zr 9.432752186734568 7.879743289197062 8.015386435604915
Zr 7.371138559305506 5.576555762986634 8.71145616741651
Zr 6.461870641093986 8.547724790781345 9.36389220809651
Zr 8.714181036611489 10.672160418448513 9.123058089468605
Zr 10.383623171530054 4.80179509714441 8.01088943137933
Zr 8.518088886890915 3.4482527126205773 9.934267470630337
Zr 5.833646030767992 11.402107723726232 8.630952214399272
Zr 7.323098000850492 6.120169096387061 11.647313015624542
Zr 9.93069366194084 5.924234470674032 10.433462171337963
Zr 8.86678908110635 8.550868812079765 11.214587914034642
Zr 6.262889549755937 8.491272578254927 12.450306672289996
Zr 6.903541078405841 10.780680424400735 11.341595082222884
