20
Energy = -140.63182817 eV
Zr 10.004631222922269 6.222134955504254 7.4157617699459815
Zr 9.830803900807243 8.648396381995877 5.797444478640335
Zr 8.631585909219897 8.797972550288538 8.516660075007838
Zr 8.465542143002873 6.235532596417473 4.704733929936265
Zr 8.629605346404006 6.584683553888622 10.167417042631664
Zr 8.890673847274188 3.8857720840942713 9.041614483729319
Zr 8.459164598864692 3.86791291806778 6.135978111213971
Zr 7.9800462342081335 9.211744310933923 3.7071536898226514
Zr 7.125071640820658 5.868513237492689 7.780031127137352
Zr 6.381091193507995 4.774970646785064 10.380728561125384
Zr 8.082807687354757 10.867313773371398 6.173414834357193
Zr 6.838933887589863 8.20499887981507 6.221739519388293
Zr 6.275209785366952 3.077464761907877 7.863840143561925
Zr 5.800222164616901 10.742559187952972 4.560965335300335
Zr 5.693694299897929 7.708543806053836 9.43593189494752
Zr 4.3031859443987415 5.070249248802888 8.435178618121519
Zr 5.5331933882529425 5.0835577019220555 5.5378046809069765
Zr 4.706106132780157 8.15561896316767 4.436563614832427
Zr 4.811830895582411 9.91738692980444 7.057708180903953
Zr 3.870605693541048 7.260396705573518 6.97744416734295
