24
Energy = -167.45615114 eV
Zr 10.135397330498316 5.914769994539265 10.470051742275164
Zr 10.243014364551705 7.018048366837267 7.813671621212414
Zr 9.710158483501695 7.788798592197342 5.178589126269022
Zr 7.665931561085192 7.1090188816794315 10.84244003708548
Zr 10.159325846542888 4.040369872003382 8.20748062736278
Zr 9.232810418613445 4.98878402292716 5.690930508708024
Zr 9.534676733611361 8.8530534138434 9.891984553400341
Zr 7.63381555408599 4.766315501730318 9.248227734161087
Zr 7.065652828873616 7.143119439518593 6.943668604674747
Zr 7.595773980248033 6.5594477084513825 3.7296364242519697
Zr 8.918383702795314 9.72931828638095 7.1538449777580295
Zr 7.722321199145722 2.92053130795104 7.089651449110584
Zr 7.548828511986305 9.466861907963045 4.395117972103615
Zr 5.176501221500584 6.541080394920487 9.51239268039902
Zr 6.61728949104196 9.222261392352184 9.193727282672649
Zr 6.158486215883333 4.586233900300265 5.33039707459249
Zr 5.080916626213885 3.945869166767191 8.129979321380468
Zr 5.804379703059963 8.674683769344446 2.187126506329133
Zr 6.081445844042393 10.268830105762024 6.600998130360059
Zr 4.040532362084135 8.482579747001585 7.5157050938082355
Zr 5.064880073028941 7.665435390266638 4.715179419737767
Zr 2.675454366156301 5.870027493813544 8.652015665058732
Zr 4.749502408037015 10.419557782223837 4.000235972899333
Zr 3.831463664767618 5.766125073302732 6.319699140838302
