23
Energy = -162.72375176 eV
Zr 4.095155818995642 5.581560688557531 8.874585165546454
Zr 2.2118409533465684 4.353007284879479 6.214984138318361
Zr 9.153610773861482 4.846082482997113 4.642126131078388
Zr 6.3030182306641995 6.467830000887613 4.888753809489397
Zr 5.954414908435352 10.68057917500477 7.031976712591522
Zr 4.4786416831596805 3.928690539643072 4.328185337113121
Zr 9.584409489653092 7.148657799265927 6.45625860685136
Zr 6.867928806871529 5.0138008426737946 2.644318054302463
Zr 3.414249424700874 6.628977035793343 6.0669887724524365
Zr 4.5734977024358585 9.03589878770696 4.741396393473921
Zr 6.7879056133461075 6.034704278708096 7.408026172084277
Zr 4.6678186999679365 3.4545235748045693 7.087789823922898
Zr 7.051417978085313 3.2647663619514837 5.53638341823176
Zr 7.900490712701714 8.810134884832692 8.35352467770471
Zr 7.578487068054283 9.201856909972811 5.358299850339919
Zr 4.853988782216619 8.383423916052868 7.769458797888176
Zr 8.859231958979981 7.312157622724492 3.478606606865858
Zr 4.02359453982059 6.46535139343098 3.0901444931924016
Zr 6.320319236473025 6.940202734594988 10.122306773757986
Zr 6.802998212952327 3.978084209078871 9.21255733593906
Zr 9.2505694377136 4.267464767998327 7.385673983812044
Zr 8.949776899833692 6.222869617109337 9.353094909209043
Zr 6.3687295919498395 8.175999027840739 2.591232730098882
