25
Energy = -178.33096223 eV
Zr 6.538557892891872 8.151971624880531 4.276089266190113
Zr 10.822977619538017 9.175699448387629 6.076735315368261
Zr 8.754587210173742 9.779790725094946 4.146832465289416
Zr 6.389700139775423 5.600449722634125 5.682068663449177
Zr 9.110811535878938 6.928894877812745 5.0467442363525015
Zr 6.227190577511 10.959852269992215 5.573414862947202
Zr 9.02037425450534 4.642427114747007 6.982823966070496
Zr 4.696277462642942 8.151440171188874 6.467811885811464
Zr 9.23674261403256 11.653582170217085 6.198193730904226
Zr 7.836467596060536 9.10010859820864 6.903909986267602
Zr 10.358856408697351 7.007748000997982 8.074925989224624
Zr 5.190250664995787 10.37448849629652 8.320136145598559
Zr 4.420549355745474 5.608903444537423 8.034256279566604
Zr 9.990590147286916 9.998736092792777 8.756609326361987
Zr 6.565179755330551 3.8718380382124176 8.217576377616865
Zr 8.80526153142628 4.720701665523555 9.891853648416946
Zr 7.188988893589094 9.334011563426614 10.235498860719902
Zr 7.536364706356026 11.763790249783447 8.401432378871975
Zr 11.903169209615575 8.390036878747372 10.338251739609298
Zr 11.559655389951828 5.770485410705395 10.42858078470074
Zr 7.241517781087789 6.745397931916687 8.284655504983455
Zr 4.590975046416931 7.933259892129434 9.50844457599818
Zr 9.190335661469424 7.375288446492242 11.066160985526041
Zr 9.747163650344028 10.24047619774457 11.455198163324
Zr 6.066911768312921 5.710077841166054 10.621251734467235
