26
Energy = -187.06136047 eV
Zr 9.80715632995035 6.392367788602209 10.16677213635009
Zr 10.863301303612564 4.686828397494751 8.098432806489857
Zr 9.041283698438534 3.5239414530988626 9.98571328936283
Zr 10.27441141294613 7.63657814710154 7.393949097711457
Zr 7.078706896593021 5.506103547070696 10.847094812309528
Zr 7.618176277309579 8.213153555609223 9.136123723029632
Zr 7.979497266242313 5.609069204009847 8.024045825338174
Zr 8.678983377005446 2.9161551558771714 7.116352963569313
Zr 4.885264377647484 9.033249219633461 9.580309676042177
Zr 6.3443208101273125 3.341113337050174 8.833810187553675
Zr 9.902660614017083 5.155054734822117 5.477007308080087
Zr 7.692292662941358 7.581405222932329 5.834609183151286
Zr 4.948578850995736 5.91285535850875 8.926952106465988
Zr 10.100497431852807 7.808939418491287 4.270857727728547
Zr 8.638110841319618 10.16619158278414 5.531638005703822
Zr 6.546203984325786 10.578187158036558 7.613756584369378
Zr 5.286150652341698 7.900331790174412 6.905573306348985
Zr 6.243250060652665 4.76574801817133 5.811333615001876
Zr 7.919753010626842 5.8405795717513955 3.464170396264321
Zr 3.459909335320291 5.74673992574506 6.0894025060945225
Zr 2.6568060415766377 7.803732497055576 8.041909839720464
Zr 3.73863737650011 10.422101861239648 7.1939790194904125
Zr 7.6612208792669545 8.741563056727045 3.097100602830772
Zr 5.191928319851948 6.980302703828754 3.8747636168816952
Zr 5.627688900200411 10.016023969368257 4.765183765318372
Zr 2.9755938230975225 8.504061792330969 5.176746175853926
