25
Energy = -180.80258582 eV
Zr 6.522715422107867 6.046066612488774 10.30475049950282
Zr 8.112204216977798 8.536854691564782 9.692005379901042
Zr 5.20252510191886 8.575936234435348 9.015568169219632
Zr 3.6422589467724067 6.210895739540713 9.358925054235517
Zr 4.708834746661719 3.769226022047916 9.381209151060876
Zr 7.472155594300573 3.5478861395104824 9.049704002699073
Zr 6.787653595628032 10.639869203153383 8.051260883225345
Zr 9.130015323550074 5.713053794968054 8.684326328784556
Zr 10.656524033102407 7.958025496318515 8.229449094790871
Zr 9.495862598779043 10.529906465189923 7.920869837539736
Zr 6.005788562703842 5.8053055866358685 7.34344170955021
Zr 3.293066276110602 7.566314735557337 7.02633646889997
Zr 10.73240034460795 9.28606418185336 5.774832819141321
Zr 7.917521193755609 8.114048625514553 6.607003090911819
Zr 3.395448501330995 4.662994650750439 6.660640613761867
Zr 10.187561820092192 6.279636947254403 5.844896034740676
Zr 5.6830714303101955 2.6652731227397273 7.031566873546863
Zr 7.974574109890609 10.72017373626003 5.272084788560304
Zr 8.259608144059884 3.9741883788633885 6.1949736676785685
Zr 5.097188962241137 9.499948519988983 6.049335377234078
Zr 9.259778411082785 8.298356072323514 3.7837657409219725
Zr 4.6799601047925385 6.795656278105043 4.615171742983163
Zr 5.666467614707787 4.1184730702351455 4.73930849510463
Zr 6.568978643047776 8.68401926807643 3.70538045247673
Zr 7.627156500334429 5.970369902456302 4.069531385079718
