20
Energy = -140.13947248 eV
Zr 6.255423701371963 10.21748032468458 10.271935571176865
Zr 11.409884722834496 9.158152546418858 7.194389265446645
Zr 9.405372408723538 9.453984189254939 5.285054602754052
Zr 6.918230885548035 12.351464182951414 8.481859723371622
Zr 10.459397674270496 6.6137436231790945 10.997595021918135
Zr 9.910628866094472 4.880296168689793 8.6794679471895
Zr 8.827404589169381 11.330803360359502 10.612325440216024
Zr 8.87976506373081 7.755247171196981 8.60361565054168
Zr 5.4892929024586605 9.86527202075966 7.662144450621012
Zr 8.243865502248227 8.511082773873346 11.442233980202174
Zr 11.000621375093374 9.280119442024743 10.146304168585782
Zr 7.152868803101225 7.94463244316536 5.820913065827648
Zr 5.9152680209313 7.399317295411946 9.522517493203452
Zr 7.345574599146201 5.377656678711651 7.494191514685444
Zr 9.013460280366566 10.626008984121272 7.934537458095136
Zr 9.960662298230073 6.57487036527288 6.153302137131923
Zr 7.106323826427767 11.072702859868803 5.715611517226115
Zr 4.934196521150755 7.037529635364361 6.885789425323831
Zr 11.872728642374012 6.848415196885247 8.520674223706655
Zr 7.811839786484873 5.614031207561851 10.48834781253206
