20
Energy = -140.16039926 eV
Zr 8.512625511744364 7.530956779314182 4.588412408638197
Zr 10.226735340742621 5.979855973204104 6.094974717251112
Zr 4.264723657779243 5.397213531350752 5.9417988676131195
Zr 5.718416590193883 8.00908732577789 6.0650460449931725
Zr 7.334623557099746 5.428720998581665 5.9780161579896705
Zr 10.72924943615514 8.829801041423543 6.2819476655547515
Zr 8.095724890897158 10.027590937329466 5.200294184478768
Zr 9.203434492468647 11.13561416780651 7.483034438464615
Zr 3.1722777625174015 7.189198626319241 7.4861300163333775
Zr 6.441388663291459 10.783168956501626 7.334194867927268
Zr 5.777272904375437 5.978598131055836 8.422078844802893
Zr 8.237707170278536 8.003938745035981 7.898121656809508
Zr 8.993802797550641 4.449613493917668 8.027542751710909
Zr 10.686600437039912 9.613486185015784 9.138076895496791
Zr 7.7931742305944045 10.353661885014724 9.974618395928973
Zr 5.244762763659538 8.888217623490668 8.889384265326989
Zr 10.91996716849753 6.696456748799012 8.837198365093384
Zr 9.413966776729122 8.111971337087446 11.009785237083117
Zr 6.621225410236799 7.727325546065997 10.892043060500823
Zr 8.40399701925222 5.657198548011997 10.248977739106627
