23
Energy = -164.04300272 eV
Zr 9.404971205748339 8.70383828514795 9.664301643813511
Zr 7.014273692247694 6.895753782531398 10.270599776120005
Zr 9.548447323146625 5.88619580670781 8.855721581020596
Zr 6.885008088983343 9.908135056334823 9.428461693152634
Zr 8.780095974923528 10.326522385698098 6.997661772795253
Zr 10.827739845829633 7.974050292602547 7.258259777388043
Zr 7.694430166308405 7.8488128898842655 7.498720674296226
Zr 4.528709540279799 8.31881257685929 8.883025332379983
Zr 7.120753139602253 4.205301941339801 8.581287136968372
Zr 9.886335950962742 8.515616383757083 4.758293219124644
Zr 5.808829970407649 10.150323270077008 6.826759158501819
Zr 4.628355302063047 5.401810376891854 9.73814125738755
Zr 8.530085483548193 5.719710357308999 5.921142621408883
Zr 8.725431797542681 6.3219570304588935 3.2521261888575133
Zr 5.612061218883774 6.147303002921086 6.9805456970256
Zr 7.093660637685568 8.710785668098989 4.552968577128813
Zr 11.117123515085858 6.003173678590097 5.026854255110571
Zr 4.067316592250818 8.098181610096038 5.621478557934179
Zr 2.776139308589468 6.187690334375538 7.674542607687847
Zr 6.342697725770081 3.7758133746931253 5.440387869357377
Zr 4.330491155467805 3.5906972851656227 7.58952084133359
Zr 5.767818756753444 6.279495169737975 3.854978292594556
Zr 3.6218797835018286 5.0236827171502485 5.158361871416013
