27
Energy = -191.68828212 eV
Zr 8.333652563174091 3.468091980406934 4.258121137212042
Zr 9.934946030465559 5.741418432501664 4.362227970032944
Zr 6.811677489697151 2.70770838541365 6.622045392029773
Zr 5.49816802795621 3.94942035043432 4.460630302879356
Zr 7.520853542866236 5.509274932431297 6.032835536735654
Zr 9.485549864438905 4.554641577600696 7.967774688128813
Zr 7.118836708622707 6.074195655522841 3.1108790477250032
Zr 6.740945035774962 3.908312265881847 9.087785596387748
Zr 8.797072636095177 8.261007127433796 4.273117410275065
Zr 10.45271818421325 6.923567960218313 9.825681004580881
Zr 4.736576339947628 4.924943534990688 7.303296577802702
Zr 4.349324174975978 6.597853767904742 4.803836249096575
Zr 10.115743080618119 7.5874910819583565 6.79084645452745
Zr 7.9079216876175265 7.011527793452267 8.60531562533135
Zr 6.3822981695150105 8.107151982502488 6.376153636354088
Zr 6.154739672084399 8.980563741127119 3.6370149276107395
Zr 3.889306380537129 9.391980529572018 5.180978578451138
Zr 8.431283399932855 5.150355607741741 10.799348580697512
Zr 9.42558469634491 9.711374921647517 9.124854614325864
Zr 5.481090649024241 6.395102113289164 9.93637346725858
Zr 3.872862929099714 7.830344561377751 7.668516484962606
Zr 8.339977214684753 10.2242830367974 6.534842018959101
Zr 7.980906216360197 8.077671983491978 11.248468237468439
Zr 6.107476321276925 9.556306064524788 9.452044531046507
Zr 5.354227580287918 10.758597414346722 6.972489978219895
Zr 7.910326885762228 11.085838413973287 11.193435374727912
Zr 7.568521675797546 12.026769176908923 8.728265873794088
