21
Energy = -145.65147064 eV
Zr 4.437730119308369 10.42811374840611 4.7245829610718495
Zr 3.527866597814289 7.753189347494879 5.052538041538906
Zr 4.216018247431873 9.261285462191664 7.325710435311986
Zr 6.412187878200455 11.010829189231455 6.644293529533291
Zr 6.495865648012103 8.435447041493244 5.174688371650066
Zr 5.394351747133752 5.591504253893685 4.591053696553356
Zr 4.790012045948383 6.25138459491807 7.316478795039367
Zr 7.981404158241193 5.704971551423375 3.7697133671577014
Zr 4.542126451340745 7.394985685905766 10.018453953873586
Zr 6.737404522087417 8.770957907983028 8.712661647625856
Zr 7.956553684754593 6.6283900508019284 6.7657945016955
Zr 9.104026101132071 9.379213227258543 7.007052577089947
Zr 7.174581095494606 4.000071575569187 6.225570207134441
Zr 9.25593801692013 7.49025285731149 9.527323669602666
Zr 6.702340669177935 5.475971472325521 9.359627656399743
Zr 9.743817286267197 7.75470778882255 4.664563441862274
Zr 6.973280579550688 7.494164943202321 11.481033552685185
Zr 10.049031611086747 4.895749074275335 5.469090754419701
Zr 10.954892482517495 6.988120371789532 7.173164138487244
Zr 9.469686459358021 4.69877504319418 8.37998889688282
Zr 8.744583820240209 5.309185477804019 11.348645613121956
