24
Energy = -166.73190625 eV
Zr 8.263461447519306 9.353006664184504 4.395735505842267
Zr 5.811977222122038 9.79369781365397 5.882977514799336
Zr 10.893899269355707 9.254348590384993 5.829826012301727
Zr 9.554077332201977 6.819688790373349 5.0360063024337585
Zr 5.680839270066592 9.32103585182258 3.059178247126468
Zr 8.516504213509092 9.991017606841483 7.274874750109585
Zr 5.755169959005094 9.636747743514778 8.855995723847656
Zr 6.68953931322064 6.777477982452454 4.010527183141753
Zr 12.121312357369137 6.832089900908333 6.23095487938662
Zr 10.352339342598896 7.684505015786291 8.298548227438394
Zr 8.188114889667435 8.605707854127012 9.895004380292534
Zr 4.036020119403687 7.813209063742401 4.628392374432697
Zr 7.175842278211161 7.195359491684368 7.202104732386396
Zr 5.708905342825174 9.438356442195088 11.77421382960517
Zr 4.154458797263166 7.505482942735877 7.651483940442617
Zr 10.11745251798446 4.909034504320826 7.28250023047542
Zr 7.6922228687116 4.391407288661474 5.7995832383899595
Zr 3.5388441130001915 8.646054921944659 10.456042641016271
Zr 4.832815748943694 5.2459668409001345 5.656557993619987
Zr 8.541207059248196 5.649638657669605 9.570465018721277
Zr 5.900970559074829 6.959299764531453 10.193998894758398
Zr 5.330847028819148 4.785750516955651 8.38615497942163
Zr 7.870257298758651 3.1143507698181647 8.399468185556994
Zr 5.745948274366665 2.5323595934455794 6.755491388307017
