26
Energy = -187.15177491 eV
Zr 6.891123496799539 6.924749035697565 3.5227062534103126
Zr 7.238626057948395 5.921346354843616 9.881981455741462
Zr 9.662537104169202 6.021171642381574 4.22436602399832
Zr 9.957483921743377 5.897690346756015 9.060842345278282
Zr 8.51724890096453 8.854391800196996 4.7293301863215715
Zr 8.819069353043538 8.492923147692874 9.319857528981183
Zr 5.194044695838656 8.926473970150395 4.5126959701695615
Zr 6.372934808723282 8.379333630600442 7.2589027743750805
Zr 5.068554017709876 5.859063013873126 5.523693933739555
Zr 4.364709566163401 6.472016173558725 8.894147528959982
Zr 7.179488157978292 4.304693657954015 3.8011039884057816
Zr 8.566152015328122 3.356056746329654 8.241800452877566
Zr 7.916984416440073 5.7085978465983365 6.605194738618759
Zr 10.820221893683417 4.8145965831219355 6.723488325951001
Zr 10.366135660986583 7.698606721900865 6.729041882632093
Zr 9.02313625205411 10.27202375149556 7.1438766063398695
Zr 6.820186208640416 11.108222007972463 5.73880730679788
Zr 4.342267982741082 10.694747039234192 6.726651798337582
Zr 3.271984854743928 7.948685000973356 6.59214925728547
Zr 3.445998252829317 4.384345312719991 6.909942595105427
Zr 5.660046583435056 4.004751821720066 8.566048684189042
Zr 6.359492122324303 2.9259584354845187 6.127730619635597
Zr 9.175115196258053 3.1671954597267686 5.3003860542615024
Zr 6.6322060749440155 10.866291117398218 8.805605089215408
Zr 6.142607649800291 8.439209352303116 10.424847405704867
Zr 3.9867470516907084 9.36386663024654 9.062049948429381
