29
Energy = -210.07305459 eV
Zr 8.2022187373577 8.830052904730012 3.5771827871573647
Zr 10.45567222129588 8.819114988734874 5.4213370526713796
Zr 8.062695182626491 10.535914066406495 6.30835898046244
Zr 5.621820118575457 10.191199721357961 4.563966412350662
Zr 10.439021893431038 9.672692111306766 8.129313548652478
Zr 5.162745372299207 7.908255269868658 2.908194542783829
Zr 7.218994994359581 5.969548849145733 2.8918299493985886
Zr 9.619848003341282 6.123397531211552 4.57574545320143
Zr 9.769531527240805 7.7022549950175865 10.061433557878456
Zr 6.464104826843506 7.484821256671349 5.3221583450016965
Zr 10.97972536127104 6.54571365701667 7.489161528272741
Zr 8.49019105131325 7.833209117229276 7.400166858276
Zr 7.634343835633906 9.83842014634843 9.449973564115382
Zr 5.150361202014456 10.224943273670194 7.4435678257875075
Zr 4.955595115096011 9.151245282528576 10.333258615320425
Zr 9.922544860832378 3.983811279247627 6.57356179790443
Zr 7.264217395952388 5.212386805929238 6.971997033490001
Zr 3.5779148680534516 8.113164028235094 5.580426639738958
Zr 7.502662803493949 3.6386622149921033 4.6724307061237305
Zr 5.696733232036856 7.40118687430991 8.147361718114277
Zr 4.719401698289317 5.241452691651783 4.504564188343947
Zr 2.951319112298799 8.328690003491058 8.406745655147498
Zr 7.038418776752405 6.950538175182146 10.73133730323817
Zr 8.976549744006524 4.880333203078545 9.372047747476474
Zr 4.032401736389232 6.398319586490054 10.298004798620127
Zr 7.751267343758053 2.566615790657095 7.694884991203511
Zr 5.18241871142631 3.1506978888951114 6.6329245239947445
Zr 3.6023541101995673 5.470040580496087 7.406172195655226
Zr 5.819957325692503 4.274063458055818 9.41921400867079
