29
Energy = -209.96626231 eV
Zr 11.126904738120945 6.526877567481074 5.020401316082265
Zr 11.041912937899415 7.449959942464417 7.542174650061284
Zr 10.75069552197583 8.89794342943964 9.945471765008042
Zr 9.620809342060095 5.979578534025 9.867112507309908
Zr 9.780099608582224 4.673781833404825 7.009850455498786
Zr 9.447224449497897 4.59293325690602 3.998486527795969
Zr 8.825033231578029 8.262937013427816 11.677216476183009
Zr 9.385913537620818 7.333886755525209 2.9816083237799766
Zr 9.703984738537041 9.229601924316254 5.1596934064827735
Zr 10.064283898896733 10.328954273991867 7.654012717011636
Zr 7.09660639269445 5.795517487296118 3.0689548817522154
Zr 8.124215033472462 6.807159513452706 5.838866185821381
Zr 8.110890598410144 8.13294049900597 8.69291303593847
Zr 7.068717045562088 4.042710362925666 5.576470519805838
Zr 7.130369760713531 4.557177934687241 8.540745414944496
Zr 8.21148550901531 10.827915750403285 9.714654727269226
Zr 4.6409665267174685 4.298455915941079 6.844345854633968
Zr 7.257321264959635 10.280595884513948 6.545935912811196
Zr 5.580452057541262 7.1545989404433 7.652208844683272
Zr 6.392934509896514 9.288982344790135 11.231502268352566
Zr 6.858792332362953 8.68338133982259 3.9579708271249947
Zr 4.956584130019965 6.325338371702103 4.603504155013484
Zr 6.7401526246594745 6.2793488318039365 10.905542342705735
Zr 3.994655273110129 5.434546744316439 9.33978259056053
Zr 5.201137777601021 10.168537031535207 8.657950297566634
Zr 4.41273760724954 9.101305431779506 5.882036087118951
Zr 2.880896599651482 6.4400982955841455 6.511680605840458
Zr 2.8501622484565496 8.36217207961116 8.359411787662536
Zr 4.314605684828445 7.957256919133769 10.56144482724386
