28
Energy = -199.24616694 eV
Zr 9.03428426571273 5.426836195616991 7.808749518370842
Zr 11.08370534656739 10.508904202826416 6.315959132627984
Zr 9.35666693330238 12.669632683887436 10.24415193199274
Zr 11.671442392926275 6.275994890307071 8.899349480836984
Zr 8.161324971353107 9.738308460150602 13.791529970922165
Zr 6.658670003363416 7.414976114455146 6.9876097611866
Zr 11.314054657906404 10.968672058506739 9.224592223379435
Zr 11.438176101554205 6.648853952268637 6.138592995938819
Zr 7.832928832533129 12.13363429789354 12.442218534261544
Zr 6.513159755346981 11.864444360393218 9.787562344687393
Zr 6.989244879723115 6.278156290258225 9.594775129495758
Zr 8.80061355235129 11.732166920156311 7.696749489886197
Zr 7.186535053578799 7.3477793071507875 12.207780731139714
Zr 12.825993356437522 8.724631318517638 7.956405837731728
Zr 5.666258824429313 10.035719603219144 12.14970516425404
Zr 10.403964414308357 8.633946456606953 4.186021157634204
Zr 11.699199974222719 8.40283770269243 10.802271243532138
Zr 9.490510611946208 8.36565518962783 7.886192357154185
Zr 10.656013211799246 10.848904176416552 12.2374696606438
Zr 8.476277367623586 9.61271644852209 10.623319391275587
Zr 10.024699340983242 7.990786991509508 12.936430485333828
Zr 13.018957235033355 8.840978595772393 5.08261803812777
Zr 8.07005868195121 9.69710430130303 5.44886530460294
Zr 9.597140504106221 6.227082619638181 10.754345209045937
Zr 5.5790598506116895 8.68549971575551 9.685603158478255
Zr 5.703360641629967 11.491542773285765 14.429383011268527
Zr 6.353988123178613 10.248838371563096 7.527043772362807
Zr 8.672103137023186 6.765056023030365 5.190155594315438
