23
Energy = -160.81371067 eV
Zr 10.9458048569471 5.663124154940554 13.302705087730198
Zr 8.088755166064411 5.627031476200032 13.332074562158255
Zr 9.881093551061054 12.550719776758683 8.035858009049166
Zr 6.196997876348837 11.169995970242521 12.596459042690363
Zr 7.839506582272385 12.2451369672823 10.478902536784343
Zr 9.933453364951458 10.365379889168162 9.809783043234841
Zr 7.080195213453885 6.239094815062637 10.413849424597784
Zr 8.063147556303315 7.992834389097281 8.038392084206384
Zr 7.526082476294887 10.842260139231927 7.954594244987981
Zr 9.40884779010718 4.400749891773119 11.250444752337714
Zr 9.500098036158006 7.4928217453062675 11.291512841390556
Zr 11.885442843589184 5.453173510899181 10.445917145142635
Zr 8.82442930976878 10.351612689384643 12.597361038514412
Zr 9.938204840362472 9.992174041249763 6.523354559012658
Zr 6.93656345696125 8.173831102867712 13.063576716156298
Zr 10.136095029038016 7.095593828119459 6.26403952685663
Zr 11.509873566552088 8.135023450383668 8.863980854874661
Zr 6.862736546299254 9.375182934556646 10.414363554097712
Zr 12.35837298252317 5.86052486443218 7.492922701848616
Zr 12.230301343535267 10.983737094922974 7.957119550988926
Zr 9.61074846508065 5.4639146379403325 8.629910485980286
Zr 9.499003974658503 7.88116279212764 14.306241204943495
Zr 12.581700771707345 8.640560210967774 6.289735539482988
