27
Energy = -192.95122516 eV
Zr 10.56592450565433 7.403364080212536 8.869203395167613
Zr 9.73501759947851 4.852109670740899 9.85465510835574
Zr 10.481954865920073 10.298618467893837 8.502863029794508
Zr 8.595547065167407 3.166450997589952 8.053375278085156
Zr 7.763695614358073 9.172638858210112 8.319015719630627
Zr 10.592819624799121 5.151073927544772 6.944218784512782
Zr 10.16793082806186 8.41408479181678 6.247553396483482
Zr 8.301796720512302 7.1967384514834745 10.580036948699245
Zr 9.115668148897866 11.174116297633537 6.410114151527677
Zr 8.51590576013424 6.707971037003137 4.54644956396601
Zr 8.434332633416911 3.9652944049728265 5.428026003649076
Zr 5.622622528550253 7.4896777032007416 9.891689030955526
Zr 6.671800947387759 4.632536234594435 9.889361505333689
Zr 5.946258723590854 3.542484579952246 7.05069125028586
Zr 7.962993668111594 6.1580070442897945 7.711092034517659
Zr 3.9848363969493046 5.303400012327618 8.556741874091193
Zr 2.88202672261579 7.829015293397194 9.092785944001397
Zr 4.669846559607732 9.37447171671585 7.661560477723925
Zr 9.093006950863314 9.581718502762973 3.782032019971996
Zr 6.025980808870335 4.770796678576924 4.149006076996068
Zr 6.168525619730477 7.725979212001451 3.2987311790377913
Zr 6.969213764716212 9.42080344537149 5.522570997334561
Zr 3.531558272674875 4.509344414655271 5.785926382014808
Zr 5.417720225952767 6.828249908188629 6.2531634435370895
Zr 2.449298707330579 7.237150683961165 6.36021580538479
Zr 3.6386468187832923 6.514599848193466 3.80021345708464
Zr 4.096502513367318 9.182939597666941 4.82115707114276
