26
Energy = -186.94793479 eV
Zr 10.75266863965955 7.87789369900888 6.8245109664964865
Zr 10.293091278711422 3.7691845454988058 7.168392848174767
Zr 10.47577356184207 5.994363188861112 9.110892660695608
Zr 8.980177202745294 3.6259535604926723 4.537054591448375
Zr 10.302350055131592 8.780962022446033 9.692236259658301
Zr 9.33875178045514 10.393913898554965 7.670635902040758
Zr 8.518087435986713 9.147416779992307 5.236063789344854
Zr 8.529569176469169 5.704762608747513 6.314405985415873
Zr 7.629082609121569 6.81744270692433 3.7675765783419006
Zr 7.545106943776944 2.863748593080797 6.865206941114568
Zr 7.936326658765842 4.583317624594115 9.235627468055656
Zr 8.055357529139313 7.741473101062926 8.08949562138726
Zr 8.458474615013257 6.965413807575422 10.957685040973882
Zr 6.133271161066653 4.260763145598416 4.711933253041125
Zr 7.360371403177535 9.638763057569676 9.97417862003238
Zr 6.567206808219721 10.547265684350839 6.97838479744469
Zr 4.89377522088048 6.520570017966399 3.3148448886184947
Zr 5.654559348793299 9.336955019086615 4.180600677935905
Zr 5.3028572150165765 4.57908814061868 7.77888169620756
Zr 5.653589693334207 7.324843520636505 6.247280232420351
Zr 5.691620604642397 6.7058066875138165 9.839266027507673
Zr 3.5280496546677425 5.171271598044062 5.577642672282138
Zr 4.777098510210542 9.22175540055688 8.96462193062498
Zr 3.787403006866305 9.799804107835689 6.546869828414091
Zr 3.0029461889575133 7.870193494102974 4.8617941587582445
Zr 3.191586747053757 7.0205401209883735 7.823033499038827
