23
Energy = -162.42949028 eV
Zr 3.471634184176937 7.822961951111184 7.143679618023421
Zr 7.590015979673371 8.67651841049458 4.247977435541403
Zr 5.326517272695105 6.90830392785161 4.959046042247335
Zr 4.093680440923331 4.989690651333733 6.93997119735629
Zr 5.62594813097118 9.620062201271962 6.389546575295351
Zr 9.49235453333886 4.135184232135814 4.631941621295201
Zr 3.68898053513785 6.22615007409531 9.52995641493616
Zr 7.802702847026553 5.878725491763552 3.41672423107625
Zr 8.016636921710072 11.644565026082477 6.195122880187316
Zr 6.170394104205504 6.947564482256236 7.959783912046983
Zr 6.960698549993205 10.905845827185388 8.688199597498926
Zr 9.766745808040602 10.855440499967775 8.606133578796639
Zr 4.932441576030552 9.00649308757249 9.534267946166802
Zr 10.50385627535688 6.895869857178224 4.824982902325239
Zr 8.376720975970647 6.448439055554129 6.202026617923276
Zr 6.955916167687702 4.263015111514918 6.495778455844854
Zr 5.779087884683131 4.231011107777682 9.242696923157345
Zr 6.201292611740064 6.5912379159730135 10.891333069927914
Zr 8.907266700144039 9.226220133189678 6.727939795748435
Zr 8.15709200307202 8.476214928389792 9.865602698496525
Zr 8.532655837951676 5.465838345077448 9.366078530363149
Zr 10.481778907673121 4.659365992263325 7.102247759290555
Zr 10.497347647056209 7.360262717516803 8.226549845728927
