20
Energy = -142.60468936 eV
Zr 8.499116586020802 4.69660127515136 9.083814706314483
Zr 9.528060852145378 6.1025847638921515 4.339476082112178
Zr 7.794317140730708 7.593692414879712 6.0841048792520755
Zr 8.185927089969573 7.70517360151565 9.796840639462253
Zr 5.297397387698735 8.484529580724411 5.081550589568297
Zr 6.65617485074208 5.97479894590357 3.8580796091054315
Zr 10.2646727890433 8.794852308617017 5.227776176559086
Zr 7.983352038792619 8.466328655871706 3.3476763665864713
Zr 4.749010624357722 5.426930134675483 5.944687714462851
Zr 7.762383176666367 10.418239435542509 5.517660670472193
Zr 5.913933762145724 3.6236054981114547 8.271000440629019
Zr 3.818818867548155 7.95614709984404 7.492002510314673
Zr 6.221906059654034 5.350541095129374 10.701413014790495
Zr 10.028451928857368 6.498591657508274 7.438866666749828
Zr 6.266576627735735 9.670092512499458 7.997132899087182
Zr 3.7866926771630878 5.513223888631956 8.99805010890038
Zr 9.283069701427918 9.493088318091559 7.82937273091333
Zr 5.0433544915877935 7.977475221616686 10.1311866478789
Zr 7.869241924720484 4.388566628703019 6.13845462316152
Zr 6.334916755091347 6.466340907522523 8.050420394848038
