27
Energy = -193.68726269 eV
Zr 8.78386381296661 11.155521861424198 8.221540010142467
Zr 8.923983743581152 10.849906610393166 5.367747662547194
Zr 9.559776616782255 9.009562318746474 10.018902216314302
Zr 10.961930898831392 9.333285851566187 7.047091384611101
Zr 6.195892244266436 10.923285400260415 6.859154166317461
Zr 3.72731679639358 8.147164775967388 3.8501345480161846
Zr 6.784770579867351 8.930101473717823 4.298583187522686
Zr 6.627886500647945 9.458332714669469 9.57090660081292
Zr 8.245211744720493 8.552218460556587 6.976637913820642
Zr 9.724641168803588 8.245537759157495 4.462507404319177
Zr 3.598644507518379 10.008122183445778 5.649527466920217
Zr 3.977173335982334 9.45394742280857 8.389812350776756
Zr 11.570239799728727 7.282906473687275 8.84475007081874
Zr 5.517434543133715 7.854270600626965 6.436011854159726
Zr 10.272830800614056 6.381071042323685 11.12958835470722
Zr 10.5986445305285 6.159155616047902 6.353321602365308
Zr 10.971998566152296 4.602276876142092 8.8985382543408
Zr 8.336799528783816 6.285719552296695 8.633394338194066
Zr 3.0239059738824645 7.070265024155576 6.556415061608537
Zr 5.024235570518983 5.8897970458978675 4.249719311681756
Zr 5.052684301345471 6.794836572301812 9.26723189775574
Zr 7.344080908295257 6.830185910173839 11.258852108519974
Zr 7.893893635380112 5.901530314440996 5.162977562384431
Zr 8.54652364924963 3.691124514322344 7.4972349382610535
Zr 8.797951732862517 4.0741960465438325 10.599140061277511
Zr 5.762651325584588 4.971678460664876 7.001152754650027
Zr 6.315933723981848 4.258782555571143 9.706588494948463
