27
Energy = -188.40955431 eV
Zr 3.302237635088422 8.547327410469318 10.760351979589707
Zr 5.447935094462892 9.820777026711887 9.396450750035777
Zr 7.806860225610433 10.553859583929075 7.556593671684228
Zr 10.413370704971717 10.913586481214656 8.52549302568435
Zr 6.020913650927491 7.831776351684757 11.443519582427998
Zr 8.395247012158809 8.910297690142391 10.026327510121243
Zr 8.758703461809276 6.667623080053343 11.989298365590086
Zr 3.147758300950679 8.462877378212413 8.019303162359538
Zr 10.126383369664023 10.460571407934054 5.5618606469775225
Zr 5.029048384335822 9.769754106087769 6.448466458263804
Zr 9.905715329854708 8.331697687078957 7.587175634894305
Zr 4.401046213517119 6.229387127995921 9.445383037061886
Zr 6.804228770724605 7.4567723023654064 7.688299915034652
Zr 9.94081076127635 6.187717270500393 9.632640536760876
Zr 7.567799095724885 9.261986790616586 5.023836928953266
Zr 6.9812700600922515 5.311853412968022 10.23723118216557
Zr 9.687009623169335 9.15508458800001 2.9294312294026277
Zr 4.205234707439772 6.347573029347582 6.461060135696659
Zr 9.992175054322281 7.323369792489557 4.94863456956046
Zr 5.197463863131965 7.864823836454129 4.268066208607274
Zr 6.015921252989729 4.250986277909631 7.5624386224749065
Zr 9.236603080502023 5.343458346817073 6.89549166043077
Zr 8.537584282534555 3.5137424301264923 8.886339739082418
Zr 6.733664950978257 5.477981715480462 4.9680532359493235
Zr 7.734617688611402 7.171444622686569 2.811553076167025
Zr 8.07660955446018 2.954488906399267 5.946966663251134
Zr 9.297398208841432 4.750719291692072 3.895264872634731
