27
Energy = -195.17216014 eV
Zr 2.725917266075141 6.738917454911111 4.68311504192944
Zr 4.738236014435429 5.786002725199317 3.2839116309847514
Zr 4.030942448000799 4.262128706873592 5.76737314546379
Zr 2.567922759007636 6.360476337038102 7.401520710055038
Zr 3.1333526305574058 8.921302285347078 6.340110088789306
Zr 4.904219059361917 8.774689898094934 3.9408073977313443
Zr 6.9433832237651645 4.396911034919693 4.534170289683654
Zr 5.576271454324749 6.814888631249527 6.170537276722673
Zr 4.5908623626003076 5.131118507315642 8.797688468547994
Zr 7.0961894412122355 7.019952090321009 3.1951936159236007
Zr 4.291377780314556 8.336217231185676 8.799389882076007
Zr 6.334873237480371 3.5464681205916375 7.220894136729585
Zr 5.7100984077906904 10.007367662734683 6.706423009512837
Zr 7.916695977247492 9.141806563959472 4.740686960191059
Zr 9.313428044677483 6.393425419535764 4.704702897973825
Zr 9.017879060217343 4.113279381367018 6.677499944680545
Zr 6.095231127062783 6.863901941139201 10.347670749852673
Zr 7.537193161618926 4.57727554135562 9.492044508602259
Zr 8.395283084222172 10.474144049601737 7.100137638035212
Zr 8.40378828116288 7.182630625784669 7.7118957266940384
Zr 6.9787380857861825 9.468228785307604 9.484015121943436
Zr 11.187467547895016 5.854932517013807 6.744360650246339
Zr 10.6043076617481 8.754812565518455 6.317543940157531
Zr 10.248178672124363 4.94492173114475 9.250146120960482
Zr 8.867717476547279 7.235329253204209 10.688519182856655
Zr 9.847647175554012 9.61782138021422 9.158900539814299
Zr 11.337086098644154 7.457429194556997 8.999599139800887
