26
Energy = -186.96360667 eV
Zr 7.567667927365985 10.263859756394679 5.18350938312029
Zr 6.924029822365906 10.74284601000309 8.209527125770752
Zr 11.420930784121891 8.616699535660905 9.498333171067955
Zr 9.953885671468877 10.495104419295124 7.410637394982515
Zr 9.591672098462066 8.3348366828177 5.67308726628293
Zr 5.418516299776757 8.717723404761216 3.936218766191225
Zr 12.070663727331269 8.324288702479537 6.685980973689116
Zr 4.947368928426402 10.475225494129013 6.155011295662471
Zr 9.449557321024786 8.616189626399802 11.78118873898465
Zr 9.167834204452124 10.664451604279794 10.024666247192778
Zr 6.623952941605288 9.160778378361261 10.760628160778719
Zr 10.964248571042264 6.138079968379557 4.849530504243447
Zr 7.834311842136105 7.281828858625393 3.958226301255531
Zr 6.36683145160934 7.730342649651754 6.722774639487789
Zr 5.164181781400367 5.872941916027779 4.8210211801205665
Zr 10.876147082887488 5.891960038225378 7.8435644654524115
Zr 8.447361529624954 5.283169334872328 6.112870656362966
Zr 4.368851681964635 8.989338024704706 8.610812145843996
Zr 3.3914497689477927 8.148831780508242 5.773934304676455
Zr 6.005833792317238 4.586782829439197 7.358208525546975
Zr 8.601678196257593 7.8878313510728315 8.8615252685558
Zr 10.39439712634372 6.175922996488679 10.682349414558058
Zr 8.250806387831059 4.8565022086344145 9.094148350946277
Zr 3.7922036514346176 6.190805355579029 7.53636158020442
Zr 5.534225516490965 6.455394466609932 9.742288778262925
Zr 7.695702942919469 6.445076454232776 11.477872596368792
