27
Energy = -194.72653639 eV
Zr 11.226191332766625 7.671390256868494 3.7186055392318447
Zr 10.986677040254321 8.748851070562472 6.590972947295375
Zr 11.243589845953913 5.707514819413114 5.851830977661957
Zr 9.447280757974248 9.95929099043463 4.0768672299577755
Zr 8.561699597775302 7.7174298425176 2.419463759543086
Zr 9.587330293024097 5.197023615344711 3.4705360385589783
Zr 8.001848095991587 10.321811152575759 6.57812522468223
Zr 8.885615445477377 7.387368298787727 5.339102788016849
Zr 9.806551348800554 6.25201456873399 8.281652136154955
Zr 9.113555947309031 8.995793662279684 8.824405467598659
Zr 8.500102250121058 4.497863081196614 6.12995240134735
Zr 6.533979977866682 9.015471692283437 4.2671835162067655
Zr 7.012284699008269 7.459747425160145 7.150919065403416
Zr 6.680475602340443 5.94766225949074 3.9941625071605484
Zr 7.547576408293971 7.143729257876306 10.437744863897919
Zr 6.126624915580467 9.547876637823414 9.245795805150392
Zr 7.312311168041516 4.424325962901942 8.969531164460292
Zr 4.998474672992431 9.735925475294074 6.639126559025668
Zr 5.43598334610835 4.466074322782087 6.389898039205426
Zr 5.1604991523237755 6.418716936080488 8.675222155223436
Zr 5.4821355250859725 5.088113987604601 11.280720587274775
Zr 4.674431331772175 7.902544522148971 11.14578475663279
Zr 4.212049412375402 7.159030250628643 5.595806157819342
Zr 3.133308132859806 8.34122501903926 8.417514587444773
Zr 4.370278046059003 3.5981143431235276 9.016660529419168
Zr 2.749131555591097 5.4052010662709895 7.34486696990937
Zr 2.819275074861477 5.850936391195355 10.209854422036676
