21
Energy = -150.4081758 eV
Zr 8.370534231348094 3.8790442770777043 7.907701194981662
Zr 9.39141355064566 5.745178338390031 9.642875987675438
Zr 6.429465840367069 5.493092102435611 9.603750569442335
Zr 5.802373924712501 4.841948913009753 6.591132304381743
Zr 3.8685222870073113 6.356262692782106 8.126455627621528
Zr 8.500775536926364 4.27310965686536 5.181157243234727
Zr 4.8552814987401725 7.93346984282596 10.404958742034651
Zr 10.824458908835904 5.631751290612461 6.913929563522686
Zr 7.926577976324139 8.261115956749494 10.260526598573898
Zr 8.3198470366148 6.7350128551898285 6.8811476780556315
Zr 10.483388529971645 8.644008861040653 5.971977579601672
Zr 9.596659412679134 6.746282112364578 4.171085190485401
Zr 6.802589236930281 6.2990539654300335 4.172402567726041
Zr 3.652732964002956 9.215132253264224 7.978620351011178
Zr 10.452586893925222 8.141579164899904 8.676478407064904
Zr 5.984302409388596 10.486227311903713 9.364037840595401
Zr 7.6783265359941675 9.068696750602658 4.873055399503864
Zr 6.246110315023537 8.02552279486024 7.883529829598629
Zr 4.717459179033547 7.733626406816197 5.477152024136265
Zr 8.487097484277482 10.142711124386068 7.711622833317474
Zr 5.709191838958531 10.51383909693764 6.439465610663344
