28
Energy = -198.90294028 eV
Zr 7.699951745687643 10.35507132305949 11.218913790375632
Zr 6.965689780939833 7.988472147576657 11.998384070018087
Zr 6.032085901782366 8.923586871357541 9.161393882801606
Zr 8.970523432946559 8.08879703009295 9.740899585352825
Zr 8.239755316908173 10.897266963231745 8.438686716946481
Zr 4.453472015833141 6.969192140992101 11.12956278648167
Zr 3.8127953547909774 7.055640140743558 8.551708087606997
Zr 4.686507712870255 8.547700468379132 6.280098507307091
Zr 6.723994143776867 10.87038096078764 5.91127176724997
Zr 8.361373848763137 8.411572951565644 6.644868714735081
Zr 9.726061801322262 11.02184223407438 5.887253775016454
Zr 6.870711949897267 5.808345605430907 10.143580356006956
Zr 6.56018899226734 6.1341803097542975 7.0680074744941335
Zr 4.74491685781614 4.378171248566073 8.945104137674614
Zr 3.6896458614167993 5.359874609460538 6.255898360609247
Zr 6.173442494534549 8.915318641356693 3.943577336295645
Zr 9.353819844561912 5.24435981473903 8.8612864007586
Zr 8.693324776821582 9.727864534424818 3.790131375005984
Zr 10.86809450837541 9.680080789679945 7.969921541672907
Zr 5.125764673116933 2.8118712243155843 6.60281685497381
Zr 5.255411650944413 6.348901403650651 4.047494300853206
Zr 8.263319553485378 6.815993800850947 3.8286921845007633
Zr 7.681263697801916 3.46605056344348 7.623944722219045
Zr 10.802884284446208 8.10111931622056 5.118614465751627
Zr 11.082699160837247 6.981811819283327 7.814041752533665
Zr 4.274779525963289 3.4261005993487057 4.130795914852272
Zr 7.021471015380013 4.1443487855702585 4.789108336797134
Zr 9.644951440397323 5.31330367245281 5.960100462455207
