27
Energy = -195.96070757 eV
Zr 9.8935299447267 9.063347596704041 10.14055401582725
Zr 8.264105909574893 10.7596384130949 8.187211324688501
Zr 8.812393444473084 6.424342989610044 10.641153624401563
Zr 5.140350944772121 10.16459308857726 8.01326707880584
Zr 11.129519190943672 9.859658012324399 7.818682697966459
Zr 7.003744871368227 8.989955630542477 10.227823663840427
Zr 11.465014297149434 6.873530519294306 8.686887034903775
Zr 6.915263839444564 4.1197858148133975 10.379441237128527
Zr 9.186388051446684 4.463009565341529 8.492433083648166
Zr 9.122435626567508 7.641667409060837 7.600751988525356
Zr 9.36355742287103 10.112271246938453 5.395153300637828
Zr 6.655736248733949 11.39032908056213 5.747745876771998
Zr 6.5714864332882765 6.324406695832412 8.349358805468936
Zr 5.847340067961898 6.494319260250424 11.283756270433269
Zr 7.024783044439554 9.49092962185617 3.598114160182586
Zr 4.490858308612371 9.583115225032769 5.048495578584879
Zr 4.213961498045254 7.9664838245752385 9.614853451156776
Zr 11.479453295389803 7.982857898114917 5.762899878402366
Zr 10.531624690014585 5.423207465612993 6.141674266193794
Zr 6.430968560440327 3.340561512128866 7.7744954555252335
Zr 5.749667726730787 6.875639529680286 4.2565132623627235
Zr 4.206153259384501 5.006657969852372 9.109371959607218
Zr 6.821701480972141 8.501306438447894 6.361404882531778
Zr 3.77581726648932 7.460113451090186 6.82414734901062
Zr 8.944467504332966 7.289760115026622 4.293739675112849
Zr 7.755847257456048 4.898678190271706 5.59927768082023
Zr 4.841040263413457 4.894654739459863 6.144363578560587
