20
Energy = -136.78636023 eV
Zr 10.703074065092446 6.948018759110887 8.607537916832463
Zr 5.2865418840685985 6.903831686360496 9.324684125283635
Zr 4.250687159851051 10.416216590406892 6.122593096434977
Zr 5.034670797923535 4.908133496270325 7.291642349713754
Zr 7.283903146083548 5.563744054013648 5.268440579212036
Zr 8.824343123394568 11.000346870291253 6.633452944300726
Zr 10.650759213780779 9.829107820489908 8.3329023648865
Zr 7.960706654712514 8.587387652160476 9.013575293084244
Zr 11.328074639814846 6.110260125319841 11.310845419343527
Zr 7.699770073450477 5.6175547622364785 8.16474061842614
Zr 6.816415718951239 9.9100268987814 5.147582942103549
Zr 8.423566439549528 11.534831499850293 9.340104086766681
Zr 9.906517436468036 5.076604364769709 6.448891176540856
Zr 5.7230292177335915 7.608966794671552 6.58516264426262
Zr 10.119515885266479 8.834670975397994 10.955048878867215
Zr 5.9793767733760825 10.189431225088656 8.235255383279402
Zr 6.2947102798087755 12.396235272714188 6.613409811663171
Zr 9.021361463614644 7.919390226952399 6.237889712328813
Zr 10.096042649611155 4.277870846640493 9.483559629395009
Zr 8.591000851848873 6.361437552873889 10.876748501675598
