22
Energy = -151.18070924 eV
Zr 9.095934303776787 4.828459904809146 9.492117636134042
Zr 9.324374331415521 3.017757659223074 7.227076658497498
Zr 10.120172204822307 7.501910034230806 9.082861550390541
Zr 6.4053881239614645 5.274153701470442 10.433938985723186
Zr 6.7658530272257345 4.051620769773544 7.754551404222752
Zr 9.716760717078063 5.724395065057318 6.720615490372792
Zr 7.257618115914507 7.376576857006885 8.59710728300517
Zr 9.011293265375103 10.139508483596435 8.735669440823003
Zr 4.843384872306514 7.586210740614465 10.383658542754638
Zr 7.888866722155459 4.158773418412329 4.965798300515763
Zr 4.47539878648842 5.729462003463743 8.108924395756107
Zr 6.542580211842584 6.9865972230345905 5.9157550454661125
Zr 9.185846860799677 11.257016503985959 6.052194618374287
Zr 9.667261086756076 8.530464527828723 6.3160455012333845
Zr 6.33388835352203 9.870982878837467 9.789259011015954
Zr 5.064118699481319 4.526488142650543 5.3674895556113915
Zr 8.776619098009666 6.763659979161144 4.079588734083169
Zr 4.429820706536075 8.736944698734243 7.687764487560812
Zr 3.564754478321992 6.885464604911768 5.537376313658731
Zr 6.662846442432182 10.322514321923688 6.867585897884737
Zr 4.987120128942782 9.144810751090883 4.710252754895616
Zr 7.795511537584305 9.486635955437364 4.208093419629154
