22
Energy = -158.11739863 eV
Zr 7.169190939818818 7.659010590261788 3.2385003650044206
Zr 4.539912771340082 7.569584653900483 4.082869168377133
Zr 6.254349129631665 5.130646318589389 4.600227833104262
Zr 9.114162187658984 6.123464663437794 4.963111435603567
Zr 6.104412943810838 10.194675577545247 4.691789596246628
Zr 9.027551279794181 9.124701239101858 4.656600824421806
Zr 4.086919443589558 5.954172862335993 6.589643388900081
Zr 6.658454905837453 8.015839092617993 6.220783733534904
Zr 3.7703112165186985 8.953748776849137 6.347184415213391
Zr 8.267836008811935 3.473905606110706 6.134980141426452
Zr 5.640216333646413 3.387154268111761 6.982831154123369
Zr 7.798180513605573 3.7025091137940565 9.208719374874281
Zr 4.874854353410791 4.76993040560217 9.247728071470753
Zr 10.130143296232538 4.944994519851715 7.554591517311439
Zr 8.260939219873219 10.5088294751092 6.916657620465715
Zr 9.811275101070802 7.944348143112894 7.316649284783702
Zr 5.631516092150106 10.425807910061621 7.765587690977469
Zr 4.78201329128813 7.772241285192301 8.93656998182263
Zr 7.2389163415193964 5.881194990806214 7.681136731423433
Zr 7.646104455490864 8.768504916928178 9.300165212475184
Zr 6.730622947188902 6.2406238337358575 10.663551874863296
Zr 9.356585508213211 6.328855816934228 9.820256917827917
