29
Energy = -210.28611202 eV
Zr 9.469273157531704 7.464112855173698 3.698152924304613
Zr 7.4805293266997035 7.054010272908332 1.9435304301095524
Zr 7.101464469507128 9.566054645970981 3.6475352253316156
Zr 10.965364705778995 7.842439354847454 7.6856004084758744
Zr 8.067246967230583 4.619037575059224 3.9281472396476476
Zr 8.98575208289394 9.055055967449574 5.994460231154531
Zr 9.403932318327778 10.196986218748279 8.85899815574226
Zr 9.66558646569346 5.91124632515485 6.092293184995738
Zr 10.627000111437718 7.862462285453256 10.384568755188146
Zr 6.669065609542503 6.999935817615395 4.842282655485784
Zr 9.788898151727263 5.229125730620238 8.998418565699188
Zr 5.527538404529929 5.172132010793653 2.5001291527318656
Zr 4.894793850579006 8.064921087644251 2.5460061179781737
Zr 7.765462479122374 3.820140508795038 6.965024563798411
Zr 3.563690330674889 6.207976199104339 4.141971612246497
Zr 8.5690028174228 6.253074004850472 11.465605775311445
Zr 8.291301235981772 9.106625849215598 11.405067803635916
Zr 6.025349145203085 6.195207147973563 7.481329955542306
Zr 5.252036560133673 3.9807967730996303 5.172527583617685
Zr 6.425080628051125 9.75162763045715 6.848979980838571
Zr 8.096868464703261 7.65441076036948 8.723922980818841
Zr 6.863313613504926 4.551878416108463 9.949768750137787
Zr 6.358980534363714 10.037104076166997 9.673072125306334
Zr 4.201386725997967 8.730842983296576 5.409284109990015
Zr 4.9300996036470615 3.5658454102903057 7.963140524892275
Zr 5.880108833060813 7.355741645377388 10.974998460923901
Zr 3.2263088107951203 5.895141529471468 6.850807446680852
Zr 4.064501386487609 5.680967258548517 9.65276298136232
Zr 4.229888198189155 8.415804224419103 8.54391462201378
