24
Energy = -173.23945584 eV
Zr 12.716067891837842 9.157353562901877 8.272921316429086
Zr 11.8328128371165 9.06394846985181 11.10769565912433
Zr 10.582075813942243 11.304950253087476 9.786911578603956
Zr 10.875924944224511 11.088331346026147 6.967820931663146
Zr 11.559465728471048 6.400990054017008 7.162262994661262
Zr 10.028112672374245 6.89266180366676 11.51231807795235
Zr 12.128571092045267 6.5661881714244545 9.773099850877351
Zr 9.054291242595175 9.555961068989754 11.795688924069962
Zr 8.349011122795735 12.028163126764552 7.6929006936666235
Zr 9.964002980001533 8.506396064121576 8.695958179710884
Zr 7.778023677588947 11.782993045193596 10.459366520364496
Zr 8.623740257519566 9.875324498019936 5.592707487750567
Zr 8.79340464679249 6.8171245164485805 6.261936506218582
Zr 7.230566309687886 9.22191177877047 8.629297064911196
Zr 9.2542115221798 5.585511661808045 8.93703711839248
Zr 11.200006233644753 8.629306532984575 5.7262367946792185
Zr 5.987225494361695 10.923242296179975 6.416968617847319
Zr 6.223106051213419 9.754500817801008 11.619321292137393
Zr 7.299798870857417 6.9794660936382416 10.890852180703826
Zr 5.105996107270794 11.110810611762545 9.287267239072717
Zr 6.356989683400896 8.155181287580186 5.718530322663521
Zr 6.329841717571931 6.403203656465796 8.136237155182483
Zr 4.751452635201954 8.111349065524722 10.063018184388012
Zr 4.398104209855248 8.80672744186402 7.518219549902854
