25
Energy = -180.82097114 eV
Zr 6.882884735711063 5.865318125648347 8.083855321123128
Zr 7.842079697121339 3.1322007161988124 8.554938161634169
Zr 7.7133012059242665 10.121012695680845 9.16262232973215
Zr 9.20580321615305 5.308180480540649 10.111800807407748
Zr 8.152835049973746 11.610625385819302 6.529965066315244
Zr 5.395239272420684 3.541888444132519 6.611352660091108
Zr 3.9487346993664314 6.069981168433864 7.387450868837324
Zr 7.964422300890854 3.895006082354237 5.738186138957413
Zr 4.612287131655785 6.354759412096394 10.257790990144533
Zr 5.016551377798419 8.640647941588508 8.782356220690323
Zr 5.574068640126019 10.793391533080703 7.210885979434248
Zr 5.871069811576573 5.788644010377738 4.92704671209848
Zr 6.426136940749846 10.5718696974336 4.550970520617897
Zr 6.719501709093754 4.5966996008514736 10.973422434745645
Zr 6.8502949234911625 8.055916056475379 3.6376507339719906
Zr 7.340460921624792 7.524565363305014 10.679184506388939
Zr 7.66728566771206 8.481636413787019 6.631629865515286
Zr 9.346945094570959 9.5246135031269 4.494431079102324
Zr 4.785758354075748 3.773311640965534 9.204325296137727
Zr 9.919913497569661 5.279287022420252 7.352262657366761
Zr 8.902640766576274 6.349580130567022 4.6206922944137885
Zr 4.679305999776394 8.41309517771277 5.640380025804277
Zr 10.193567176784791 10.113674032626268 7.415700789710103
Zr 10.833076364428804 7.715674117816875 6.275900598986649
Zr 9.82195532614678 7.853547729413502 9.06025398109517
