29
Energy = -209.8889167 eV
Zr 8.300178534656304 2.750170049383163 6.728345093467483
Zr 6.787757413059204 3.568274742200205 9.233745487623391
Zr 9.542603619592768 3.870141101872381 9.248105687733426
Zr 5.125486032435912 4.211852030117813 6.907388859614457
Zr 10.85248495524477 4.510705769441885 6.945660127581645
Zr 6.50864421073653 4.5517783324570535 4.483887955521932
Zr 8.033413530304715 5.8880271723966935 10.78255992321227
Zr 5.1851883205778435 5.885564947739597 9.61249965179217
Zr 7.99021134129188 5.4626521085845585 7.048553357283731
Zr 9.47621523618973 4.600136907244856 4.603113476438766
Zr 3.286089235925959 5.833056660067572 4.786221821324704
Zr 10.431696079829361 6.7289781965421955 9.065092633107124
Zr 3.146400147842944 6.161729585169192 7.722548615986525
Zr 10.154540267245691 7.421850405820552 6.137781860939111
Zr 7.503682943897009 7.725078046880168 8.481836369338264
Zr 8.125708624857012 7.129421390518181 3.970239663233825
Zr 5.486220550208968 6.769403632627999 2.8658311404177947
Zr 5.47431753812942 7.296212411170097 5.883969285871834
Zr 9.591578414292416 9.763420372647827 4.382897159222153
Zr 2.6056767721219267 8.418579260030521 6.341916959122786
Zr 4.486047553502859 8.857672736844377 8.605328865145669
Zr 7.607879281553269 9.59675422768724 6.218530555497111
Zr 9.83690426942773 9.63899796242871 8.122959302086343
Zr 6.1919882999675835 8.326166079515668 11.000822446651112
Zr 9.023047993983562 8.75975506008127 10.763739165520507
Zr 3.574475279426371 8.657119754753756 3.8000888924118463
Zr 6.324838881689388 9.477275531161162 3.614737635215597
Zr 7.1589986457460055 10.476391256678777 9.178630709344215
Zr 4.736671385483246 10.345650877261221 5.989894113312613
