29
Energy = -206.60768082 eV
Zr 7.340296828097 3.7202479031522904 9.26973425963859
Zr 9.991628397447421 3.805202653037699 10.512242597684155
Zr 5.076992657958135 3.8996503931944466 7.292573771840283
Zr 8.53973671938084 6.157855468253971 10.357587303498894
Zr 5.969306637160316 6.528683974487971 9.142273013453144
Zr 3.1823622345377354 4.563345272022055 5.1725484217803785
Zr 3.9349771340263784 6.849630428002054 6.9359107562586555
Zr 7.638040249622399 2.596368834500674 6.367020763929341
Zr 7.162134102258786 9.022001167937917 10.194647255522122
Zr 4.5290336305375645 9.244199522119931 8.918652849755853
Zr 9.875704593503926 2.6973627892190324 8.070147814918066
Zr 5.683572252327734 3.3007080412924736 4.524613449756354
Zr 5.854422984546121 11.560060667510568 10.034308989058259
Zr 7.659973338814418 5.541491556231854 6.819090415796979
Zr 5.525952557239123 6.026435909665469 4.164312105829418
Zr 2.747859360862995 7.23502921366536 4.434707566582747
Zr 10.53660066201505 5.591339402970067 8.253903181518464
Zr 10.215188131792681 4.085431359171795 5.683768753422662
Zr 9.228418638182331 8.180690264948717 8.3117295796893
Zr 3.7032830385024136 9.784000299178025 6.072177391737755
Zr 6.527593359616809 8.479121983781065 6.694952985289774
Zr 8.243793885840798 4.9238242387158255 3.9117457339903963
Zr 7.831907906586627 10.913148088595692 7.99355509279146
Zr 5.034272675048444 8.786112351583864 3.792142325686927
Zr 10.009376494757344 6.983299855752773 5.541631888652768
Zr 7.764199063711194 7.976414999339943 3.8489063483023718
Zr 9.202184371796749 9.702676119718761 5.785775355056787
Zr 5.084519122651011 11.785578451041397 7.4657989140522005
Zr 6.575467782612761 10.862633453002308 5.086749017409109
