26
Energy = -184.86318752 eV
Zr 8.372071991027534 8.509185242942765 7.149467810237147
Zr 6.393549246710902 6.497805544807548 10.641990160506086
Zr 6.1699208698987835 4.3492958906118515 8.450534321591253
Zr 12.775533374163805 6.930131053664821 6.946725373434342
Zr 8.735622354764107 5.822725035799811 9.150298399941356
Zr 4.0758246278470835 10.111450754937866 7.319729762137888
Zr 6.733992912708813 10.87499351553293 8.363698753939623
Zr 7.519449133201671 8.252545243180887 4.337025347793318
Zr 4.135474319117543 5.299968388801266 6.4490979983793
Zr 7.908094510820269 8.869943137856117 10.176513822208213
Zr 3.9674638654858323 5.946370300158617 9.509152429225724
Zr 8.915223315332431 3.598904669832856 7.288333936625761
Zr 9.72747816969027 10.621866239358955 8.524631594395709
Zr 8.677924313933115 11.098046796745345 5.89734217486744
Zr 11.479496077291975 4.861658255020995 8.352876075581024
Zr 6.049941962374686 10.39624069048838 5.493592541536497
Zr 10.828791510466171 7.821052233878571 8.86623890478787
Zr 2.873153445528915 7.719796522706835 7.697682268210976
Zr 10.98442367806631 9.155170109661233 6.208733793921169
Zr 10.185740516038521 6.144186638738293 6.202133937687269
Zr 6.200227478029338 3.3337558606391253 5.513899404388602
Zr 5.859688557115876 7.6263662081134305 7.81967092089634
Zr 4.66796590293134 8.905197802873536 10.01413492050137
Zr 7.298553362410654 5.752773795232325 6.005203516183446
Zr 5.630478504477008 5.587042592323843 3.7939564654323674
Zr 4.495150948854243 7.968301341183882 5.089862186028556
