28
Energy = -202.87091695 eV
Zr 2.3572884809036734 6.741528551264174 6.673032583240173
Zr 3.0470864785305953 5.430226589268881 4.174248684148605
Zr 2.969543509932715 3.9047704667038396 6.5542995533438475
Zr 3.970285959348066 8.172709264921558 4.66187391650395
Zr 4.2749698068344575 8.465259296147956 7.853979266079713
Zr 3.8356086583081015 5.4622195665315525 8.884431890636392
Zr 5.093504503922643 3.4184908919392445 4.634944464767945
Zr 5.29611101366497 5.986558086499568 6.282610222589554
Zr 5.793051497879511 5.958288941036498 3.296271540487305
Zr 5.953862715051201 7.8610219223878754 10.465817390546462
Zr 5.666847928866169 3.2520037096105714 7.52549681196006
Zr 5.82067899808258 10.564888280771354 9.230229131248414
Zr 6.06646053455559 10.537024739834616 6.262009049802381
Zr 6.700989894108 5.437118571223029 9.088937537401756
Zr 7.710992058184568 4.3043060679181115 5.275235495785863
Zr 8.360533779316588 9.714404820727735 10.458722703745863
Zr 7.339852062762696 8.489681354326034 7.947516929937819
Zr 6.843008692641933 8.256129490646474 4.667804327725681
Zr 9.04081705522963 6.795174163998618 10.001559198469057
Zr 8.809667302691873 6.6999506401879705 6.845099580586222
Zr 8.42887488349728 11.252432410713197 8.049429914936196
Zr 9.056620880830668 4.065334332253736 8.128838198463239
Zr 9.199633796415856 6.751995343695984 3.930974682985072
Zr 9.180814026063107 9.597019033157713 5.621176287752737
Zr 10.416040076665984 8.944789131627488 8.33468989491291
Zr 10.591539593339457 4.7715230955311165 5.676329694405915
Zr 11.366342210286428 6.046202466412367 8.210862692470974
Zr 11.450579904344426 7.587114606262435 5.801534354422893
