29
Energy = -206.7013314 eV
Zr 7.743754351211955 3.235745516406107 5.237429229810987
Zr 10.34898247702331 3.9155928826285096 5.192449444756021
Zr 11.399353904424505 5.5910461801725555 7.337189220387416
Zr 8.47413478295832 5.601226029367951 3.3474263625521843
Zr 8.92723335220349 3.6302093000985676 7.834805810677705
Zr 5.8417522122971155 4.749271057393409 4.210771868631065
Zr 11.077994736485827 6.433692288062956 4.406425680420549
Zr 5.8761726625297515 4.690171989628988 7.084978587282286
Zr 8.620222657323858 6.216299231535575 6.316590828092816
Zr 6.192147166934031 7.5365952215819885 4.193383357793503
Zr 11.121548621794808 8.34925035165662 6.2732749976641236
Zr 9.006019281722358 8.521892933139437 4.221511546776978
Zr 9.892371949491034 5.365464171824498 9.816126336374554
Zr 7.075724216163801 5.515385764366633 9.517916754823322
Zr 10.067196432009878 8.019203107658653 8.827752055465472
Zr 3.991253584838004 6.5069279685967 8.619149540480542
Zr 8.37467342059384 7.501076605841096 11.118127234575269
Zr 3.931131315434113 6.32758303522862 5.71631798864198
Zr 8.96966758212583 10.102070161765582 6.887759253721272
Zr 6.754792428467795 10.107439623984225 5.143442653057584
Zr 6.5475740327982255 8.143541997203744 7.728170136359568
Zr 4.227645722373737 9.220482713155741 6.036000093002763
Zr 5.536209910189433 7.853468268328095 10.781570242027483
Zr 8.151160598932258 10.168660288737122 9.738589450811423
Zr 1.946401175562327 7.960340959096802 7.2998346004605
Zr 6.123485740265935 11.088152529594632 7.72609878436975
Zr 6.999609699027818 9.797571729711938 12.373572724331131
Zr 3.6653726022981417 9.352209160094338 9.012457020723556
Zr 5.4567962453314225 10.882561022075821 10.53819238548749
