29
Energy = -208.38372632 eV
Zr 3.7363771226386664 5.251132621767863 6.563750352447851
Zr 4.040007624817427 7.380004625950452 8.28392879183538
Zr 3.6113722606167955 7.652669213749103 5.005573698129903
Zr 5.4472265463859415 9.96192486058508 4.5382390585859635
Zr 6.02991392549373 5.39237045717955 8.726071217356552
Zr 4.215567934355939 9.144946063837589 10.537699136872543
Zr 4.452872315899165 9.873140806615394 7.1617735774824425
Zr 5.794976577708527 3.4709532303724777 6.5386015859853055
Zr 5.376937420404506 5.08889009894857 4.125067282278309
Zr 6.365195524730044 7.258468187522499 5.989947679900966
Zr 6.359525172149722 7.180965807010473 11.258312011140161
Zr 5.758151759080375 7.761124337066291 2.9579755998950277
Zr 8.023720779654662 3.4957799517535277 8.274786681144697
Zr 7.278338886666277 10.61331568708566 6.541943399270423
Zr 6.601559914217209 8.722485770261434 8.810127684712842
Zr 10.521370118302011 4.849703820091681 7.636850732719179
Zr 8.287475540503628 4.4838252098652704 5.540881665989331
Zr 8.66736791393402 5.345126091380026 10.390882002448706
Zr 8.971839644056224 7.255954571693038 8.030639776920065
Zr 9.080826620263062 8.367847098971705 11.184890657891826
Zr 6.675925170895739 10.102545799101405 11.318007974528763
Zr 10.07603789950237 9.71844630552453 6.589366288684823
Zr 8.23486214692803 9.062445330956775 4.150053198848681
Zr 8.007603733879549 6.265521166726933 3.4170003615183617
Zr 8.845210463794414 10.67074776947297 9.178212891826334
Zr 10.128379485559408 6.8589913691253335 5.209223037717893
Zr 11.165287640245126 6.549052567209341 10.037610631826887
Zr 11.135552320738599 9.301371757769406 9.330456641332892
Zr 11.90161594501564 7.492436856797577 7.365939957315781
