27
Energy = -190.45884398 eV
Zr 4.490255212107098 3.205109143913898 5.969276611838225
Zr 2.985145719058282 5.370102556733789 4.666991405344046
Zr 2.973826369107356 5.094281317901509 7.473267266132612
Zr 5.5219143632767835 4.265615465768 8.61968845549306
Zr 4.261725446829609 7.054997051881966 9.246148674731899
Zr 4.183001839153593 7.701897132105813 3.658146099619981
Zr 7.403811873944424 3.44167349351989 6.388677205732396
Zr 5.5907285703393725 5.874753876951521 5.937237632753151
Zr 6.077809895271983 8.81732732398315 10.707673796473577
Zr 3.3290077162829745 7.812257223337289 6.4245405903427475
Zr 6.76881607613036 6.123473528532909 10.595390775779615
Zr 8.439800903390877 5.199028893257653 8.484879712686165
Zr 6.942103909207857 7.816772855167474 7.9973410918027845
Zr 10.60532290322157 4.671390856857674 6.709039577523405
Zr 8.41333630178574 6.067843811949215 5.403890590376772
Zr 6.695869485501761 6.608844494471497 3.1782558411098565
Zr 6.326297824544378 8.762140281374581 5.128767741927835
Zr 5.051391675715609 9.842321989929724 8.025765505356063
Zr 7.515249034668505 10.664196845820069 9.34551603739969
Zr 11.15731278349659 5.838436796965205 9.219665680756462
Zr 9.143742135440135 8.081795542001839 10.099544008720342
Zr 9.839587905572506 7.667563997949235 7.076907254517628
Zr 9.146300675332283 8.768641496564726 4.2940115371567344
Zr 8.200509361452461 10.553830688880822 6.466683426465169
Zr 10.180259340810986 10.558842985655353 8.622742546126517
Zr 11.100824637822255 10.041662125228026 6.035870168451885
Zr 11.990287103185095 8.459170368727673 8.694483052775004
