21
Energy = -147.99699671 eV
Zr 8.939277327185149 8.97293662950522 4.0368319097285355
Zr 10.344092595387563 6.9499522611496545 5.685068164606227
Zr 9.891152245724388 9.633873734998618 6.809489672945332
Zr 5.978892533458911 8.816663030984857 4.110720335731361
Zr 7.348051377232805 10.721580311589925 5.88892667445076
Zr 7.393384438356696 5.797177615902039 4.548336203138661
Zr 7.672456029176446 7.8830677351722285 6.255896324962987
Zr 7.509025163231445 2.931502971821904 5.050509126749974
Zr 5.189388216434295 3.925344172189303 4.207016052753111
Zr 8.988939245760914 4.830212140314029 7.0237898155023215
Zr 9.57769052454713 7.284523743153902 8.714509128193058
Zr 4.566012463685026 6.723075691269066 5.424168983737555
Zr 6.475002394100664 6.77072481846363 8.237453894641664
Zr 5.918314522832977 4.421183466398757 6.989157265647145
Zr 4.9302606608239214 9.273441399969213 7.034113931463176
Zr 7.52058070572162 9.685748351165364 8.79551409512048
Zr 7.959221230473131 4.767298156655373 9.683928903225475
Zr 3.598664927943373 6.637581340687046 8.108042201698503
Zr 7.458118321875107 7.4082953505598494 10.880208158101953
Zr 5.177344040644351 5.531759228586477 10.359537422975265
Zr 4.923763359581744 8.494052509006037 9.963924102682311
