28
Energy = -195.76860573 eV
Zr 6.060278643075127 11.37536942989362 10.05890802549324
Zr 8.146544732439528 9.590011185184094 11.15780828153838
Zr 10.326439619274971 7.822344924097177 11.582876499396363
Zr 5.780195688259189 8.586223289681206 9.859781648739412
Zr 7.931856913802131 6.593384144226944 10.583193568661274
Zr 11.14336602671307 3.8942847908755143 7.557776092885374
Zr 5.017591173056781 10.086009611632399 7.500273313747924
Zr 5.382659656075159 5.662127289170257 8.72020803037939
Zr 8.422168334559702 4.910769773153571 8.088413695297419
Zr 7.760932937313904 10.446516613297575 8.064148086347503
Zr 3.2359423721258214 7.545577320271459 7.675427418801777
Zr 9.671544899721503 8.399829892998632 8.862050312087295
Zr 5.934635197302506 2.9041664075607088 8.441170546324472
Zr 10.716637563457997 5.67914759172119 9.803589240051231
Zr 6.492362647388894 9.692495558730291 4.86798039330687
Zr 3.4800902025073968 4.648872734966431 6.917977984436552
Zr 7.265382660431819 7.644095635597669 7.378007044770669
Zr 3.5203957216405772 9.280501382818432 5.227777711561473
Zr 9.334231540858138 8.86405305704747 5.3589458034446915
Zr 2.548089379386173 6.655969212516441 4.838023889086562
Zr 6.26674922445959 4.027823162925039 6.083914720741453
Zr 10.631997169118153 6.586544147375624 6.629104441195822
Zr 9.619759451404617 3.913929106292981 5.4223425325947305
Zr 4.786979630316328 8.026713253985287 3.0450484849417925
Zr 5.196391028207758 6.818174712536933 5.635337764802698
Zr 10.324931871873755 6.655437580752482 3.689846505728508
Zr 7.928775951023678 6.139546468379416 4.876682745907912
Zr 7.860272220410544 8.22487059797533 2.860216150070441
