22
Energy = -154.67326897 eV
Zr 8.2249322111826 4.616998478650364 5.8454464076400985
Zr 8.994224197533091 6.497976356383017 10.498012605302254
Zr 10.052110137043769 9.127819539031368 10.070189461395326
Zr 6.433161588830536 6.281592688656942 8.916345854755638
Zr 10.501185860592884 9.705904978461033 7.1591697998531485
Zr 7.7971853022989395 10.933185068947969 6.4096634216186485
Zr 5.582602336942443 9.773551409274573 8.243982061763186
Zr 7.6674698001216175 6.794372037538137 4.227210544609345
Zr 4.282131940307416 7.6051529399445625 9.881870079643507
Zr 10.35015933924579 6.734617369111787 5.849571996957091
Zr 4.54577783229589 7.1123572243201645 4.1301872327853255
Zr 6.594027745764719 3.697304017943335 8.037020102272745
Zr 9.47864149635951 4.918616187368855 8.197406699439448
Zr 5.520630767838739 5.3180187551190405 5.8163915605439
Zr 6.006057216279909 9.056119185681288 5.344817199429419
Zr 3.9292571765797564 7.691151560881899 7.029038228989987
Zr 11.142907875997771 7.126317986799715 8.606699664843598
Zr 8.959233465019532 9.124802258820944 4.69511482196818
Zr 7.130135083968404 8.695526702492907 10.59448885289677
Zr 8.230889133083032 7.958786833143499 7.530806537116348
Zr 8.225164819351825 10.816531525566461 9.045002542825218
Zr 3.9317024151298425 5.099264364640448 8.322874939851719
