26
Energy = -186.67462477 eV
Zr 5.718649222890478 3.2665789549056807 4.448133361527509
Zr 3.539905840762007 5.0414851218292025 5.199761020813484
Zr 7.82912680439399 3.1530926374992676 6.159282788243166
Zr 5.0665187430519625 3.668746415460626 7.334664704493074
Zr 5.279222184659768 5.565811654162709 2.9494425284739636
Zr 8.238261136444994 4.871318183313893 3.705508551417089
Zr 5.082671812718965 5.140024031927931 9.76338246349844
Zr 3.846617281123666 6.586075332620428 7.659515360361141
Zr 6.471119651180544 5.918503305065196 5.705995285446911
Zr 7.735649751870964 3.9959056479588972 8.848750924305829
Zr 9.581823422440928 5.304748608480666 6.755765424388942
Zr 4.378558364841214 7.829436271375095 4.742561454741159
Zr 7.068496492717952 7.606388968540302 3.2203612533443544
Zr 7.321631517698971 5.92571446724219 11.060792037958757
Zr 9.743525540356526 6.026874250981825 9.574207337539386
Zr 7.148500889279628 7.020204528251561 8.207737739016284
Zr 9.216159979248259 7.559791706059782 5.048262893906697
Zr 5.280587837959557 8.02369692723381 10.186716954650343
Zr 4.829010813858437 9.21661247765856 7.381646366855848
Zr 6.880029057371991 9.41903919465157 5.472693212496856
Zr 8.504995492848003 8.498323558689512 10.503034447521145
Zr 9.967997361981713 8.373234849682374 7.877832094775035
Zr 7.1327276330855 10.073998280415758 8.675808945007935
Zr 9.4327927959022 10.490268199443054 6.051543822680496
Zr 7.315202205650494 12.157292031707293 6.841176610034131
Zr 9.53421138215257 11.332257386384224 8.749679788740952
