23
Energy = -165.06524331 eV
Zr 3.7191620876932605 7.263477509105533 6.758154304218693
Zr 3.2374735793334692 6.046698716012946 9.4549305294536
Zr 4.455459926171901 8.640132549464765 9.423122556744817
Zr 4.110890752505984 4.25688007875156 7.419812492282008
Zr 5.928346199696996 9.516141741281386 7.286262522922144
Zr 5.320274879153131 8.188595734820215 4.432786313636708
Zr 5.561564132762884 5.118705316158933 5.26787569618266
Zr 5.469278379292837 6.680248992361939 11.252578224254727
Zr 6.0745406262190365 6.4218222567218355 8.18853797127325
Zr 7.5061173595093615 8.336689871797356 9.803984402397067
Zr 5.273655132953003 4.030707010371295 10.035906471543699
Zr 7.797568322799775 7.430265206996638 5.686621844242952
Zr 7.063905151828767 5.970304260913375 3.147538746584975
Zr 7.400422197300893 10.363093258384652 5.133420976541334
Zr 7.798560512666217 8.703232377300385 2.8252402276760207
Zr 7.816647505124272 5.3151922320530245 10.392712853367032
Zr 9.105626863024387 9.281991217223254 7.470894791665827
Zr 9.826652815084845 6.687198922557567 3.4269385237346657
Zr 7.18121691797911 3.817640166278425 7.744554051460746
Zr 8.76666613548934 4.74463962055034 5.4397132257365035
Zr 9.305338818633762 6.202262034640796 8.276764625968646
Zr 10.02883977126489 9.350357183988457 4.618399082236708
Zr 10.761501144188642 7.0412911622926915 6.1178997582595
