26
Energy = -185.6793626 eV
Zr 9.29334194456483 10.376755927130827 4.6229692576293475
Zr 10.295634449842904 5.690413327944749 5.739823086204037
Zr 10.631733236688001 9.11394223351653 8.97403451449851
Zr 11.329524633055977 8.70903943723246 6.1826317211510675
Zr 10.30010669776933 6.368989264674012 8.524372250994116
Zr 9.51706094982469 11.1225060850137 7.229780542659214
Zr 8.183337906556932 10.099684865989564 9.538916837905157
Zr 9.8009296213908 7.700401264543832 3.8474331659800445
Zr 10.524578421423492 3.6216327162113973 8.213567410026203
Zr 6.3841771691754685 11.755481899531464 8.700967890219214
Zr 8.735621881236128 7.626131320966227 10.93144297412697
Zr 7.159643809260888 8.744907335749971 3.7693695792742665
Zr 8.51256395163576 8.15464458770017 6.600672796172661
Zr 6.610879694956762 7.048487007134533 8.64205818666872
Zr 6.021543315470312 9.123142650661881 10.996940708318032
Zr 8.092273370932348 4.54281289289983 7.224758541304335
Zr 6.620110561092508 10.539598281002421 6.089461087303242
Zr 7.479184356517081 5.993802600833254 4.566366594843991
Zr 5.2086042511872135 7.87335999826321 5.646356244556718
Zr 6.269756705613773 6.200496527193745 11.555657871594535
Zr 8.25944724963517 4.811605849448357 10.100023991510989
Zr 4.008759523774999 7.262121256791606 10.293157907524945
Zr 5.4303860541762985 4.999975312088519 6.4072077059927794
Zr 4.689767518457446 9.421062590963722 8.196478120788372
Zr 5.162391816294453 4.585262988406033 9.319029049608842
Zr 3.6495974286120303 6.5881441919968795 7.7028052086204735
