24
Energy = -167.40831852 eV
Zr 11.046269870840572 4.1760052979115185 7.441291779128203
Zr 8.503527106937478 2.7626106482774686 6.543131598013235
Zr 11.286798559977363 6.778306405526825 6.230809517309512
Zr 9.880149773534011 6.602297623892941 8.84667790343048
Zr 9.02021248739296 5.296235868634664 5.798444546638212
Zr 8.681947525659428 4.00376155407437 9.004417360475674
Zr 9.917899771951477 9.20772516170139 6.894570341332563
Zr 8.892119614606523 7.937599367089057 4.48222521299766
Zr 6.31957470005449 4.75828847199969 7.58527962329817
Zr 7.102540740448561 6.372857666807281 10.105292695248062
Zr 8.77370277594292 9.113334998001628 9.582890962333817
Zr 7.176222167075057 7.677765210104542 7.170173987587953
Zr 7.263657904355177 10.267720829560943 5.630022031157153
Zr 6.480287399489601 5.741339475282198 4.7363959233934985
Zr 7.96651780637069 8.593546209836703 12.114070282625224
Zr 8.200987446821417 11.391788339372848 8.06746176446333
Zr 4.016503971910088 6.891882533584269 3.743971834089917
Zr 6.272122082031246 8.50355581691181 3.615563837725841
Zr 5.579722364224083 8.762620514000446 10.764468408471531
Zr 4.535019364636619 7.26301780445209 8.58182800021074
Zr 3.9496868526729143 5.88120087928565 6.188943508161348
Zr 7.092744363430472 11.133728233283195 10.692696440511572
Zr 5.540119558993249 10.197731440986155 8.265861332790982
Zr 4.512022315247005 8.779560269676074 5.92795578920037
