20
Energy = -141.37908865 eV
Zr 5.483050320208353 7.206532979139159 4.695285556702061
Zr 6.291541875495412 9.813858919471143 4.853543709659294
Zr 8.48740494865858 7.656220590776186 4.7302927437836955
Zr 7.117180616467799 5.135700316277144 5.738670559655603
Zr 4.179360104500709 8.958132840153196 6.963921285183272
Zr 10.285124957104546 5.631363395105476 5.763987832302508
Zr 10.555255086814563 8.356625441510245 7.012193822472106
Zr 6.380240967498277 11.085627965376409 7.376886162868977
Zr 6.848479648080625 8.007890827369405 7.344617960274
Zr 8.764500062044032 10.293763168826272 6.113010501430303
Zr 8.856243676409456 6.084310845079918 8.073791771091681
Zr 11.596244711153131 5.837834775843199 8.415786791506756
Zr 8.640708871961708 9.882013705659874 9.03397136155551
Zr 4.51328525819713 5.929977709711313 6.9542226094675215
Zr 5.70584016816648 9.70075763210463 9.644913816602184
Zr 6.466045783944267 5.019382174465766 8.914696763897917
Zr 10.398935396873012 7.845555139696845 10.014155473917544
Zr 9.56737748305606 5.2068232195027075 10.605906598082607
Zr 4.677995534397383 7.198538180662266 9.460172248323227
Zr 7.453345433718747 7.417251078018996 10.558133335973244
