20
Energy = -139.78153877 eV
Zr 8.806015229010224 5.882958236453032 4.063238573883896
Zr 9.619865819380289 8.59130071949553 3.8523307257622887
Zr 6.915912721936772 7.8929725099021795 4.64518686622571
Zr 8.362024703116775 10.344340997442194 5.323785674057802
Zr 5.013589380193906 6.875519772228331 6.478178940989228
Zr 7.334495724853593 5.196947918328891 6.573351954343771
Zr 5.818338661363583 9.94072979744866 6.6514679897723425
Zr 9.30931339677772 7.639667205243525 6.640598358424229
Zr 10.271347783873281 4.820439562489703 6.287591687789194
Zr 11.631366743770661 6.472278161164387 8.033584419063576
Zr 8.530581374560244 10.560612329773264 8.257808245135731
Zr 7.166190200754558 7.963439493614311 8.549300445099991
Zr 9.025045682524652 5.374354320758677 8.93387833686451
Zr 10.015615672616534 8.083435387714259 9.797878061554032
Zr 4.151128284511675 8.346392008981121 8.594790353701312
Zr 5.815785575557395 10.586898016519243 9.487703470226212
Zr 5.664443354305454 5.701978112573412 9.218504424749076
Zr 7.952087937932666 9.61455564368974 11.057796222485095
Zr 7.889285489454937 6.7162580477661615 11.237422750400347
Zr 5.45070307387219 8.138058568780622 11.058739309839353
