29
Energy = -206.88668599 eV
Zr 4.970616480565044 10.014779318021771 9.946882757665044
Zr 7.846417113607263 5.331187744288999 9.851991249260449
Zr 3.6412597805789075 7.610541712554449 8.938000174024582
Zr 6.174504771386136 7.510387078882557 10.682156817185723
Zr 5.177891758800029 4.924738815579344 9.267300603777834
Zr 7.477321712952997 3.0930606669243397 8.097443413032899
Zr 4.982195478342707 3.256177088033695 6.797123005435503
Zr 3.7910948810325844 10.149441184186394 7.373591732541143
Zr 3.513401543499562 5.494768171220588 7.073224018506765
Zr 6.33503753025002 8.352422393701723 7.730763598603338
Zr 7.929344346664789 10.20455021217703 9.855961261387717
Zr 3.69769075980218 7.886855270296689 5.764875482135375
Zr 9.087616124411651 7.733249008507976 9.545708112815765
Zr 4.685367419928832 4.956637857862395 4.436656995758834
Zr 7.014927679341406 5.7008553977291045 6.4726659690738675
Zr 7.101268366225661 3.0794265560185394 4.918366396227458
Zr 6.350221968230382 11.471489203722813 7.744119983758594
Zr 9.877648868383087 5.027808179487681 7.9925246060707975
Zr 9.734215541746766 2.8200609927249114 6.244817455608468
Zr 9.231030407978583 12.344037333190249 8.407944977399003
Zr 5.866092632557306 10.021591938810735 5.212110721750896
Zr 10.758529978624958 10.104449836826998 8.773606159027008
Zr 5.685758855143193 7.615185741515485 3.854781608154523
Zr 8.73117560090415 10.089719038549473 6.742855952088167
Zr 8.365545043324738 8.074476131025103 4.487748947904805
Zr 10.088128667527046 7.623263523919794 6.820829325287961
Zr 7.4355029824069865 5.535974119605178 3.302140701222312
Zr 9.846339500702042 5.4412009235038274 4.928033980102483
Zr 9.48788758080479 3.092283335384721 3.482693652936461
