27
Energy = -195.10695637 eV
Zr 7.383557609894402 4.796276950398101 10.060863347862718
Zr 5.868047681880669 7.299166505620381 10.550853462146918
Zr 9.843377182178953 5.031463457979839 8.372879265433939
Zr 8.648653666082573 7.505767565269646 9.453758404171118
Zr 10.83690453606877 7.921395070904383 7.6032968196622885
Zr 7.25174490525288 3.067815871856641 7.549762647812154
Zr 4.58347773712122 4.8197864701089514 8.955177263902236
Zr 7.125879647047852 9.983606030363786 9.607797214180383
Zr 4.394232409181508 9.889557338892175 9.831280041873642
Zr 11.518870576010817 5.843440196322032 5.9196028798737155
Zr 3.210970439312248 7.332876435379743 9.380874640670742
Zr 5.680540985089707 8.250705153958352 7.589038303186987
Zr 9.621611802889126 3.6752234546309976 5.884851000062232
Zr 7.257229597546412 4.273892405022985 4.426944323792175
Zr 10.00391216595849 5.400161785734817 3.6092573749945953
Zr 6.735238214654259 5.712272031710546 7.378681563034932
Zr 2.8639357456648336 9.44291184811998 7.494653169521776
Zr 4.764505502625681 4.031205100669927 6.058755339580139
Zr 8.64691491153912 6.769196011409314 5.932450605418754
Zr 5.523436159565563 11.012820158526976 7.163388412141176
Zr 10.333604007963402 8.334240664923719 4.525955585135421
Zr 3.270402682024734 6.543843794128086 6.584938555019405
Zr 8.543479070478915 9.693846077098886 7.142927969139366
Zr 7.865226770096759 7.053502339389106 3.0624262832784095
Zr 5.371032070038331 6.5501733890864715 4.447563332634196
Zr 4.181033777438784 9.126362614958005 5.108002188534126
Zr 7.0193914111152464 9.247233753429764 4.815865635364752
