29
Energy = -207.05239923 eV
Zr 9.900289061066243 7.5521351940257135 10.908482516648982
Zr 11.067322951804401 5.22613018458759 9.626157470669506
Zr 11.47082905515759 5.457987683815774 6.848246208055081
Zr 11.243538335672007 7.99241649405301 8.280901800168275
Zr 10.852232038804399 2.901756315899165 7.532089026495039
Zr 6.949029259505016 7.545164500438339 10.73078058750567
Zr 8.440388844712578 5.135123165200643 10.87035539116731
Zr 8.600053574930833 6.681293674947503 8.092695928813658
Zr 8.900851463055702 9.67548704215857 9.35555162804034
Zr 6.022456144759006 5.1668610985062555 9.226335680090203
Zr 8.535688370229156 3.614036747801541 8.538919246663056
Zr 9.65940388542182 9.742259231598169 6.669976769312898
Zr 10.069501792777894 7.3404761297910825 5.309229150503727
Zr 9.217335619247484 4.3937125542388 5.527158495401254
Zr 6.478976917923873 4.535597305475559 6.454445908526663
Zr 6.171706551996674 9.97511601405066 9.596726753865248
Zr 6.105853239390934 7.99416388588589 6.6137170945162245
Zr 7.81242514468205 9.571804084254897 4.511083455032935
Zr 4.313928371781793 7.749808145875742 9.205691885096943
Zr 5.835500609256712 8.204656469577277 3.198676769368889
Zr 7.635670962776838 6.414756873464177 4.181977676821713
Zr 7.084225366874238 10.994240868851008 7.045118285088918
Zr 3.8342900723803375 5.519134852105735 7.30528961461129
Zr 4.308020062334269 10.330892490512596 7.753070564082207
Zr 3.194563835487542 8.240163196766288 3.6595093988140595
Zr 4.743924385286873 5.785643092408054 4.486019015622878
Zr 4.89008418356445 10.325170285416457 4.960158668980337
Zr 2.9411698771520762 8.254227341283425 6.573092919009791
Zr 2.0354630720523272 6.063551653741736 5.058673153441223
