24
Energy = -173.46247763 eV
Zr 7.041259117690369 9.12172471669493 9.296779984819048
Zr 8.636950276954 6.983316372477843 10.360335675000142
Zr 5.894457623864651 6.323172001609739 9.87805160354439
Zr 8.021555744862939 10.348664869212545 6.8670934531521315
Zr 4.252509915301851 8.534409363709933 9.053773777684139
Zr 9.768791660019811 8.532103771560736 8.07151541186146
Zr 8.347170156202376 4.055406655054276 9.538495318528376
Zr 5.101440781076059 10.636507468107913 7.0050588835566705
Zr 5.935404869077439 7.900839733733615 6.496966424575824
Zr 10.699829084442694 5.839172400771817 8.937855708098958
Zr 3.840635858965671 5.924677846209487 7.659921419101838
Zr 6.79331728785469 10.073604409394804 4.4513932656121105
Zr 8.02167064732605 6.041512638515726 7.4438996268313975
Zr 4.273604009979462 9.261844121152965 4.262573247967936
Zr 10.806198901111594 6.5084300458912585 6.129600246028374
Zr 5.704088154240548 3.9320991504068132 8.261846578475609
Zr 8.967333739507202 8.268633432194042 4.984751366326847
Zr 10.21370855971664 3.90143318505493 6.970286836253316
Zr 2.9399482419985246 8.572428201793848 6.631948769647276
Zr 6.441086391818155 7.143279789733825 3.650458045021117
Zr 5.686719715562453 4.64385454862719 5.387001381320301
Zr 7.719323485185956 3.0525791616457245 6.655637655632839
Zr 3.7518925817374464 6.549141712434391 4.737097110972089
Zr 8.61808752834254 5.172499889628924 4.646717254536888
