22
Energy = -155.18782956 eV
Zr 4.16658421184224 5.594483159793366 8.610962897674385
Zr 5.577515183077069 7.532911307017601 10.326178446146104
Zr 7.502839767435477 5.404758250350159 9.43356007771478
Zr 3.485242678856619 8.548618986885849 8.459165218050996
Zr 3.5395921639743744 6.623217600768003 5.829159688495775
Zr 6.153296360789407 4.849684425760381 6.7058426137452285
Zr 10.401291916358106 6.164310795152356 8.8690181669078
Zr 5.765044212634693 7.712952813142557 7.347822278584983
Zr 8.482469596898293 8.26998629561835 9.927092373529652
Zr 3.8174592602402737 3.735179795468838 5.6141366390115754
Zr 6.064483736125623 10.060673646875234 9.149337322386133
Zr 10.686558438012522 8.82252537815033 7.7011897627370995
Zr 8.467608458834256 10.430849349817478 7.726288055527856
Zr 6.628303739407536 3.1597386359090183 4.675035463707996
Zr 9.052089675775 4.370929085795201 6.935593856022388
Zr 5.250254218201542 5.391432431732544 3.7400133630193335
Zr 8.34400230631314 7.287129806680164 7.1476675965660545
Zr 10.77862285504823 6.516827683222615 5.918085152507465
Zr 6.206932014236334 10.247717461987893 6.03720652639471
Zr 6.162641704098758 7.992484572740875 4.320063695446858
Zr 8.196740737905024 5.869817321311964 4.39882398982686
Zr 8.967838480888542 9.04477582108076 5.036417525071085
