20
Energy = -141.12108576 eV
Zr 7.775635331757837 7.233269404059093 4.973223961678158
Zr 8.16241859060584 10.534701195144642 5.048322391048088
Zr 8.01149304621508 4.5199868296888015 6.268181100618778
Zr 5.6924551737557545 10.980533225691634 5.74837266067517
Zr 6.958077128710835 8.788925438965704 7.189596771942875
Zr 10.07547780742754 9.159776995392555 6.640332097546826
Zr 4.2373412893899625 8.316044824051483 6.417962094865388
Zr 5.618564841850366 5.829472255434752 6.794080540770005
Zr 10.35014892404711 6.201035567819947 5.8232597032322255
Zr 8.087884369678545 11.229628839359867 7.929123616020622
Zr 5.108494564465662 7.374392723128382 9.211009899916883
Zr 10.133541322397232 4.426294952364796 8.192962432106242
Zr 8.497607021228477 6.821983224465033 8.104086920286258
Zr 11.423885156492744 7.095786183725435 8.388386932942952
Zr 6.793343646348935 9.738535293664823 10.185963196018134
Zr 4.8474005331515375 10.39334228767022 8.348450904489878
Zr 7.137639006107543 4.754512198496713 9.28052647190404
Zr 9.64760961216077 9.091240733259589 9.717528259963375
Zr 9.826212545127339 6.060120408237803 10.570520089748902
Zr 7.456482988685548 7.292130318983085 11.00982285382946
