27
Energy = -187.85379978 eV
Zr 5.8798496456085285 2.6256795271450466 6.079608645765293
Zr 6.385447356503719 5.279814837610031 4.760789397126091
Zr 4.324592745832164 7.586828599597086 5.735266432832779
Zr 5.115317682809954 4.93831561900458 7.403953078254837
Zr 5.448981494434108 10.349777647206965 5.498450479781231
Zr 6.64160179387833 8.208807489085853 3.966615473903192
Zr 9.566989013189035 8.891058653690115 3.608980655573163
Zr 8.045626126068411 4.255448872897252 6.801527184799951
Zr 7.682916401238877 10.868922621057983 3.6679188891807497
Zr 9.31926098730752 6.5375843030262 5.281225221509833
Zr 3.195882919422303 9.849944818522568 7.5564082638434185
Zr 3.981700375043995 7.2611049231171965 8.55178087572384
Zr 11.934833316916572 7.533453739284604 4.481270828251121
Zr 7.06422465783352 7.326117021071337 7.021701019612159
Zr 11.975181644467183 6.08031531849626 6.752297635017735
Zr 3.919506293937963 9.226596551470609 10.388082991172602
Zr 9.595075784071964 6.130926062909672 8.434283282859882
Zr 7.074545399446428 4.986483055020868 9.694300567478063
Zr 4.548390203996611 5.915599383024082 11.016579321041819
Zr 10.76627580368693 8.7952260155006 6.784023663158669
Zr 9.07979211812465 9.079056713213836 9.160904816848841
Zr 8.316987421819736 10.217781304247076 6.303773737944231
Zr 5.903294699471978 9.962626927742045 8.320423861238464
Zr 11.660663700560281 7.694993015808747 9.336314386565412
Zr 6.660832821782188 7.880324887531376 10.178952012556856
Zr 9.252426483272805 6.790043163896329 11.258907772640173
Zr 6.817318269901232 6.055104696927896 12.41623607801289
