24
Energy = -169.07657073 eV
Zr 5.552930234227132 8.656340566909833 10.419254669137587
Zr 7.452127676654062 6.163799812472301 10.165880747069023
Zr 4.270203422157797 6.183837058816789 9.752902823340774
Zr 7.738475367100217 11.118303702352739 10.15912678650386
Zr 5.921758657806553 10.527081333866592 8.260484934928629
Zr 8.61917250702728 8.729175585961844 9.8357823070004
Zr 8.787541268721458 3.8322030484588865 9.807777512202676
Zr 6.099655243341414 7.209022046110416 7.732480477718299
Zr 3.823970618524803 5.585312742490761 6.919705990674285
Zr 6.012030437822379 4.149768960473388 8.458841353429381
Zr 8.618152354782639 10.711031725629807 7.234491930298733
Zr 10.356960823531907 6.3930847347386175 9.13840286044432
Zr 10.877285149042724 9.061436956558625 7.792492216464734
Zr 8.54111007455813 7.590062434279571 6.872534511507237
Zr 3.71605455275314 8.556844448165373 7.900886066500689
Zr 8.807994191152538 4.645617479879355 7.217972206517821
Zr 11.191157193815448 6.563551136391931 6.285024999932659
Zr 6.357956573019274 9.828499034277314 5.599214684795702
Zr 6.492306296999754 4.895544439140776 5.601961996434733
Zr 9.824041906590924 8.91724552992474 4.847791685670433
Zr 4.623132094465801 7.525964425504786 4.983851822844179
Zr 9.178112709739825 5.8951504309683065 4.356561356960914
Zr 7.215016307188871 7.9132209083012635 3.792260158049722
Zr 6.1082291295293345 5.546311837192097 3.146828290894305
