23
Energy = -163.85557599 eV
Zr 4.573142778102007 7.445357793228594 2.29175123764123
Zr 7.746470795163727 6.312466112790442 2.87222049262126
Zr 5.012190548620939 5.354243959098102 3.7522504952624587
Zr 5.594885102915415 4.58008112079176 9.277442636290534
Zr 4.179138403895337 7.735666611585932 5.5343700669404585
Zr 9.684817362493316 5.722503323468719 5.357270328721813
Zr 6.245209094164486 8.870464440499655 3.658640118630353
Zr 8.899177186926243 8.54646169535058 4.359329439497886
Zr 4.884124636689302 4.755131106692642 6.489621238007169
Zr 4.052153848389094 6.845616080452866 8.329075045746844
Zr 5.319618268460431 9.431807896174334 9.247717631829582
Zr 6.657910827292522 9.662874066522695 6.3857650768513725
Zr 5.328726787946677 6.901567774522969 10.848376110420109
Zr 7.303595971774038 3.983116253649266 4.652965895907937
Zr 7.041295365375749 6.683204679987822 5.7611880892357545
Zr 7.87433362354228 4.071494196435408 7.490784734564713
Zr 7.177610549578339 7.227393821222848 8.53010867706413
Zr 7.457535438622647 8.575782887895551 11.212683278122851
Zr 8.133218996129036 10.126397206819851 8.854021495533164
Zr 9.717706158121493 8.522183710712683 6.9810510879454855
Zr 10.023172639407052 5.784049994340539 8.200176899498917
Zr 8.132946870851166 5.543116452262731 10.606357296001498
Zr 9.82197251166867 7.960766214999995 9.860257153379536
