26
Energy = -181.0151368 eV
Zr 11.357238350028666 5.985619360924442 8.67371804734846
Zr 10.91324005659063 5.746701250144688 5.828527906511937
Zr 10.142688690155591 8.177692335141092 7.053835748293068
Zr 8.563577743743899 5.649358369847908 8.379181449501841
Zr 7.363669037412092 2.9603062860533975 7.8605007148807555
Zr 9.694128981446834 7.9480947722658675 10.046574826566703
Zr 10.354656427635398 10.495681921813174 8.556735689707844
Zr 6.668231405042653 7.304719354034736 10.087691945133345
Zr 9.907166218975116 3.3725543200597334 6.737114318809582
Zr 6.500652020486138 4.4027862306277905 10.190502174735217
Zr 9.529121995615492 4.590048776191349 3.6109387813915257
Zr 9.317132268941668 7.538080643660507 4.197337291993066
Zr 7.654492478535777 5.062827431138592 5.5927291354813224
Zr 7.75744047107682 9.650031184692232 8.67833058328265
Zr 6.759521306331608 7.642961445305323 6.703550596032096
Zr 5.392948101564254 5.114934281522393 7.648853681006323
Zr 8.21124856781208 10.065170102660684 5.850959847155096
Zr 3.8967896297730786 6.3353755989109635 9.721921360081165
Zr 4.639460889967558 8.953012770410668 8.724458685751824
Zr 7.148769818877566 6.01519813969302 2.8339017765873553
Zr 4.789970445108653 6.608003351380518 4.536437715097919
Zr 4.797085621495532 9.532524799542868 5.741059335166381
Zr 6.666828143688909 8.627812145395607 3.773980518001752
Zr 3.161300370967827 7.224136748172888 6.844017367806227
Zr 1.7755335880051342 8.238010200048414 9.188991955175052
Zr 2.2996562646860075 10.016241680377808 7.3368128710462965
