26
Energy = -181.57117862 eV
Zr 9.50033757153286 9.408965981854784 8.385717700786097
Zr 11.378675409248945 7.257026703038761 8.921536898923856
Zr 10.810123919735446 8.224444520396915 6.047733113587903
Zr 6.7651710582444196 10.782259045458842 7.825425450185474
Zr 7.0224035322770275 8.973474001864409 9.958772093966504
Zr 10.115887097080483 9.231879435686094 3.4092194209821827
Zr 8.737589716219176 6.5467525085660805 10.016883356967423
Zr 9.71675976106182 5.632379986269917 7.11597407852891
Zr 10.783145134888823 4.6551996553934725 9.626667911774875
Zr 8.740161113145158 10.3355122234563 5.643740875138259
Zr 4.457507393563137 7.967545960177221 11.00483637812617
Zr 4.734912459056108 10.66724701446299 10.302097787629307
Zr 7.307952280067597 7.894120907820336 6.8946903628294365
Zr 8.154529282687221 3.9157316558034254 8.997923647073387
Zr 4.541353870049709 8.7871797572268 8.15877329867478
Zr 7.401556361793827 9.139185773865126 3.2595578514600163
Zr 5.628712847940761 9.766194187263938 5.314287587985752
Zr 5.941992554701202 6.088845329363416 9.20227573315067
Zr 6.950842504236913 4.849013409412169 6.371786880063544
Zr 8.754515746280804 6.779332342557373 4.347654347946031
Zr 3.1046412744114846 6.164265846184855 9.0080852528151
Zr 4.369798561315547 6.622604378850464 6.37813757107907
Zr 5.951460005618778 6.668982099266583 4.111279299272715
Zr 4.733655050052369 4.032574363781768 4.711471270144296
Zr 4.55470474677213 3.9455487311391715 7.762817290302148
Zr 7.228362752306137 4.1104810971341195 3.5508924742596735
