29
Energy = -210.88703258 eV
Zr 7.608541033867837 3.882977432948903 9.682347868099558
Zr 8.5742849704479 5.847153676773099 11.631936340591606
Zr 5.717638696775878 5.600203236215448 11.33564049478805
Zr 10.176360614487473 5.6551593253596995 9.261719894175277
Zr 4.46052304357127 5.1092790697056465 8.770353140049904
Zr 6.13360027513262 4.110364935469755 6.929824934394672
Zr 8.885978038200482 4.549294450072717 6.9726647714713295
Zr 6.947598370112581 8.223765830206215 11.620699411426822
Zr 7.303860606135155 6.6168136234173085 8.944718541416618
Zr 9.131271327497632 4.483914273429142 3.894093988442733
Zr 4.634670581326565 8.07913578665568 9.945110710746576
Zr 9.49793389321623 8.293047525586573 10.36646856294676
Zr 6.021203050495572 4.554901589170726 4.149801700901291
Zr 3.596542903246041 5.390822044492869 5.64828630128464
Zr 7.946225075566887 6.860028563064739 5.166742775179882
Zr 7.338363193383452 6.160147250085897 2.2830910079301567
Zr 2.743301841887071 7.246066677528659 7.8925314467438294
Zr 10.848704578959545 6.3165039045769955 5.539634283651737
Zr 2.987624014731084 8.307016061221544 5.351558846606001
Zr 4.876497354780629 7.2015170107566275 3.430149719682771
Zr 5.5207338827081065 7.353466299527009 6.654426109581885
Zr 9.560240728762153 8.166237813526093 7.568455613376078
Zr 9.87794875260866 7.15867522976601 2.8776203214483282
Zr 7.08272335391496 9.67524967810496 9.15341838371471
Zr 9.98889195521601 9.106134514903896 4.911992726366151
Zr 4.356398897221923 9.865047252217744 7.561455244661538
Zr 7.4589226608548325 9.044429471646449 3.2269547699571457
Zr 5.148394023174523 9.897825677660578 4.729090995597074
Zr 7.49479076807704 9.99764394955978 6.204346499797778
