27
Energy = -193.79122448 eV
Zr 3.497540079646869 7.781370207940312 9.424108298310532
Zr 6.173283707078873 6.839693674090256 10.723073866494206
Zr 5.65652096778619 9.752867196675961 10.078133406170261
Zr 4.573375058242222 5.12619607429675 8.530123701540852
Zr 6.928881879008544 3.982962311687906 10.10992825887522
Zr 8.515547410780478 8.683057900307743 9.589954469399556
Zr 3.966021431861377 10.038740106127973 7.567258858576749
Zr 3.410523547030339 7.192164901445196 6.37603007581759
Zr 5.8634860017452635 8.023394840187684 7.833678860836087
Zr 7.744631010138511 5.940990427481676 8.204889780824205
Zr 6.9827097708403825 10.771806791709558 7.575008319147121
Zr 9.168753925585309 5.933473172053585 10.643464612952576
Zr 4.25496037420401 4.248738363657295 5.742717407135214
Zr 9.890375278774371 9.738762706264996 7.258419135971527
Zr 6.760267655319771 3.2381659617351275 7.175147941908991
Zr 5.333114820987744 9.267926475807574 5.023679324250696
Zr 9.51605455572941 3.844526958394657 8.546795672185045
Zr 8.27310333829759 10.426715962927146 4.904124334412722
Zr 6.2834557069404635 6.19451152109422 5.552588050950165
Zr 5.123737429272289 6.266010637783799 3.2544862977844624
Zr 10.549870386681956 6.760523649948659 7.9745104149463115
Zr 6.720692299528109 3.7163640191254945 4.205480928841255
Zr 8.257048588731386 7.788884154128538 6.032793254527393
Zr 9.304775261477914 4.80904547783713 5.740613186200678
Zr 7.400169861696462 8.426060281458698 3.096199893316166
Zr 10.244021625953723 7.994966818881838 4.43632869759745
Zr 8.275307359044572 5.868024591986965 3.1808286561332464
