21
Energy = -148.06919465 eV
Zr 8.812127458993967 6.6121160718573675 3.8996347962442854
Zr 9.861330440958548 4.59279517824724 5.4489446413816935
Zr 8.00142445089544 8.959223822346772 5.644093632392617
Zr 10.223523244927943 7.391223412532513 6.428770737112656
Zr 6.985521309154694 4.244382478868648 4.356403188135263
Zr 9.793096075947844 5.189576542356113 8.263080108773995
Zr 9.334409294559912 10.428441059057212 7.520713177454643
Zr 6.118344246665572 7.206156982309745 3.9890757041634632
Zr 8.20300853068932 3.1167620642584972 7.063028794544249
Zr 7.279943957905155 6.022748312365587 6.655992876652835
Zr 5.543986048869828 3.4835873931260526 6.946381735718836
Zr 7.102565803728703 4.8512717332857775 9.385847391364083
Zr 6.530245545512306 11.309206456996375 6.529895767050656
Zr 4.341627746775151 5.6276870258138265 5.426264273019903
Zr 8.579431974066926 7.721482003194635 8.949682648279882
Zr 6.994806279845518 10.09642388352641 8.992019891942233
Zr 5.319093540137013 8.442535314313481 6.573197130426758
Zr 4.3864619697103135 5.404487436766338 8.40036496481581
Zr 4.330204485694475 10.32913047906089 8.457702786023996
Zr 5.600482269719326 7.632574243377082 9.647127916619443
Zr 3.0856278990503805 7.704071899494668 7.914692296305631
