20
Energy = -141.2628561 eV
Zr 8.244407296799473 7.800055486349025 3.4684204661623457
Zr 5.572134275480809 7.704664859489311 4.440624599190656
Zr 7.394671418481306 5.450879041033831 5.26340979007996
Zr 7.006007465987729 10.347925441825929 4.709854805496977
Zr 6.981319152112203 10.841522313434055 7.776844129878842
Zr 7.863227199037401 8.192065410621478 6.244614594247626
Zr 4.982156534708788 9.403594351108024 6.551554333119169
Zr 10.205092914314976 6.8028183286018535 5.192824380739661
Zr 5.081696694274917 6.530701778860802 7.272311688985917
Zr 10.857581150874577 7.170239844853015 8.226765834620279
Zr 9.566731261526447 4.993598502700366 7.244524904568405
Zr 7.854787059073412 10.224955135192474 10.342702024447041
Zr 9.791036057751874 9.925418990540301 8.037087988054608
Zr 7.845526848167378 7.558364997187789 8.753749910698462
Zr 8.990917631923036 5.469139617866623 10.232015856365965
Zr 5.280782526809671 8.796615851303383 9.441780007831156
Zr 5.833119703947413 5.879900987851137 10.131765115126772
Zr 7.02217587567684 4.499330805616853 8.092605923719406
Zr 9.99812802933418 8.376159567732536 10.650676795056372
Zr 7.314562862491458 7.718110646604698 11.611928810383432
