22
Energy = -154.51034816 eV
Zr 5.157553817181607 3.3569820696952597 8.773994506718106
Zr 6.940163950838948 5.285307983779498 9.697917245028973
Zr 4.044355943030168 6.090430137166454 8.923685924864873
Zr 8.212596263389718 7.754829305560667 10.355328628773108
Zr 8.017524310500423 4.02738027168886 7.2723882838198195
Zr 5.421403933122022 7.786385094460676 10.436406383363732
Zr 5.360900810286102 4.586031360039471 6.2824654837986795
Zr 9.595479995643243 6.256024942861203 8.386017520076035
Zr 10.381520266094777 5.183211591170358 5.794321939188553
Zr 6.561703510017806 7.3864387852844455 7.319937620488402
Zr 9.296833136033076 9.303747509719452 8.276672810791782
Zr 3.3935157810833125 6.856061472765854 6.417257331996539
Zr 11.617074143860627 7.604210891021919 6.4323184522911045
Zr 6.7617489483468125 10.003254496205784 9.43007115322429
Zr 4.3120625213422015 9.274366560441079 8.089470858983944
Zr 4.5686208688404095 9.139544488098624 5.269408464530927
Zr 10.139469952065799 7.1058007452815195 3.684934447068249
Zr 7.758620266462639 5.484527291057352 4.653849348105754
Zr 5.144083617360175 6.564611914709499 4.292483679409758
Zr 9.078315157847705 8.19568198870899 5.857297220996332
Zr 6.815090273622662 10.364271912995017 6.594079691460182
Zr 7.111123349012596 8.515235221126199 4.044800531721213
