25
Energy = -175.84872414 eV
Zr 5.499953787843776 5.861385919586504 4.6353185945378605
Zr 10.022263107390573 7.708371146358925 4.004300754772773
Zr 8.273864405414088 10.47550838673184 6.016157004257939
Zr 8.081065814130783 5.123256403893214 3.944068806240471
Zr 7.19255324294945 4.695498623358468 6.764972844568585
Zr 12.537042252341411 6.992408291643389 5.153360484794007
Zr 5.639573075822049 9.821770462351818 6.2274533365129665
Zr 10.180290117279627 5.481818388312809 6.020452492207012
Zr 5.114158567678221 7.081021557264059 7.20541168720175
Zr 7.708930424647004 7.470967428050057 5.6557901212271755
Zr 12.419507681236652 6.451451162420956 7.747857659202817
Zr 10.470315042714224 8.437873485225706 6.8282942517025775
Zr 9.73370930355657 10.975574388769877 8.313453702988445
Zr 6.812292847541466 11.485614273220467 8.560625496677336
Zr 9.482278263381462 6.0440421535914055 8.710293317037276
Zr 7.5180305868744215 8.613783645624308 8.538834853660473
Zr 2.718953834561031 7.12517857829187 8.614943379237028
Zr 4.367692666447395 9.651477946393122 8.831401158808559
Zr 4.363447414907714 4.81818660923265 8.504590102308503
Zr 6.9062258982552285 5.347036654769211 9.591763084260979
Zr 10.488264356884677 8.546638620352592 9.731198353198799
Zr 8.621466445829688 10.416515570905522 10.810835722600192
Zr 4.97463265154268 7.179325625451412 10.469304277816159
Zr 6.020644044894493 9.84258187272084 11.037770174443278
Zr 8.017288456933354 7.517157096537386 11.245992630794973
