23
Energy = -158.51632677 eV
Zr 6.334318889226075 10.700469412596364 9.1247678295711
Zr 8.716902015395553 9.415444611247377 9.946958982091923
Zr 8.02392958919057 8.234072200237126 7.536894634270276
Zr 10.610326353617197 7.375959021407646 9.500879953504512
Zr 3.645923746666419 9.556022770630149 9.370862434187936
Zr 7.8053778094965995 10.86834035954828 6.7077330794990155
Zr 9.244396185807522 9.535131000156618 4.681598692662023
Zr 10.693947837249475 8.467515706929273 6.876473563937523
Zr 4.90657717874324 9.177824760574145 6.928542923585772
Zr 7.908600616065559 6.171813828735103 10.158957540924575
Zr 5.753577059711764 7.836446935703738 9.920154668028836
Zr 10.125690790951566 4.582649991654506 10.009756345414944
Zr 6.3528905338898705 8.637955084894456 4.676061883513861
Zr 9.81863058127757 5.422602027603819 7.320016808934165
Zr 9.126806060473381 6.512008745946619 4.888259812396612
Zr 8.031474225146424 7.88092759557515 2.6591322448043733
Zr 6.6190519619759725 6.341746290691184 7.089148649341582
Zr 3.452915894020418 6.868306379368517 8.220806090713612
Zr 5.222218886244591 4.725848600562352 8.845203340583927
Zr 7.812610818393893 3.579781719230105 8.611175241967599
Zr 4.298163956296933 6.183008376500416 5.593608046057069
Zr 6.428947609690784 5.755648647860588 3.772662650799266
Zr 7.41052115733723 4.015648170037033 5.816698338908763
