27
Energy = -194.57453055 eV
Zr 1.9635229111468537 6.721723552378156 8.31145846699046
Zr 2.753057613476934 8.785990412073987 6.5211192359321295
Zr 2.6453578084287495 6.0331595903810635 5.474415515469701
Zr 4.0401835059289315 8.8187203249856 9.304016244737053
Zr 4.061257704471153 5.844214178366978 10.108717731640212
Zr 3.4080450440851764 4.1728912901023945 7.730733651104717
Zr 4.7262094062363 6.7254355623721445 7.348971351319726
Zr 4.810213377887901 8.01260418959156 4.583139725078006
Zr 5.2900164628899615 10.167257669672471 6.737899801857512
Zr 6.618026615556352 7.148953846156262 10.23995483295567
Zr 6.757623129657813 9.962058952848967 9.397661992991894
Zr 5.172801381864701 4.55390115674215 5.339946884505378
Zr 6.237269466288758 4.476918470041884 8.751691366993223
Zr 7.105598515430928 7.953588026268628 7.336415296420129
Zr 8.280348202778473 10.58937918422097 7.068209667746061
Zr 9.421942511470007 8.557440721205529 9.015981557903405
Zr 7.65834947134733 9.153607825447434 4.587827446850476
Zr 8.993181173708148 5.488741504616469 9.170795544940546
Zr 7.060428050908292 6.206899638360444 3.896993791432822
Zr 7.747747183065802 3.663275785982556 6.426956170402101
Zr 8.988894196787882 6.382632944997314 6.249703302966504
Zr 10.493093663911134 8.922107850509775 6.065643605880498
Zr 11.384766292899556 6.716225889631265 7.985840501362021
Zr 9.678703374930947 7.3834477331259665 3.534923331739162
Zr 10.578620754963866 4.08054512465619 6.967526751718091
Zr 9.537523268581339 4.473143495293064 4.149355847280701
Zr 11.719870633990496 6.20369251555223 5.204579169698653
