21
Energy = -148.31853097 eV
Zr 11.402168912158084 7.148614197979383 6.84890581013172
Zr 10.438408879677883 5.0227175119840135 8.906922793661897
Zr 9.905345901599874 4.85940001331185 6.120719915721442
Zr 9.197244292467364 7.374255439502029 4.875137168707886
Zr 9.089718912128511 7.056483036138016 8.047874308769586
Zr 8.82378997724691 9.611856053556673 6.966589551092574
Zr 7.773084241149609 4.159028408403438 7.943670704200116
Zr 7.399772489151051 9.705111026554798 4.885654862018401
Zr 7.239799801296396 4.936355673215081 4.958304271016899
Zr 7.473756676664738 9.131603044123732 9.484222154111807
Zr 6.29824029583762 7.1800098065438 6.8882459732424115
Zr 7.361672170658972 6.31188006053763 10.105342920583762
Zr 5.764506105700004 10.136560835952341 7.3738903859296645
Zr 5.201645134528938 4.074496212416753 6.6169971337653
Zr 4.300432481732414 6.136147609166522 4.854284192247385
Zr 4.8122741593417135 9.080137337645317 4.755029200567724
Zr 5.331393792524759 5.027116957684438 9.337916579203956
Zr 6.603207739982947 7.264077231585989 3.5863769735656055
Zr 3.4502495352186586 8.404558092684923 6.849051661899912
Zr 4.80855967712232 7.984035334674234 9.416312199865581
Zr 3.4337227166851845 5.966463717642548 7.710677368136922
