23
Energy = -161.87357503 eV
Zr 9.477557602375335 12.376426192005837 6.339183365735403
Zr 7.9800501527885235 9.91069590498125 5.778992057213963
Zr 7.843108236404071 6.71077460168913 10.583841708780254
Zr 5.455242125903081 8.266620590759615 10.684921592040373
Zr 8.037712850536117 3.6198352903131394 7.02528099029037
Zr 4.764811351069937 6.945460382561269 8.169953350232314
Zr 10.447509110348797 7.239651196412168 9.226220476759961
Zr 6.051056924313181 7.679825662329321 5.267882786655602
Zr 10.356689182713373 5.372131483058177 6.438846677868521
Zr 9.152302066079404 7.551560774652771 4.525645385089977
Zr 10.64683223737019 10.237085294848898 5.0558224921829735
Zr 11.21837946373256 8.015873612486482 6.568384666773448
Zr 3.7041088319745277 9.749647689976024 8.919703662964578
Zr 10.121630082012512 10.10075386411002 8.107617029778845
Zr 8.334869687456127 9.525137969102795 10.314739252011597
Zr 5.584694912962012 4.970028181944998 6.430211789528084
Zr 9.300398635691485 4.676640890646002 9.268170933121885
Zr 7.980546998938057 6.826049824976624 7.437345806653337
Zr 7.80711318289306 11.841345922861008 8.432774371990012
Zr 6.314839137464138 9.370296169962963 7.976437266498924
Zr 7.775096632178549 5.231061005563172 4.734853368304441
Zr 6.397203969102056 4.61212083550541 9.20564921136692
Zr 5.76993399788595 11.01861369856089 10.479656527718156
