27
Energy = -194.49115538 eV
Zr 9.11895570967311 3.3734331235738275 7.850399296243071
Zr 6.638917018911341 3.904659019414998 9.34212144580813
Zr 9.086365189885793 5.2318270767146755 10.140603240977637
Zr 8.828716249510782 7.4985357544407965 11.918149216722567
Zr 6.337877174112867 6.549396293525863 10.626303132645317
Zr 6.441588951355089 3.1998627356590226 6.6085912905788415
Zr 8.874219147748164 4.216858927732749 5.191912510464447
Zr 11.094176873966196 7.44182838726165 10.028307638855143
Zr 7.585126633777969 5.755833028249706 7.297615921820248
Zr 4.696591628333092 5.986607763781 7.637944796419547
Zr 10.304218490873213 6.641138614526893 7.148688552195226
Zr 8.359841502022647 8.084822092522995 8.939315974428185
Zr 6.9073329241843044 9.514327145837699 11.084211995410023
Zr 9.78663960296034 9.9677335194239 10.833988884887848
Zr 6.235368448201598 7.918252317013879 5.854202844183563
Zr 3.521411773379773 8.737315248495607 6.718227939130615
Zr 10.765309794110372 9.618328142616376 8.148248686164841
Zr 3.7703460441051804 6.621277121785722 4.731460003183251
Zr 5.376903229923241 8.89166263154255 8.800092659594311
Zr 6.305526019521306 5.044730254400846 4.345115554229345
Zr 8.594903828834875 7.03271679708265 4.119908033306742
Zr 8.930449775539653 9.400874076136834 6.071979184981577
Zr 8.004629809170373 10.928057691679115 8.619521121342894
Zr 4.353922755922319 9.460590743960433 4.0764025817202025
Zr 5.865354880902754 10.733537348742335 6.338151534145717
Zr 5.907358017445062 7.415209124591092 2.838326481045663
Zr 7.263203944007508 9.783156351507966 3.809694851665738
