26
Energy = -187.53719598 eV
Zr 8.652438733338823 13.96534988039704 11.900825585876753
Zr 12.554366097523129 7.947161355004204 7.5867244398724685
Zr 10.067513482977423 12.233366841898476 6.835354614527041
Zr 12.78025047410512 10.948545161219007 7.614307019259169
Zr 6.924586874739145 8.89557471843658 10.035821851290585
Zr 7.776517918554154 8.046793493138573 7.340035750249965
Zr 7.836921927654637 10.924967782491448 8.12205735850255
Zr 10.024779739305014 8.794334082658748 9.243456072554377
Zr 10.229627566425018 6.539851788742657 7.30164013091029
Zr 6.705003669524537 9.685778269851893 12.932168306896477
Zr 8.834698561541567 10.836210684445664 11.411665913365988
Zr 11.508143943482793 6.587027698341874 10.10159602529796
Zr 11.191561508902632 14.290324386550676 10.928485216902933
Zr 10.239685896419935 9.441854006849185 6.346707634335367
Zr 10.740077165881582 11.497269194667128 9.695209474014097
Zr 6.449478384113709 12.082134905817908 10.952189971745653
Zr 8.480787309311161 6.301735150154762 9.575128715886233
Zr 13.201389438120387 12.061389681306704 10.669380715583111
Zr 10.920673004925115 12.312159422341294 13.103069041427718
Zr 8.819977978069275 13.744311149858147 9.046284076346364
Zr 11.59730158350534 9.455656256706844 12.13778765602091
Zr 9.41352750570438 9.865005864243594 14.155907945347483
Zr 13.222602386284544 9.182311999938745 9.935321013401406
Zr 9.051601221779192 7.848271693616286 12.004984887792544
Zr 7.819580045307814 12.223807601540095 13.780628541013126
Zr 11.888108006392805 13.7404369491414 8.322560112828322
