26
Energy = -186.8185135 eV
Zr 9.38508435711645 8.067972606872035 6.892198668047867
Zr 11.020835541728708 5.476187478697485 7.000908310917018
Zr 9.641120900578786 5.926815463158075 9.266365404933131
Zr 6.150332786167442 8.864507605379803 7.258535683083243
Zr 10.04986026097782 6.387293162662604 4.477123121036742
Zr 8.54228757276194 9.80672299490565 8.897420148518098
Zr 7.749094285996768 7.986705728870953 4.462524029932077
Zr 7.761340007877626 10.757897591238436 5.872833834839311
Zr 7.828742331530453 5.3479871103038565 6.715951195283774
Zr 6.511591792554199 11.73472758021357 8.39794144777868
Zr 9.373203756688515 3.1049698244436463 7.960858666462164
Zr 10.013478761454689 3.7041593845591527 5.0770206643233315
Zr 6.0064342451993795 9.646734247123371 10.335559082124195
Zr 7.676105862237434 2.4516149206958526 5.415355985413101
Zr 4.771536358255689 11.432607256770993 6.168065492058505
Zr 3.8415415568807307 10.553951585234064 8.676265330694095
Zr 7.108628126431122 7.143783814392002 9.438585196682707
Zr 7.513843677084594 4.935118417554022 3.7351764812265165
Zr 5.2875376934394325 9.485497567008919 4.370843187144677
Zr 6.328457634778189 2.7191082996725133 7.815689188253911
Zr 4.083612714600255 7.758159393482049 9.182882437701887
Zr 7.276232703063219 4.401161008224457 9.751752781805202
Zr 4.80996865230972 5.224446574098681 8.004609692285598
Zr 3.248060962628432 8.861900360417597 6.397502320558373
Zr 5.19132803082055 6.714454751097591 5.40494474487936
Zr 5.294696979174825 3.918449011068378 5.449188236553235
