20
Energy = -136.39682994 eV
Zr 6.067185284443551 6.5599535756346725 3.543415416103784
Zr 8.653112414382603 8.427032466055211 4.114226942963866
Zr 6.096638821770999 8.723658681545698 5.269079641855568
Zr 8.390445493036218 6.097586414335731 5.575712493146457
Zr 3.7159164147140205 7.048191406047789 5.478704854188539
Zr 10.896056226952558 7.826385341020264 6.120288086531481
Zr 8.82021297511966 3.7034665687448554 6.977529831480303
Zr 5.813590134635256 5.397699134203969 6.208795627969719
Zr 8.32418857528763 8.851582092198814 7.177926483643927
Zr 11.000316882597193 4.903656240379539 5.5727685825674635
Zr 5.230223440471994 8.386992154142991 7.856434093861197
Zr 10.259599352887925 5.883426393028227 8.160440896867279
Zr 4.216356071433637 5.911336413756649 8.477192126677256
Zr 6.024319023616639 11.069843251886773 7.88795372278685
Zr 10.375097042636938 8.675792569719778 9.026780327519827
Zr 7.3207375639032914 6.085389090676914 8.62742036403716
Zr 7.3860500587026765 9.562671486667028 9.92329409316692
Zr 4.574559695282638 10.034461800123115 10.122410183605576
Zr 5.705237022575658 7.362377517011501 10.751168037717456
Zr 8.761856155224306 7.1201960524951975 10.760156842984202
