22
Energy = -152.90005009 eV
Zr 5.58510652921352 6.206131065989219 6.9669510450544845
Zr 4.929216149812342 3.420222005459732 8.27102728422824
Zr 10.404670010612557 8.191415114878188 6.165270150792969
Zr 6.200006331256054 5.266828804649284 10.088868994271817
Zr 3.4531091547888604 5.449860227534783 9.34910412116516
Zr 7.837617214209414 7.614604677659679 8.102718161491124
Zr 3.591311973624152 7.861935829559077 8.2136599089312
Zr 5.449903431623186 9.337461103913917 6.52266627329155
Zr 10.438167765339287 11.117504844886975 5.574035009421234
Zr 10.555580714970437 8.108654261916527 9.133133943458771
Zr 7.930802340272308 6.022161898387769 5.146161050392619
Zr 11.816752668859642 10.36745042760911 7.702202836405906
Zr 10.195326866438727 5.700731968639653 7.463979369758905
Zr 8.96232004089326 10.2632170971682 7.86971478810374
Zr 3.4026961007174092 7.709848750299635 5.2661996132254
Zr 4.8836098228308344 5.46963581298873 4.041611370998893
Zr 8.065991958313766 9.215006690736342 5.236066667360894
Zr 5.858789795529699 3.584280684172398 5.642905913291908
Zr 8.987893680655095 5.7173739384963165 10.005377927823274
Zr 5.823797119317566 8.019047406508571 3.971405546796883
Zr 3.0378980434269183 5.075328534253 6.468069550508638
Zr 7.800988189262827 4.19145859155932 7.830726268723309
