24
Energy = -169.18781139 eV
Zr 9.287132283228669 4.067583219136055 7.605761909533382
Zr 8.966927424409876 7.069036482022011 8.01675954507108
Zr 8.676521458703666 4.919123556356812 10.060985639551456
Zr 9.988368291170396 8.701995453868639 5.8280336520391325
Zr 9.047654357537352 5.860265915136474 5.159317999300763
Zr 10.013016548941986 11.521990024288916 6.241748109500077
Zr 8.453572068194092 10.57358850483856 4.096069094680475
Zr 9.549121517642769 9.81987675433139 8.637334200073283
Zr 8.591520221948791 7.872888521248891 3.1507946623939644
Zr 8.55126005625631 7.75106924492102 10.754991702820236
Zr 7.387749859317012 3.488389843888339 5.686559368731917
Zr 6.531240167136176 3.47918199051684 8.49923161999881
Zr 6.112451954513252 6.094320778861717 10.427810032163285
Zr 4.528565310539809 4.065479622219023 6.005091395507947
Zr 6.900651171925059 8.210271230869337 5.290047984870658
Zr 6.473199739805473 5.453454194113071 3.937188472309871
Zr 6.114334656309419 6.154338316631619 7.175375533444449
Zr 4.0105790786920075 4.72013442704386 8.91719584052955
Zr 6.513592407525314 8.920883886642152 9.021034112628612
Zr 7.425195952467909 10.610183733225773 6.8487087488520775
Zr 4.00972741225574 7.572756211344 9.240718806195328
Zr 2.8798855687168934 6.352718934005667 6.957627559679489
Zr 4.421361178642137 8.857172968261999 6.7437287795895795
Zr 4.254983182707522 6.887259394413131 4.605948987640853
