24
Energy = -169.73431238 eV
Zr 7.097612331905578 5.507726898277405 10.42778383119115
Zr 5.977807151470577 8.602910207459626 5.60116074905411
Zr 11.08770928824524 8.18071428618075 7.657032468828815
Zr 7.04793927040267 11.056392702729692 9.636360402026247
Zr 5.874312877772459 11.289553391617261 6.744073139012997
Zr 9.123953618130857 9.836901492406698 11.900429449006344
Zr 9.709209225996238 4.9552036908974095 11.095191544176203
Zr 10.74259867474504 10.822202968511233 6.132133902093399
Zr 5.068842039328593 9.22757096305056 8.30429064421408
Zr 11.602627189696427 13.061644584931486 7.862955615886444
Zr 9.184253539165088 7.7837370366144825 9.922505303950908
Zr 12.411179686566257 12.081326120591436 10.40240545138419
Zr 7.8872235557925805 10.67004057638997 4.858574646104014
Zr 8.140445769995369 7.056382952705168 12.652450763349389
Zr 9.17603903945515 5.527507941740963 8.182789156053614
Zr 11.789724522548106 6.2366180397778495 9.704217186289966
Zr 12.907745482084643 10.507699364731423 8.082604460868568
Zr 8.501946891661813 12.334218750341389 7.143098749068729
Zr 8.128038850212103 9.222364947178583 7.388796719280293
Zr 12.01352008710525 9.096966897158635 10.566827542236464
Zr 6.370823857991871 8.411616507950564 10.827204613838061
Zr 10.90596407273332 7.2945096036661345 12.373459653663428
Zr 6.336085747296762 6.755647702545699 8.193700608993996
Zr 10.067882998723974 10.901451994096181 9.18105243153726
