20
Energy = -139.53002547 eV
Zr 8.919023185901032 7.807161335105907 4.312353146033239
Zr 6.248388630523521 8.43235215008551 4.398743972880105
Zr 7.00191260598476 5.683583421985435 4.988884269742622
Zr 7.833064254577283 10.504082834175755 5.783104536992914
Zr 9.429535718124288 5.467836117710946 6.201519310135827
Zr 10.80267950747942 8.012993306669204 7.034905860004728
Zr 4.701082239821399 6.819933014809897 6.26398254045407
Zr 5.229964281459125 9.665341139643662 6.774390903229214
Zr 10.55357260591173 9.951478504113844 5.117153342901137
Zr 9.87828856661548 10.757182554807923 7.816527689583699
Zr 3.84917488859025 5.057488641693446 8.445222101918535
Zr 7.708268875327288 7.860240168605839 7.210304920179243
Zr 6.807009424499046 5.216093898269251 8.087424934716367
Zr 5.004693907333565 7.740860076805241 8.990613114519828
Zr 7.830410852423165 4.454959909348872 10.72367171384504
Zr 7.141742931195343 10.183740786112537 8.928959248329525
Zr 9.673616508207203 6.028614818363153 8.995627800793335
Zr 7.356551427548801 7.346672170791509 10.414245444692266
Zr 9.683566625987998 8.78657727619783 9.701697089188958
Zr 5.243346318158234 5.11870123037264 10.706561415528125
