28
Energy = -199.65752089 eV
Zr 10.36854988741328 10.011877437790973 7.2405902475252155
Zr 8.58778630052259 10.404139660502423 4.78561715590709
Zr 11.442977155453791 9.919352516579755 4.52919048134043
Zr 9.17459632476822 9.694762869445062 10.018471530954681
Zr 6.905159637045551 8.205520873321426 3.312641869561005
Zr 9.774108320355841 8.334133845977924 3.1042789186311954
Zr 7.532987822783496 10.537939541397243 7.719728807274411
Zr 9.915865053042616 7.42259109985968 8.471309494038016
Zr 5.81781375049987 10.04245988648382 5.279770902141
Zr 10.863979791774344 7.438381508935891 5.816527653019731
Zr 4.82083595643192 9.174636841139343 7.84494128777336
Zr 6.3217809510356275 9.985864198234685 10.287630378217234
Zr 7.256915495317873 7.440099315448865 9.512504263553849
Zr 7.734321801727072 7.789413317642984 6.094079873244221
Zr 9.039518962077713 5.829504934231936 3.9862698080325822
Zr 8.730440542271417 5.090847117355647 6.814474273291889
Zr 2.888310304273529 7.041197000135324 7.704019343162731
Zr 4.271750856660133 7.606471886027337 10.284262154830758
Zr 7.818051927063999 4.235868862746296 9.443489964865211
Zr 4.580763280954797 7.420073161757201 5.333841942856639
Zr 5.697966318725367 5.241339783407396 11.013861542646724
Zr 6.274945007292662 5.2648979949228885 4.904698629500873
Zr 3.7112129119726553 4.2440213910051945 6.745293236678165
Zr 8.168481913716326 3.175613864929964 4.4977848265285765
Zr 5.6938468981320005 5.850579685834911 7.9099983952711845
Zr 6.557522225480889 3.0214647921413347 6.898626148694332
Zr 5.095177400881734 3.0527309651218832 9.263829657366582
Zr 3.1622579760720484 4.969863351164347 9.588003722987027
