25
Energy = -173.50220514 eV
Zr 9.783676234703574 5.713400386302072 5.743105463954124
Zr 5.0116572927934016 7.101813496588726 5.503777978551873
Zr 6.959939129523781 9.818295684962953 5.460787506371547
Zr 7.345285582242175 6.581673896362848 4.293730930608639
Zr 4.077570896995754 10.374276218376249 5.918506481956496
Zr 9.649209325869467 8.262682184022529 4.667720690271861
Zr 5.074579847123882 4.335686161279771 4.730312255895466
Zr 5.680552790267319 12.466470858303605 5.797487516882124
Zr 8.054648605821129 12.3898756070294 7.033221592022379
Zr 9.892237160079974 10.332975805650312 6.2470739779128515
Zr 10.000287678190064 3.197823703562647 6.97641483714155
Zr 7.114966727059044 4.487035477774322 6.720907931542366
Zr 7.8238389239803805 7.658757115148937 7.169957860986017
Zr 10.766121024406447 7.911499893602047 7.584432201947485
Zr 8.376516257706616 2.320942461122814 8.683356824769524
Zr 5.9067922065568235 10.851595810188158 8.207235548589393
Zr 4.104804202606091 4.83696924586093 7.209330148748395
Zr 4.721778385796166 8.349694669067166 7.899614270876042
Zr 8.92013228508396 5.338203312604285 8.786824994231445
Zr 8.916955604663418 10.162917672009941 8.887264916977427
Zr 6.319658063184603 3.6273660875883498 9.643821689113917
Zr 5.5720022495871495 6.13719491624529 9.325010662596872
Zr 6.948480109554153 8.49105983526504 10.182019439467563
Zr 9.686293405038569 7.7508848388417 10.35952018212669
Zr 7.665075354490327 5.873964005563986 11.341623439782659
