29
Energy = -206.6803841 eV
Zr 9.388650635444423 11.236936335149078 3.8903771390000994
Zr 8.70607435227682 8.616573958695843 4.089435808265529
Zr 6.325707216773476 10.291927254432187 4.455803004636274
Zr 8.061907738339778 5.839479265585722 3.9209186930176503
Zr 10.928851475344919 9.885768037556737 5.807056035040028
Zr 8.12506983781987 10.662614091117833 6.430093364304083
Zr 9.918550545127964 6.540170518570634 5.883939933639208
Zr 5.7458759974325515 7.452609436613405 3.237240184092191
Zr 6.587558201556421 7.653951507991811 6.075865467252874
Zr 8.181019640002596 4.252842663788456 6.41516133907211
Zr 3.9511660416063736 9.069086844813416 5.091523692809075
Zr 11.88334667392189 7.460848007552024 7.729276313747534
Zr 9.414391570711208 8.684073843803958 7.9883904408379145
Zr 5.578631230222023 4.795314700275669 4.884897613188475
Zr 3.3251586123868138 6.4960933434168195 4.6901967587306626
Zr 5.163956468455903 10.008518709584232 7.468415364435761
Zr 7.340236514554982 6.492206239851712 8.76222380774903
Zr 7.261770906228981 10.043955387723353 9.276434988119393
Zr 5.7218782123821414 3.4671695233029833 7.444647895614688
Zr 10.161322011016003 5.075828848892679 8.518530879932495
Zr 3.3417120983625104 4.600708598241399 6.828310642677322
Zr 7.90369978309569 8.195063054478203 11.271225584895754
Zr 7.358756476593525 3.7023477185848286 9.63325273648717
Zr 3.6586458335936234 7.328311051447291 7.519592587704017
Zr 5.1388918725779495 8.141371036647978 10.00640777012443
Zr 10.629248573226626 7.473967774407482 10.28984561425092
Zr 9.079618646340611 5.429100523686446 11.161996433831444
Zr 4.539089318203122 5.175745263094215 9.503916952824765
Zr 6.328821566468606 5.842439554180417 11.563472182713657
