29
Energy = -207.74383872 eV
Zr 7.91231843823248 2.978927016987678 6.903032738071538
Zr 9.595979325286013 4.439178003343197 4.93769335330358
Zr 7.267014866718942 3.9297709865028265 9.569251888829065
Zr 9.394022040248299 5.381506463134038 7.697687423084792
Zr 10.795715884077444 7.05182233161183 5.357422544918232
Zr 8.463249367487311 6.160851418687519 2.9027279195045974
Zr 8.472273703749952 6.583974323353878 10.326552505522075
Zr 10.33825151550964 8.244012858694541 8.104073335963603
Zr 4.987261910169839 3.176987240092336 6.898866984775732
Zr 6.668415844792771 4.3432608388098055 4.6079476652612055
Zr 5.6191480860002 6.733707857674294 3.253603940996097
Zr 6.2447815077391375 5.721163642358435 7.5012780837115045
Zr 7.90029883145185 7.181618054146544 5.559391307366234
Zr 4.38586140089625 3.861519845489733 9.496480635655882
Zr 9.691608076003075 8.602436754626774 3.183882401137363
Zr 7.440222193358767 8.387482922204969 8.291701661217074
Zr 3.398810212309687 6.093079705214976 7.940555492492032
Zr 9.287922653776409 9.361288264915883 10.57479484214581
Zr 6.9483181877325455 9.267362289865577 3.7592060358004957
Zr 4.840110517939502 7.983793660454629 5.78271136337617
Zr 3.9322598272077123 5.268158422720948 5.205353195297118
Zr 9.37344040593182 9.832100874302208 5.646265536802069
Zr 5.391083232673705 6.30074741226451 10.35553872721352
Zr 6.464757043869808 10.4486623410532 6.484946165536148
Zr 6.464943574050262 8.82150513131045 11.208822450270391
Zr 4.588991151493542 8.778209279373998 8.702232642878768
Zr 9.002222818334982 11.080405159045691 8.20555895659073
Zr 6.270446941362932 11.066937460075641 9.314048392725484
Zr 8.032463846298208 11.578846648049993 11.177761214788182
