20
Energy = -141.3970034 eV
Zr 7.629596561542709 7.8417836726447465 3.865920619074634
Zr 5.422989210095141 8.80754788448052 5.30466012298358
Zr 10.460761959867385 8.501060341487799 4.814395115228314
Zr 9.156934897048414 6.120067876339474 5.363692703155074
Zr 10.692927759659819 10.027511900145162 7.247045812386057
Zr 6.3457298656413 6.134162767463445 5.959847277349594
Zr 10.856980635048933 7.0844884440325195 7.4417711270357225
Zr 8.149396685010819 9.844030080413907 5.939390494466789
Zr 8.552252515377905 4.869090793447284 7.801859756361329
Zr 4.574011134433851 7.967410246599207 7.95273256930486
Zr 5.715187351090417 5.280555626314645 8.542615448463875
Zr 8.42345962141825 10.69151308299321 9.031916262617138
Zr 7.7447201738521345 7.759303362794736 8.367273407031966
Zr 5.903499035284391 10.518652693472676 7.489715234706378
Zr 10.04124149203097 6.279613062338965 10.07241586029926
Zr 10.632344842213545 8.89589084477949 9.725254858568729
Zr 7.612080260741977 5.433375147084896 10.566686440973948
Zr 5.481368968945319 7.158286855700153 10.645443973302463
Zr 5.848442102517125 9.75476181694165 10.04899005002719
Zr 8.203876826938938 8.478695399285726 11.266174765423036
