27
Energy = -193.6436843 eV
Zr 11.717750886706597 9.59467406644252 7.537325031960729
Zr 11.464596189486892 6.600079825284781 7.231316771653049
Zr 11.287867598222224 8.46170329224028 4.8620217702115385
Zr 10.2071908461846 8.145460256360165 9.598289668836616
Zr 9.813682089778435 3.916825710938984 6.9393736511985065
Zr 9.489396565377023 6.14254253022327 4.950268227346569
Zr 9.248753199666554 10.781782174022371 8.593278286512655
Zr 9.937096259358935 10.989454775263628 5.686170791343904
Zr 8.702224322602204 5.885179522095995 8.353446290985932
Zr 9.11625852455583 8.479226536172833 6.853725124498132
Zr 6.789999757250954 5.8597913511124835 10.53050652550061
Zr 8.348834890724412 9.188468621761983 4.015940399681971
Zr 6.945390407175715 3.5126553359809827 8.756322911479046
Zr 7.2613616156684175 4.063825741912422 5.800984678815431
Zr 6.777570391053854 7.475854787705333 5.893707364536613
Zr 7.151468258759094 8.692317552514151 9.167881256229798
Zr 4.070335913222368 4.651154441777822 9.627426680695946
Zr 5.404924019280962 6.144674488639328 7.71504435178112
Zr 4.719288824122661 7.67520422930069 10.263627942674246
Zr 4.850327806199951 3.2017648278547552 6.93849831062162
Zr 5.146397845184066 9.162460737701084 4.526252623329778
Zr 7.013281364462321 10.582643538751626 6.38607734272905
Zr 4.878468412275254 5.322476105187329 4.745896664715447
Zr 3.1901209619152175 7.486116812385248 5.747667582533246
Zr 4.539022173165017 9.293273210651625 7.581985728369768
Zr 2.7268951648602275 4.889797629806619 6.83708738880485
Zr 2.6400379813030495 7.186647511603982 8.52391960499922
