22
Energy = -154.49258084 eV
Zr 8.820995578004158 7.0106993234723465 10.572125409923242
Zr 10.222992556150427 8.604577429252517 8.618872507537002
Zr 7.521039315613929 4.58430887308938 9.326815923206532
Zr 8.634380069206731 4.476997640976099 6.4249073450248
Zr 6.173976864269051 6.9289672014950145 10.721886962304819
Zr 10.171508167963223 5.564425479619024 8.691890878424344
Zr 7.138405548242673 9.374768252240937 9.639757729729572
Zr 10.65022624189111 6.717411079786943 6.288184669854373
Zr 8.642416640774384 10.888208501915976 7.861728715270332
Zr 4.6001828053677745 5.187935373237766 9.451174100209947
Zr 5.66832416923714 4.38280828700982 6.930041889098442
Zr 9.599415207429006 9.258133431885048 5.702858105529273
Zr 6.592211969060434 5.014326634916339 4.265245910369367
Zr 4.682893452579355 8.016615688945858 8.5386688077127
Zr 7.713722776831559 7.197088757890058 7.539403421956169
Zr 3.849807387951064 5.063632539595088 4.706630198788784
Zr 6.080041461914129 9.862187379653443 6.719874290495334
Zr 7.909844973858973 11.471707297454765 5.267922111470328
Zr 8.734948984593775 6.753091701847885 4.35485247121094
Zr 3.1142415591807877 5.859825760806494 7.212364840991167
Zr 7.0599181378407385 8.9712185844518 4.115269598280836
Zr 5.178895674918427 7.371384284723995 5.505448017545523
