21
Energy = -146.68408037 eV
Zr 11.024627363420029 6.818694237300826 10.266105915181042
Zr 11.097038381877555 7.814110701526859 7.584847675625448
Zr 9.418894041789182 5.4442254394183625 8.285255530614734
Zr 11.13329880360811 8.84846275224963 4.862053148256275
Zr 8.220897858880374 6.34355644534718 10.85575505524325
Zr 9.120446558944922 8.880550977476195 9.566628173570116
Zr 9.564852725923473 6.49920088107075 5.435007722531902
Zr 6.486995145091594 4.947622198260361 8.89992154434373
Zr 7.410307149587259 4.651058361611313 6.141928304411134
Zr 8.497933196012069 8.924884282843106 4.040693374910811
Zr 5.377744126859117 5.914187981291376 11.36032285176863
Zr 9.262252407084222 9.979605944595365 6.738508429628873
Zr 6.742463080024863 6.68414230026589 4.336462303166235
Zr 7.212924176489615 7.600426310081636 7.280594680437212
Zr 6.189560402567206 8.402926123691588 10.194150788449704
Zr 6.442047703454455 10.128747399275536 5.628476253489448
Zr 6.89560853776664 10.560887888041846 8.356282112499667
Zr 4.848487668952574 5.744725785771128 6.454135740938605
Zr 4.04363745953469 6.6636078913758645 9.049024558175006
Zr 4.460849997321759 8.187980659028067 5.074922398179373
Zr 4.552174334930534 9.158266849679068 7.734673618815726
