21
Energy = -150.22136386 eV
Zr 7.06712391903342 7.680945756135072 4.126783487328166
Zr 6.645916791374422 4.7329574131276475 5.157281910036767
Zr 9.384780515339202 5.852053057394647 4.233045952440332
Zr 4.667735524657091 9.317547406989336 5.131662661163327
Zr 9.807445756851912 8.539216980215718 5.382736224513065
Zr 9.257758511335673 3.8495724114220207 6.396983036649314
Zr 7.367178601265289 10.038473036450803 5.956852543801449
Zr 4.317093138332013 6.616051980140042 4.796990296854365
Zr 11.142037578681178 6.174954045700766 6.565815715035967
Zr 4.299107953052511 4.91706931265855 6.997136565810677
Zr 8.330352033771716 6.559915331576651 6.8711329643255
Zr 5.079746787382363 10.350089407178682 7.73108930312618
Zr 5.945227653931643 7.540825271878167 7.241005176450898
Zr 3.2317285076160314 7.754230206281388 7.508068930833472
Zr 6.928270392371203 4.274134431748372 8.26966681430056
Zr 7.608471800756838 9.605948031569948 8.943485560022271
Zr 4.7381977208325585 5.908839443245482 9.551438905720861
Zr 10.072583602880696 8.092172224821773 8.572681650898792
Zr 9.811817654523159 5.167227631166637 8.97787659454752
Zr 5.088002273484523 8.6004726262527 9.959568072380847
Zr 7.591180268435507 6.809060979955568 10.010454619669472
