26
Energy = -181.69306443 eV
Zr 9.175172227384301 4.590108589070656 11.353924217256857
Zr 9.405975960945376 7.530079307430907 10.82409793761351
Zr 7.015655947897224 9.121459745121564 10.073667294024824
Zr 9.658900670604456 10.340435608859284 10.100596957828621
Zr 6.951608053606519 6.116395231302489 10.123963494913008
Zr 9.578238471573762 5.353403860866025 8.623655086163927
Zr 7.7293469068766605 3.2812464378377397 9.549892009991808
Zr 4.3807570220201635 7.521515286369525 8.894011737964682
Zr 9.076860687863194 8.30574547346415 8.079836733578492
Zr 5.814459921791089 9.762289767184082 7.488254452259805
Zr 5.059873818615702 4.531898583351556 8.647387715275295
Zr 8.184546487962152 11.114885178637815 8.021387334048816
Zr 7.854069041346067 3.9665954957354885 6.618067630059758
Zr 3.2298429990998248 5.843171927135476 6.882333636642821
Zr 9.249458041005548 6.573746881612862 5.723514871580713
Zr 6.360728063418169 6.629400958727332 6.946267632804458
Zr 3.773124651985531 8.592696366329372 5.98477503403961
Zr 9.920875774417883 4.344016143625818 4.187206205253735
Zr 7.13028658524983 5.042194658363768 3.9911963713009126
Zr 5.779109654127107 10.591296522285385 4.71429819687042
Zr 5.042876472949888 3.917011667330995 5.824034431055407
Zr 8.51063382233713 9.491929280629664 5.484257840261232
Zr 4.065966560956025 6.2138374462949875 4.217018620992939
Zr 9.211610777047833 6.849917297028051 2.975056345121517
Zr 6.544027696437916 7.893919359140428 4.29400905474798
Zr 4.143581715843864 8.874608156163063 3.100731115776132
