20
Energy = -140.56212227 eV
Zr 7.111288979578679 8.14930133927058 4.15713753984684
Zr 8.432635816573534 10.424082460096173 5.506260565389217
Zr 8.556936828678932 5.568283596170785 5.374891349882733
Zr 9.926716793689831 8.061424453233142 5.139521334247752
Zr 6.52204004598727 4.525977817806565 7.224383903302177
Zr 4.387683653361862 8.041552214413906 5.784164783805886
Zr 5.829592351709466 10.43262278819934 5.887963455382168
Zr 5.741402325002634 5.74505422777601 5.108140796992562
Zr 7.355874671864218 7.865723707690264 7.121855082845666
Zr 9.16114665129094 4.29269878086147 7.970637163255459
Zr 10.494137009965 6.819421447918297 7.747275206473264
Zr 10.150472885614773 9.619684111960906 7.504059642055896
Zr 7.516327466072526 10.676053455099565 8.40808941906846
Zr 8.22575174699585 7.031011067885369 12.044639686577698
Zr 4.777713033082859 6.593434719799803 8.44987389433234
Zr 4.757970700165669 9.375521460931177 8.273885062465217
Zr 9.253037591257353 8.620938544740763 9.952323537438826
Zr 10.187640075253277 5.730473340609109 10.354811413507727
Zr 6.334407340831722 8.658048893811133 10.379993491792268
Zr 7.343502054562565 5.834969593264288 9.676370692876889
