29
Energy = -205.49044565 eV
Zr 11.861759235349155 8.038243974098965 8.105418754640015
Zr 10.76861005788397 5.981259739100965 5.916255299903796
Zr 9.879214048404636 8.683090863833812 6.105210518647779
Zr 9.746741610634434 3.783793955928779 4.348837116360721
Zr 9.509553371946497 9.786131136561215 8.887782011187005
Zr 9.45037128507376 6.739332669635433 8.426464111676664
Zr 7.678638231808123 6.3810771682228875 5.995781097977357
Zr 9.080001391433717 3.8119831029801103 7.224601851126367
Zr 7.540342352923315 10.605597556893608 6.087096772809743
Zr 7.887353713350536 8.871544232131065 3.859468744297247
Zr 6.9318910940582725 11.496965510939773 8.787927142868641
Zr 8.848606986345736 6.163399617206363 3.288430940138415
Zr 8.192213600523216 7.632725308047147 10.949248245902137
Zr 8.172513848856978 1.8517755345283506 5.409881085704674
Zr 7.692552660602273 10.520757235619488 11.16883926848031
Zr 5.539853667271354 10.534711793718568 3.9678961458685413
Zr 6.741640326753696 4.058771854286586 4.1984677862977176
Zr 6.911884103417852 8.459468526481626 8.292368531520678
Zr 6.2193175638300975 8.789895813287586 12.615641178555917
Zr 6.145558187006918 3.231931660906133 6.987726759441464
Zr 6.967056920473057 5.25120209399048 9.041385157318222
Zr 5.985910512832448 6.76296760298087 3.373376904380385
Zr 4.906721287273596 9.701247452081883 10.216567776640117
Zr 4.779006093396593 10.537066509414428 7.280647766416937
Zr 5.174715130814878 8.38451353804656 5.568869752897924
Zr 4.66398276366138 5.5275826270444695 6.007788994586212
Zr 3.9566082781432463 7.545781819825477 8.220001272733958
Zr 5.103312924238741 6.8145090191353725 10.805797926215655
Zr 4.269533654419171 4.732091492524351 8.809832778126813
