23
Energy = -160.84808912 eV
Zr 8.497060850408495 2.6844901238311274 7.582377161571494
Zr 9.748963198333124 4.83596904951541 5.983617994110965
Zr 10.922390410896593 7.468611770556791 4.787676270527191
Zr 9.062017473390398 5.04148359826868 8.826879212587313
Zr 10.073746339017397 7.4035850906454455 7.459422711970406
Zr 9.196123475404459 7.332585311503446 10.432450461712875
Zr 6.779290768528106 4.447852931347793 6.201219924530656
Zr 10.960474352259087 9.94823332537418 6.607620189470166
Zr 6.4750135853695765 3.728187237080793 9.12253417113402
Zr 7.991764862101769 6.686871066700073 4.612409807172005
Zr 9.888106877114463 9.718593094545302 9.296017987774977
Zr 6.924124976750868 7.433674442905263 7.679896749679977
Zr 8.031011090691123 10.571576670430417 7.2794344884518765
Zr 5.047789391784206 6.469014253403077 5.31952748916601
Zr 6.592048541004377 6.236834978794961 10.513802006813583
Zr 4.571307437749478 5.467637229566802 8.111760867998001
Zr 8.9279858341787 9.370609367821102 4.831343525325743
Zr 7.119061718709344 9.28943446059422 10.185970028061202
Zr 6.182578886402015 9.143493228559024 5.259337864892304
Zr 4.555392456887063 8.021958686111429 9.697248613313029
Zr 3.6550251266745115 8.131477481583683 7.093278095045885
Zr 5.278114898874618 10.27095535084796 8.047513908878969
Zr 3.8360516392868904 10.48682745908334 5.461033362171752
