21
Energy = -147.40248411 eV
Zr 10.40713393031796 5.789162832447583 9.044991163629165
Zr 10.017781180918401 7.41032271584111 6.536577168577892
Zr 9.242835436789697 8.64749661145227 4.014137657698196
Zr 7.963598270672527 9.645362418074223 6.475114837298122
Zr 8.795244577571951 4.6051074918563435 6.9092133855992754
Zr 8.826130592061318 5.916743897629149 4.407194862632106
Zr 9.286639090388178 6.726182714134483 11.379105750784156
Zr 8.378479712517139 7.899070775567221 8.868035381060313
Zr 7.038823687637588 10.323624822226568 3.884945776008553
Zr 6.53940565137804 6.815058817967602 6.587035832084247
Zr 6.537177672461344 7.497728689803434 3.4898447421438825
Zr 7.649258642261269 4.996607346504851 9.737928432441464
Zr 6.719795708946134 7.528378709140798 11.140539526281517
Zr 6.153148713497873 3.825543767611876 7.666270106084303
Zr 4.070864639841122 6.816979383256014 4.601161572407057
Zr 6.22244640844573 4.612581321367093 4.751530381443579
Zr 5.689006209493889 9.12461264915407 8.535875218170151
Zr 4.9602527985536575 9.471452189286746 5.596302994471949
Zr 4.952825004731524 6.164386320524178 9.261285067169363
Zr 3.9414571118064674 4.983370008903539 6.667176322064698
Zr 3.543507225996122 7.7179718149619685 7.286944091459534
