20
Energy = -141.25091816 eV
Zr 10.461047386539141 4.836852295183908 7.714006702309059
Zr 8.711357067782506 5.873144097850206 10.588211746817883
Zr 7.926939466231405 4.502516101407898 8.393767135142047
Zr 9.858546592539119 7.468017342171652 8.620281821952265
Zr 7.924474570015628 4.2925217553499415 5.510016622519995
Zr 9.72686477748112 6.778315344319363 5.802283978391925
Zr 6.630127932442276 7.157718121441341 6.690894707742287
Zr 7.196900951679845 8.144125986704681 9.726190736217827
Zr 5.533588706200041 5.584516069510183 9.620762558810386
Zr 5.570937275207866 3.9762375125167924 7.099719654196781
Zr 7.760237642144495 6.22345213632498 3.6922045581407152
Zr 4.980556132008151 5.591452829414426 4.680454839263895
Zr 8.625477612977944 9.494658431117402 7.26387627759627
Zr 4.315736784780712 7.96519114234426 8.961681287561763
Zr 5.7794476227519676 10.026635025272194 8.027628828790624
Zr 3.6769530865797315 5.894771299556649 7.2755303361526344
Zr 8.476294952000002 8.909086627930208 4.3777322715806735
Zr 5.7622622988598104 8.158711618783826 3.6904728043573622
Zr 3.9621749655220153 8.461198286119101 5.984147995792543
Zr 6.33820952580042 10.215405870691823 5.456845609729857
