23
Energy = -163.51015352 eV
Zr 5.906858583823244 6.6236180127877695 10.65257122049987
Zr 8.219406161930182 4.720316701778666 9.211301493470934
Zr 5.376543606719386 4.396123801018249 8.776970171139599
Zr 8.936843184098251 7.0453296304332405 10.97933958369502
Zr 3.9480322204365925 6.740879108035123 8.201807368746149
Zr 4.971669121819009 9.2098324922804 9.351924166623684
Zr 7.326849445083902 9.421306788721244 10.764670873462835
Zr 7.488560421759318 7.690269159548963 8.476419371250811
Zr 7.0737527541824425 3.3147066291436196 6.814325081005201
Zr 4.416311415348949 4.439967213160818 6.061398236955975
Zr 10.367926105371122 6.610869838711797 8.534593041462523
Zr 9.80032624084902 9.320935657921343 9.227044570295115
Zr 6.5403791984619595 6.288780109101016 6.458821357871375
Zr 6.86755893525412 4.468600349460473 4.217646517044189
Zr 4.8202352736018055 9.138634780165848 6.605534780417857
Zr 9.32869810644342 5.23865759240815 6.319982224797999
Zr 7.352193015223338 10.486624800302664 7.859180758122113
Zr 9.581974749085967 8.441604115121757 6.360453305497119
Zr 5.12160209067077 7.051424378655601 4.1568266787295
Zr 7.063267606950471 9.25522301469263 5.062663639640532
Zr 8.181159666812002 6.965815899003723 3.8713764615552986
Zr 6.337569937746116 6.059911813557538 1.6640831271244008
Zr 6.5100168856265395 8.617448482427251 2.0538907323381466
