21
Energy = -148.13054327 eV
Zr 4.870979455449039 7.819639021667906 8.250827453742723
Zr 6.487405232401162 7.755827353528495 10.890740231655055
Zr 6.320288213881983 7.911221582278421 5.515736405031083
Zr 9.717077436838595 7.76437548299667 10.792585332603503
Zr 9.559491339877844 7.918731485325091 5.419189703378062
Zr 11.176905803018297 7.834688837404645 8.06240674887718
Zr 5.477872253035383 5.410704324408225 6.72217746424401
Zr 5.561457793520812 5.325611073939129 9.5992630794472
Zr 7.937658936697951 5.486461378921281 5.190217063767306
Zr 8.110059776914126 5.3167143331080995 10.984750453232492
Zr 10.485785608645415 5.424161898146344 6.572382952131769
Zr 10.573416038005954 5.338221805305921 9.45038540510709
Zr 5.611407416558637 10.314098383457846 6.944375683234774
Zr 5.696340195204033 10.233611158315467 9.650976069960196
Zr 7.9332532590210825 10.378340401520296 5.50119223047404
Zr 8.102300220032745 10.216822973140971 10.946361585048733
Zr 10.344294772969745 10.324514269502496 6.7966644588158
Zr 10.426635891284741 10.24495343095386 9.504019244947804
Zr 8.018660409896958 11.637022699980923 8.26492765220722
Zr 8.023200935581464 8.65226177128085 8.173355370925572
Zr 8.025216656670342 5.503858096392673 8.090664637690352
