27
Energy = -195.71183668 eV
Zr 8.90993262714236 6.2587090289931355 2.9624039128172908
Zr 6.301249880683025 7.448198510356553 3.363105629792315
Zr 6.885666504168145 4.625866532388812 4.533933824066484
Zr 8.940894431239283 9.04728841710101 3.766013030105597
Zr 10.017260924936094 4.687844520912495 5.002958510860158
Zr 4.055197211397567 6.000673050359761 4.839204567902326
Zr 10.956059007122919 7.4287652763791066 4.850648409596116
Zr 8.487608528780077 3.8684431099122745 7.170759281805816
Zr 4.19398853810766 9.047022149945214 4.360297883028589
Zr 8.182098579400263 6.9316919581277805 5.746828171740301
Zr 5.453068325032941 4.224783170397293 7.2699124722973325
Zr 6.897941655002 10.051990234884663 5.353420247385469
Zr 3.2274170526053516 5.862373075780154 7.787623673620863
Zr 2.576764741313838 8.193400581525426 6.531416006845775
Zr 5.437460470939146 7.643412148931455 6.699265709165007
Zr 7.074182421415518 3.684090560696935 9.720349627223115
Zr 9.572843471453766 9.234206837799555 6.861696294392029
Zr 10.630787223430257 6.388269499126116 7.536441180148295
Zr 9.66727906701934 4.958358863409685 9.771373931281211
Zr 4.435670518219682 10.440162325984446 6.879523785224687
Zr 7.341343371900279 6.414635477836152 8.56963896632571
Zr 4.907287993317297 5.695843664258855 10.103952319222955
Zr 6.93465756969207 9.855930637268793 8.404723368165605
Zr 4.063566218204629 8.558696120151547 9.161653342999644
Zr 9.34371147368079 8.029979014689788 9.772107500159489
Zr 7.624514460252789 5.997999452570677 11.443148729516114
Zr 6.45072811610816 8.354663950641873 10.734140210810695
