38
Energy = -278.6600358 eV
Zr 6.453995759983746 5.675933204852241 3.1065540167358083
Zr 3.452292098549916 6.980065689093197 3.309457130067137
Zr 4.241048995617252 4.154726492467539 4.1452778896331015
Zr 8.66238802297543 10.185308142455497 2.7436349672381097
Zr 9.03716611635858 7.38470936080858 3.057672358764391
Zr 6.105162344518116 8.558415270991102 2.6231227288628216
Zr 10.360720006082055 9.388442810158324 5.10577858838441
Zr 2.061052498135249 5.254417667664014 5.448458598832563
Zr 9.06783048190074 4.574607499508099 4.087345026838253
Zr 6.654557635241875 3.6585343974369566 5.613264028742595
Zr 4.73369215143957 6.746016529307881 5.7774318843716275
Zr 6.171718469002143 11.387112544525724 3.604582666448232
Zr 4.2472593716271785 9.7043649122923 5.027268317740693
Zr 7.353615391727833 9.296629476888073 5.286035427632805
Zr 10.777261818448384 6.516528470711298 5.464676048364639
Zr 8.70529186948235 11.9411539999502 4.972187412402261
Zr 7.890252535863171 6.544902455000422 5.816763175073069
Zr 2.0250237872331858 7.967969607188328 5.8788342059071566
Zr 4.045627615102116 3.819921547019202 7.0717793850555255
Zr 9.398281369593949 4.307742793806597 7.074504073972852
Zr 6.217833560086731 11.699392159304667 6.571802651434976
Zr 9.609455697429155 7.915850726314051 7.960597547207794
Zr 6.5288868797370805 9.048737011431468 8.142625615237545
Zr 11.191880457705242 5.5651033148824505 9.15200357971931
Zr 8.859466618711197 10.72634243328748 7.555884720042985
Zr 3.768233194063673 8.905000940359175 7.925983939150659
Zr 5.971207945259664 5.938127814008529 8.032750627230714
Zr 7.915974509180907 8.865198197108754 10.539638773266285
Zr 2.87792968975622 6.227213509867815 8.244521920901587
Zr 9.753612968777631 3.089153615668857 9.713075247041537
Zr 8.216947348729896 5.79385975712257 9.672163581799188
Zr 10.230454385606762 7.595200045542977 11.036204470373336
Zr 6.942679760576185 3.0566266599845866 8.721978988654211
Zr 5.27166779323633 7.5531321933014155 10.48547920860716
Zr 10.118855260559585 4.918327196920582 11.882563868233174
Zr 5.350693754369529 4.750095511645868 10.555816419706805
Zr 7.659321636246537 3.4916867798193003 11.61872719511375
Zr 7.513621925140085 6.433263733626251 12.3780910759363
