37
Energy = -271.76661206 eV
Zr 6.745673342256461 2.1251434231616195 4.902349128439337
Zr 9.345209214789971 3.0528592138921398 6.013581672754373
Zr 7.16193700402194 2.577766617557907 7.867814701125099
Zr 10.19813331276493 3.293544682619363 9.254100998874202
Zr 11.506804320289644 4.719203311224209 6.86762878013843
Zr 8.133774621285156 4.040979614069245 3.329134316479465
Zr 4.5041533730753365 3.2774819253666565 6.257738529166198
Zr 9.852927697192854 5.879389433156049 4.776192675552878
Zr 5.272172542788109 4.296164524266698 3.554430725094093
Zr 7.478314636804764 4.009636695199419 10.546170791741146
Zr 6.938028292860729 4.988930112185605 5.9140351974443
Zr 11.654073484449214 5.994758489649704 9.289746773118203
Zr 8.813229873608076 5.458296246915097 8.212483357727663
Zr 6.991888635286587 6.929315886347669 3.5577737125919726
Zr 9.140403115490928 8.960353049898687 4.2910444141044675
Zr 5.350686994152872 4.788667570335223 8.637081731890934
Zr 9.62379600868255 5.71290064037496 11.108768475578653
Zr 11.02854374708024 7.652379356715998 6.905568260768154
Zr 8.121802475138585 7.737532947030705 6.914208349928547
Zr 2.676506928270859 6.107813412806152 7.9528782629609145
Zr 6.56850305586201 9.740941622958136 2.7328613859892985
Zr 9.775113641069026 8.324780920070342 9.433575167171787
Zr 4.253505843104256 6.2215078375796065 5.4749996180751594
Zr 4.229906951556325 8.411297863682314 3.4894692464060615
Zr 5.199297284875969 7.716052517160061 8.088967015036262
Zr 6.207531637016355 9.204361808792422 5.682643455972659
Zr 7.134903940005085 7.1220020884120405 10.379119540006457
Zr 9.131164624644978 10.465931483416671 6.76864825866205
Zr 4.06304248888868 6.5317960941247355 10.568195088769935
Zr 7.702658751613607 11.58482961306336 4.416202644469927
Zr 2.934508776210993 8.7692170445977 6.2276398366641965
Zr 2.538140373615505 8.667895216727286 9.227051159075293
Zr 7.176576380158722 10.13187350034879 9.022592481490166
Zr 4.654884165842629 11.255955612071169 4.64875005364191
Zr 4.921060371105533 9.284010106117684 10.636677707166188
Zr 6.604646006576234 12.0308776254786 6.889250098347163
Zr 4.306133952495885 10.678268090763394 7.931939950140462
