33
Energy = -239.63519832 eV
Zr 7.587688562007813 5.0313791939179415 2.099891957193948
Zr 9.699381877620976 4.638379047623089 4.404948659600706
Zr 9.07262624044258 7.332141133827576 2.8816235000301087
Zr 10.549681444740438 7.402221806342223 5.121925716682344
Zr 10.834009555449152 5.337276690612155 7.283197093667297
Zr 9.524115180060205 10.085627699315502 4.4817960527816165
Zr 6.232067075049746 7.61098628947907 2.4948159806370733
Zr 7.153363693747228 3.0983870550078807 4.065409768647246
Zr 4.832281372923555 4.877463996056392 3.285557680287212
Zr 8.309447850182522 3.390783028672742 6.77740614500359
Zr 9.076321274402703 4.442373568807213 9.44601994995525
Zr 6.969930898851815 5.931370220543493 4.869258137154048
Zr 8.350026290212542 6.370416646579278 7.360409156542057
Zr 10.02561847983544 7.217576300802276 9.983574344140534
Zr 7.369594639964257 8.722049068569257 5.3030844283864855
Zr 10.002544553627523 8.922022290277619 7.34965284987578
Zr 5.171846470799385 3.5728045076194324 6.109043882595251
Zr 5.288760927376048 6.979338822665807 7.156173336092618
Zr 4.119761656943241 7.860938640785601 4.39412107703952
Zr 9.488620544146594 10.314209372250225 9.700087593919738
Zr 3.033587480618582 5.531754788190641 5.467604668644058
Zr 6.169027466053261 4.34964829734474 8.86912824181108
Zr 7.237044770903512 8.351645265433799 9.111595249690481
Zr 4.785477036087348 9.917721086025177 6.27200214631193
Zr 7.313704422597788 6.10924318918978 11.098205754943963
Zr 3.3301993552383204 4.8965554040776045 8.097708294520633
Zr 8.406845870897424 8.78664056999968 11.863532957093575
Zr 4.3359051264494415 6.746555086634154 10.024032414364491
Zr 7.422269546362767 10.772705892630286 7.488637749237137
Zr 2.705397742077123 7.827155826459672 7.3673761440421925
Zr 5.6291635461378 8.627592705310652 11.674424975937303
Zr 4.518378447669061 9.69888669190532 9.132374689098345
Zr 6.871725611003577 10.959706626569902 10.525733106066006
