32
Energy = -231.69764966 eV
Zr 8.38538072685612 3.0731704596864255 5.986137067978759
Zr 5.631292018672852 3.362041749008769 5.685435583604571
Zr 10.158727507176096 4.093418610594866 8.034737548429447
Zr 4.9355302267701715 4.852318562985673 3.282020351452679
Zr 7.363012541375791 4.500863977523141 8.271289381446172
Zr 9.646190642846749 6.009094021006555 10.160204034734857
Zr 7.72847304090412 4.471974889329419 3.4435601659013524
Zr 3.2305156184320665 5.1756772109292575 5.687507796276251
Zr 4.416808494345586 4.337859819850607 8.335691303606843
Zr 6.668282227093545 6.658725362252066 10.029911454995108
Zr 10.053666925433152 5.334103149577821 5.425836947452007
Zr 2.088426160536567 6.015800291957266 8.125447245389447
Zr 6.643581068573704 6.202508266342239 5.5144893297347926
Zr 11.70038894201597 6.5055876954038885 7.718029708181564
Zr 3.8644690211939894 7.339491586788488 3.841334624262339
Zr 3.798379586096878 6.452429050149351 10.381353189991728
Zr 8.73733880655701 7.19498079521779 7.638822772735163
Zr 12.600120554935934 9.240015747880141 7.701696861527298
Zr 6.4843458292106835 7.436935975890449 2.821930728465209
Zr 9.12739431164235 7.0093737766911755 3.323218570042923
Zr 4.822364262291797 7.340959237210697 7.639672901009856
Zr 2.445979366290306 8.223756607856712 6.106843626156079
Zr 8.188412412337307 9.037930123397077 5.104382874702211
Zr 2.3536016749696826 8.620179615514191 9.086641069644458
Zr 10.9880004230935 8.171157347584074 5.346412878764456
Zr 11.140494206469361 8.456086940454115 9.867725136092746
Zr 8.459772662883783 8.919409844290302 10.125998061135094
Zr 5.198643963024665 9.428328297873277 5.1392519504962495
Zr 5.041304736749632 9.171130652072845 10.108723259785153
Zr 9.91398135451863 9.964395731425638 7.5341404346918885
Zr 6.882744685460075 9.724247389225956 7.802328643113705
Zr 4.034907101827683 10.315638050972352 7.583483131953188
