35
Energy = -256.22870509 eV
Zr 5.069788389347389 10.767711891021477 9.482130728740339
Zr 8.017970478458679 11.16892995382587 9.324466895935728
Zr 7.155415131431076 9.376058554869518 11.312445369690003
Zr 3.9259137746931976 10.411475412444984 6.625170905271553
Zr 9.6377746487357 10.483026569119302 7.05124489767516
Zr 4.748656960406813 7.74653350277544 10.6909291346618
Zr 3.020030512796868 8.775740269211411 8.550217183129627
Zr 6.621391410842671 11.256824957629588 6.6883868136756375
Zr 2.870623329399108 7.623398660429302 5.702992654451304
Zr 6.734864793595837 8.619500280311264 8.578782263475768
Zr 7.615346190645634 6.48523244175756 11.060456230965556
Zr 9.558089399415747 8.566706743209886 9.541186836925629
Zr 5.51561504540544 9.602403681801237 4.276565548702225
Zr 5.119250786534928 4.946312645644111 10.808884683244605
Zr 3.373887113087622 5.956026901341559 8.513729958677851
Zr 5.266456345362438 7.595162621762806 6.513412234090868
Zr 8.10567420342261 8.23346809804759 6.021040137355186
Zr 6.551119846316913 5.584233699447208 8.266147232663203
Zr 4.672052214820257 3.268833077825131 8.596299922123228
Zr 7.4984293767732835 3.489793741462807 9.82212073371958
Zr 9.678402388164374 5.650661508128442 8.965370245498281
Zr 8.18599154732525 10.764118354214052 4.3720648744799515
Zr 4.366325339178622 4.5916965145722575 5.959228453181504
Zr 10.941434138294296 7.63762116703715 6.889447510804805
Zr 10.436134223381622 9.136453080638901 4.419659537432701
Zr 7.910417904521744 8.079031051616143 3.0591184103309894
Zr 5.4415033058469975 6.412171782308953 3.723010541275511
Zr 7.83285874629155 5.344421741836209 5.682896127223762
Zr 6.681393925384377 2.582199443964904 6.664930236466413
Zr 9.243780231385658 3.102036775028225 7.569868046372196
Zr 10.909549049998072 4.84749530204515 6.41027460507696
Zr 6.191779456135834 3.4798341983614227 3.935700183843428
Zr 10.296083107180204 6.29922036718798 4.035146091969333
Zr 7.9485967125277455 5.207020388114117 2.660164893301733
Zr 9.168423692721756 3.224581150597304 4.532431885998079
