32
Energy = -233.86496186 eV
Zr 11.029011504826777 9.024240135162636 6.223008521968309
Zr 9.785913542912038 5.303514051446022 9.915496651961215
Zr 11.29127756557442 6.143913219591373 6.896599260674957
Zr 9.797173021550023 8.235820971299015 8.714196690436342
Zr 8.672014861550466 10.69470040339211 6.8091864172302525
Zr 9.095967519868847 9.5910592059996 3.974282961935107
Zr 10.988870166300455 7.3018869367104 4.050642192492743
Zr 7.637600787867211 3.279990975917091 9.627795634607743
Zr 8.319088166624587 7.690432850498655 11.148408500174433
Zr 8.746495482798172 7.024414769155166 6.022814515036972
Zr 8.186837042742905 6.803109449337139 3.0517235387975
Zr 9.935416183884573 4.763164837516233 4.528432090254851
Zr 6.98296486978824 4.644664962193877 4.948279682694261
Zr 8.938179322823 4.039891459044686 7.156576437647804
Zr 7.205377781840429 5.174213564802555 11.606072817856502
Zr 7.344291525121777 6.190348474067339 8.789331512050204
Zr 6.316866698526755 9.067102024187571 2.9638441385158156
Zr 6.596428855732541 8.645302048614402 5.966013547203119
Zr 5.785531566213821 3.102077576304983 7.343567213939177
Zr 6.731342809277614 11.29016268887813 4.555836347645687
Zr 6.999674368857404 9.315678833275726 9.011311737884906
Zr 5.227898087247088 6.079647601370293 7.125371792587099
Zr 4.037745819666433 4.262098677767977 5.117740179025777
Zr 5.023708386824439 6.73001073807448 3.989010112308704
Zr 5.303852721657201 7.336768984402269 10.712853568672083
Zr 5.676208572325735 11.205808343440646 7.124231419180022
Zr 4.847945310570361 4.386050001422197 9.972863639292104
Zr 4.147202151335256 9.61226431938836 4.955027365946082
Zr 4.168492781267586 8.923011843606648 8.049510229514976
Zr 2.9715892640207486 4.182816977753091 7.679831971279646
Zr 2.703237994292054 6.86254601798082 6.138327916008826
Zr 2.9657986746212472 6.556173411946529 9.107377827476538
