34
Energy = -248.42195983 eV
Zr 6.898346476298213 11.936556120902074 5.390818793707907
Zr 9.205525613465829 10.751373943496853 4.136892961567292
Zr 9.370902637190678 11.786327461162896 6.8978369034671765
Zr 6.585012930010545 9.739178149153249 3.6638657384104576
Zr 6.52461038986726 11.663768189507827 8.2194512006326
Zr 10.983851051387568 9.123388797720645 5.698914741919165
Zr 8.82857510014009 7.782267750931533 3.9699969209576653
Zr 11.615634935627936 10.577011314418163 8.089944866240902
Zr 5.871101658927429 7.3054660569187115 4.712386104944677
Zr 7.863776630509654 9.190357941338265 6.409313193535677
Zr 9.0768006206909 11.112128021166898 9.762775167540289
Zr 4.916876929819208 9.998371326468249 6.26074855817385
Zr 10.560853135852268 6.263274005996441 5.962906220799065
Zr 12.42706024900475 7.725517406839018 8.152877320782162
Zr 11.484552095679256 9.680451043702066 10.601240623402218
Zr 7.799052734511126 4.957612574716353 4.724612551484626
Zr 6.562755985666866 11.007882549943764 11.062285090660088
Zr 9.689958941494805 8.13868210188366 8.730602096865866
Zr 11.501089665976808 7.060684711251333 11.035388854819484
Zr 4.266944460313381 7.337894957052063 7.323900865316179
Zr 5.472864800268817 8.728636899508071 11.962256787315674
Zr 7.559638138698539 6.090999433990726 7.437346235346825
Zr 5.02653576407331 4.925696730749333 5.966406168584648
Zr 4.238830450022406 9.98791115893683 9.405215256691221
Zr 8.678961322664652 8.724827446087447 11.70644359582981
Zr 6.6786795507960175 8.519788805274533 9.238744847212102
Zr 10.905964120832724 5.196873786084816 8.794834512267002
Zr 9.516174005492502 3.775292859108949 6.79679347519116
Zr 6.556138012274795 6.1240225029433075 11.232755157450104
Zr 9.255276849991454 5.796613598297005 11.155858315032361
Zr 4.009501376812875 7.164670451437221 10.167054866017574
Zr 5.165893981138946 4.814148062503871 8.898070881980576
Zr 8.083318763546234 3.905096609959581 9.496016840932258
Zr 6.825917553690272 3.1768495248491035 6.991021731960964
