32
Energy = -233.31711611 eV
Zr 7.6922728187697285 11.163532217335328 6.90021961379369
Zr 7.17475557265245 10.859329520806451 9.845518072287499
Zr 5.08736503950011 11.835474731533589 8.223538244502503
Zr 8.816981739055246 8.755402986407859 8.879628105000172
Zr 4.9276256670315295 11.043650836391729 5.618341033104575
Zr 9.10571237116668 8.520819769788897 6.1576385125570505
Zr 6.808890678025995 9.46541015239943 4.260342797322848
Zr 10.882987398738592 6.5853679359059765 8.042875646253666
Zr 11.243839357170213 6.75767220574275 5.107076095833244
Zr 5.8993082375144965 8.993509462089174 7.700611098059417
Zr 6.697735341924058 8.010801262813121 10.775008805006111
Zr 3.0630298016423634 9.64446776892895 7.643746526057857
Zr 4.4938949003402 9.923193871081128 10.297441618527552
Zr 8.843019100659005 5.516049146674273 10.292878676132194
Zr 8.585062878343471 7.0567478867319675 3.668915555725785
Zr 11.56783095492052 4.19544855485662 6.289440294889144
Zr 10.158860869844297 4.442372535375448 3.763202741904781
Zr 7.069938667908435 6.323313370021321 8.34219302770542
Zr 8.803194986337234 5.31894927151668 6.254247288250813
Zr 5.82989687015072 5.0999017237191095 10.570389394611533
Zr 3.8514057718432753 8.50403081694338 4.725641819309256
Zr 3.9609083006112513 7.188407586494841 9.534946729105407
Zr 8.95611506355175 2.577838644503229 5.864600268509867
Zr 5.704700070965404 7.019992693339235 2.851789513894736
Zr 10.122740269607936 3.7150324145435896 8.549239442090975
Zr 2.980141009457168 6.854983520243881 6.8902344373484175
Zr 4.085068285604619 5.283671542108693 4.694841525271546
Zr 7.2774080272339905 3.284600755741982 8.613609437735278
Zr 7.149184367072673 4.43882508232528 3.760105601197301
Zr 6.175769171694692 6.804062817238447 5.670039154453861
Zr 4.491062066475317 4.619542905953097 7.901501436048261
Zr 6.055528886412964 3.3268462786980693 5.971321223548306
