30
Energy = -210.70806626 eV
Zr 3.527220368140828 10.740451608270224 10.861601646703363
Zr 9.074589343906977 5.862191911531958 10.33449062556687
Zr 10.260344171671184 10.332997536133291 4.775894457604994
Zr 8.916085323621495 3.228122539437001 8.843553049101851
Zr 7.2112439549425655 5.53751415817505 2.9331429649984053
Zr 5.1585827712108285 5.705940976383137 5.203499756659191
Zr 5.372264967738293 3.1102466634056483 3.906583301540243
Zr 9.847489610599402 5.37916019486684 7.113564681004812
Zr 5.582347996813639 9.362381238677422 12.161935339394711
Zr 9.03745926574447 8.158543016031558 2.964976958689313
Zr 5.0492277609367555 3.1189372082695854 6.612171688868332
Zr 9.955127537583063 5.592468245566596 4.038360458514182
Zr 11.368381728562388 4.563602978070621 9.3558576816677
Zr 7.757277455594321 7.638272619572393 8.193412720698861
Zr 3.172633028746833 7.8793959070279085 5.452867950070588
Zr 6.731245725101413 5.047891055002811 7.998204622435386
Zr 4.2918560853137535 6.752701358945479 8.004481351261068
Zr 5.795494056528497 9.76343847578433 9.300727609161404
Zr 3.546974949913006 7.983981125843225 10.623514150523604
Zr 10.735784491353566 7.724564145688956 8.851142358769193
Zr 8.98979116627823 10.07941864054395 7.481835427848854
Zr 5.8675999854351115 8.21983459916934 3.456444843994111
Zr 7.785514394680014 7.023355957063134 5.426647457638555
Zr 7.586867708236956 10.103924125044935 4.7597287125910865
Zr 5.479885443534752 9.110382823734998 6.37426820644033
Zr 3.0184532629207403 9.395969047739076 8.123307132313093
Zr 6.166614650654497 6.857552642921981 10.641172160998526
Zr 7.740669856942493 3.880454752909683 5.427884518841801
Zr 10.701555424773247 7.912775363190221 5.707729682039133
Zr 8.398420471432846 8.87024893322492 10.590190492745231
