35
Energy = -254.86794064 eV
Zr 11.02574640454726 5.8102687426837845 6.434382142425238
Zr 10.62061617187993 7.317366664673175 4.031305613712566
Zr 9.346590509561334 9.755522993660614 3.8801351302400975
Zr 9.572291465199415 4.853160469034285 4.048207872971004
Zr 10.859534841436341 7.475621648813914 8.839261233308925
Zr 7.7492794615489755 6.986812612455731 3.4109974379423513
Zr 11.555171749915448 8.879387185275434 6.146862538896268
Zr 7.774030597960922 11.59401742554006 5.180621513193375
Zr 10.051929547919855 11.157012766818625 6.757242081667948
Zr 9.277943177074741 3.254522757153599 6.197408531896514
Zr 6.858994437419928 4.186945963465287 4.327613449282233
Zr 6.133377939670079 9.36923532558947 4.074294170781832
Zr 7.718161755169699 5.853194495003937 6.548649770065552
Zr 8.683601057653162 8.624317493154813 6.510184922280532
Zr 9.590400710329583 4.411241434100076 8.742615672993573
Zr 5.004085806840188 6.660177923928325 4.524477891706991
Zr 4.855659355142802 4.3921198702094 6.386401991774509
Zr 10.151158457268785 5.475783417383687 11.10427501493549
Zr 6.927428639163126 3.3031420656778243 7.927875639284778
Zr 9.199888049190776 9.974239164333385 9.515121340087282
Zr 7.97267885678557 7.211130524695889 9.662567450154475
Zr 7.204647455220611 11.505001557140975 7.988096359756494
Zr 5.8583831174620755 8.491033275830338 7.280800413702222
Zr 3.5204364815603584 9.12025122536615 5.713514886137277
Zr 7.261696181012947 4.533854808171404 10.775582666179785
Zr 5.183365241131434 11.403053636753903 5.846803723060396
Zr 3.35093830786965 6.5288860879607125 6.964046969877297
Zr 5.017898365406663 5.454407660911456 9.061998637452435
Zr 10.255146358287412 8.216248977724316 11.639172684543242
Zr 7.673508370363109 9.184229572292706 12.09731256597132
Zr 8.133914184230283 6.5021740656706895 12.751174671934082
Zr 5.941281702304455 9.83573494732751 10.201172537895793
Zr 4.1787528723587295 10.872810570517993 8.286854343441624
Zr 5.577273647063097 7.061877929200481 11.461414021269297
Zr 3.589143191110178 8.205912391403873 9.199363489828691
