32
Energy = -234.13629037 eV
Zr 3.029778250973913 8.62071476479119 9.112053428115212
Zr 5.867597240200753 8.862478906844595 10.1004019031452
Zr 4.544022400282415 10.611338409258666 8.00923278049827
Zr 3.064463636103481 8.921481035391526 6.0271035500844
Zr 2.4798743537421197 6.394893038547083 7.545321529492396
Zr 4.38550697464501 6.155924834768459 9.904757208721382
Zr 5.2702952498932065 7.672713043322749 7.421618046692713
Zr 7.365459668751792 10.73094330865745 8.228629704568249
Zr 9.031208289538812 8.608061395498641 9.730697792901283
Zr 7.324701910506721 6.078025577474996 10.664599794728899
Zr 5.844721103626679 10.321751569346667 5.45418262555712
Zr 4.266174320443633 4.24538464083481 7.344487991084396
Zr 3.6929242528919084 5.979067972628097 4.8861373201020575
Zr 5.724604469644315 3.6662686026264515 9.762288416179246
Zr 8.576749909055962 10.956339186061317 5.450025661488124
Zr 10.210158396486136 10.416938239373009 7.625624227327848
Zr 4.838440445342881 8.31697827500125 3.650650977724496
Zr 7.409048454732033 5.308695691688214 7.772968956404547
Zr 8.44279420729353 3.415104220737865 9.800531601795196
Zr 10.581771765791395 8.756551530927096 5.033822729159835
Zr 11.285890227940461 7.913588767209643 7.824845822770387
Zr 10.042114192335998 5.789946532746565 9.220416718861353
Zr 6.730471109226841 6.485394039546669 5.200683075576438
Zr 5.555125293691843 3.6858573111205626 4.829506645857718
Zr 7.740241711349211 8.88212448669573 3.5261481420688767
Zr 9.77631739214625 3.3969879439015296 7.364743358054292
Zr 8.383396163307104 8.223918020323492 6.839357430235521
Zr 6.9081662611154995 2.504535397582493 7.268101378697413
Zr 6.399934597929019 5.82640900181719 2.824776523674828
Zr 10.51489090905241 5.766194052487473 6.0611635479653145
Zr 8.421922043434428 3.9262503100891086 4.797636933648566
Zr 9.29918299881623 6.457164321670356 3.5427036467935507
