39
Energy = -286.22499925 eV
Zr 7.839304110125639 3.4195866435753675 10.399841101137582
Zr 6.7668266396520504 3.203662334733505 7.5837083728596495
Zr 9.606214240581199 3.0538939753723073 8.424120350713967
Zr 4.23063211794897 4.801585983509209 6.8325915331178315
Zr 6.887751416244642 5.934361856967536 5.585950059725005
Zr 9.075261055841494 4.229579009205867 5.7973641162025
Zr 11.532682779670106 5.066965467973177 7.987996906920487
Zr 10.143301952150967 5.390310046502292 10.486535724125439
Zr 4.511952689532089 7.275774260984111 4.901373704638809
Zr 9.825799828908945 7.318005272054518 6.497397875990209
Zr 5.236537782774468 4.546156198170632 9.783233954137225
Zr 2.3472115982221182 7.170155729296952 6.771591178383628
Zr 5.140064895146972 7.388472313893676 8.019657426398028
Zr 9.315377202825884 6.4973382150027374 3.6613243501278077
Zr 7.9691606877232735 5.709475372105236 8.432958064919616
Zr 11.643767193449424 5.228462476228557 5.024040021441402
Zr 2.7692864173978133 5.791623518810325 9.187619964387661
Zr 12.92064641333856 7.195843185362135 6.714128324188752
Zr 6.954744055258065 8.362858153077461 3.238594864587668
Zr 2.6907655629974 8.653469954368466 9.278272616136421
Zr 7.016335419395442 8.958320009732185 6.0887812460182715
Zr 7.43689263018674 6.094516805904868 11.521959865114109
Zr 11.8467008744452 7.924130706010295 4.229663938653903
Zr 4.63938474639062 7.3063423050177825 10.975348800974327
Zr 11.535535937176412 7.816372879027353 9.163243917806597
Zr 9.612633393961051 9.553450455073502 4.122504907282047
Zr 7.868532572960405 8.813396046812882 9.085232749036917
Zr 4.807048718885373 10.115312222277085 4.304584133567749
Zr 7.316694448308521 11.242806053359361 4.094788681552597
Zr 3.61006744144726 9.85780833117256 6.858918245423286
Zr 6.688201707551902 8.785872615359436 12.030002937801
Zr 11.570080416902325 9.72792577804003 6.64398018610509
Zr 5.908582243252332 11.682810651786353 6.691089116236594
Zr 5.261296676341756 10.259439949020841 9.599002206021957
Zr 9.558061631816678 8.312508698978085 11.47374008623339
Zr 9.078079705152176 11.3295070142645 6.508774180304395
Zr 7.780582580999902 11.962137801035347 8.776304665643238
Zr 10.319021910365286 10.49637121287629 9.37481471281413
Zr 8.033878567602098 10.926612864819736 11.211092448284614
