33
Energy = -236.73478679 eV
Zr 10.722265924651518 7.946712846631618 5.536753068816902
Zr 9.144187339789227 7.640328886987452 3.2562254929308505
Zr 10.727839850796958 9.988775195883672 7.514671940608917
Zr 8.888043815678268 10.165417449672725 5.030097574403472
Zr 9.05196921730626 5.187507655014379 5.655842969170012
Zr 7.222646579798767 5.506329755427831 3.253372154942003
Zr 6.551869444180819 7.575054886186272 1.5407583227953576
Zr 8.529509050812166 11.997255164182013 7.108430690336405
Zr 10.350629068237579 6.980319498616396 8.184386784262683
Zr 9.318274765506493 11.485620491582695 9.726152023328247
Zr 6.307260739215194 9.153394109419366 3.715004170651527
Zr 7.556830956535688 7.5225862622805115 5.779221272279147
Zr 10.230325882822438 8.934607043364666 10.325542665636895
Zr 9.922459883947598 2.6345427615751777 6.72317788243482
Zr 6.026399608181665 10.695737385361618 6.429949551478445
Zr 7.93056310963191 9.097500856776188 8.308692196395608
Zr 6.54481613981742 11.719031992747857 9.142003144397899
Zr 6.223970600349356 6.144815621145012 8.212642823255912
Zr 8.450240610884311 6.829138018557724 10.715551493269514
Zr 4.554527722107231 8.202439960270185 6.390852116610951
Zr 9.051083880775366 4.5779962198914 8.815906403120712
Zr 4.625672028427756 6.7211530438962965 3.7949947913237865
Zr 5.827488845927819 4.612096531817302 5.478292853920118
Zr 8.021045993878817 2.622523294401181 4.7308283465177485
Zr 6.769067025405587 4.358788137305778 10.539791135384464
Zr 7.385043880784313 9.68267104170815 11.137179097536487
Zr 7.150142667281697 2.9221576934276445 7.57129796489274
Zr 4.93715919066796 9.392547292297188 9.113287626079973
Zr 5.561149314097596 7.204725416982357 11.014417861519469
Zr 3.2886809366142753 6.891690669688106 8.838339267020896
Zr 3.25652112757839 5.637534785095195 6.309516445766788
Zr 4.108238357000575 4.805663767215051 10.530015612114786
Zr 4.332287650110514 3.753784334361973 8.051264163634595
