36
Energy = -263.59186784 eV
Zr 7.628059148689253 5.41440213899361 3.0352758971660765
Zr 4.628153860781977 9.434122928323456 2.6281987951935077
Zr 11.27968586086461 7.6584884192054306 6.501370204502212
Zr 7.375432483884225 8.330828408983345 2.785752210158299
Zr 2.84430123583923 8.019356593726124 4.134924132437296
Zr 11.105917289701297 4.465260832034462 6.304965397115998
Zr 8.961702484013822 6.774931070538835 5.1409249747582875
Zr 12.412669981409106 6.081656326914731 8.525656368369974
Zr 5.466644142687628 3.738539890443449 3.754744968088096
Zr 6.386919772942989 11.086680322686567 3.908305804406835
Zr 8.081678806208389 3.784367462721322 5.4692030522513315
Zr 5.801923230567177 8.57244045930697 5.323288597529925
Zr 10.776039006524329 8.374659556185394 9.368974297605297
Zr 8.612294712865411 8.804432600959595 7.5665205332398635
Zr 11.305761239284998 3.6818455062117597 9.261781341804667
Zr 4.8518828025413585 6.442372213503853 2.7360925246727166
Zr 8.679907712452298 9.804758433767631 5.00051039709088
Zr 10.76007068462485 6.015062841234533 10.946646537953303
Zr 6.0396535004088525 5.840645264104354 5.744321826524875
Zr 5.175590389461578 3.159072787962284 6.469082458446091
Zr 9.369744984778084 5.869117707396685 8.165651897291983
Zr 7.984282625036914 7.327834500194493 10.51277987689942
Zr 6.550764832015013 11.135380455190562 6.815288998284455
Zr 6.64263384685835 4.568160843065877 8.556825435330781
Zr 9.044272370693395 2.78908087202985 7.975761743137826
Zr 3.2250036443388908 5.275885574421986 5.11063158070219
Zr 7.157520979774296 10.175396340340344 9.59750644988894
Zr 5.872103853134571 7.667041736009421 8.389300249279065
Zr 8.656854215816818 4.149397040664084 10.571950166721134
Zr 3.7785809232054786 10.571435720704322 5.400507627009473
Zr 3.7751131005830967 5.257223302542465 8.152766956555544
Zr 5.221100087634558 5.938305366214824 10.747342705660914
Zr 5.304946750933302 8.845834985979344 11.113896586071645
Zr 4.267383789462126 10.21018541786232 8.530228609450859
Zr 2.898212771086682 7.94691232339697 6.912040021988632
Zr 3.1305850096612544 7.710700058933059 9.741021755193014
