30
Energy = -216.58123812 eV
Zr 7.078922646813048 8.79459866083065 3.4971855930727203
Zr 8.819070368054874 6.499485740944708 4.120442150965418
Zr 6.357881015262008 7.84882459231902 6.142224413527111
Zr 3.4426761812858553 7.436410476350857 6.573197135685284
Zr 9.344406397371706 9.523007164483483 5.156207001784316
Zr 5.418142124838195 5.943767036622529 4.464649646622094
Zr 11.475804236747567 7.540600681086593 5.413218651714944
Zr 4.447602471568846 9.11785685419314 4.5268406603863065
Zr 4.652629960809355 4.923157588182943 7.4034401432013235
Zr 9.17170260458011 6.987916799102828 7.048852995324626
Zr 5.3686338387923715 2.9259754898607135 5.506303916126293
Zr 10.932184470758076 9.23637962345264 8.039954393694464
Zr 7.6104104218297275 4.447410869621185 6.108682018532849
Zr 10.616195334665274 4.784895750625741 5.841725042745575
Zr 6.696784389508665 10.988112686385218 5.597164612145115
Zr 7.573105683875549 9.25364870245167 8.221750492563269
Zr 4.523534277318873 10.167508371780043 7.440075494044091
Zr 9.70848934103594 4.359114436479423 8.653429755933127
Zr 11.821336531156598 6.362784401581489 8.070573003878504
Zr 9.232245734690695 11.499885776259505 7.289874290312493
Zr 6.7946117387792375 3.380476150578278 8.731064157471133
Zr 6.9226583502377705 6.357210057900177 8.659589766348649
Zr 6.75420165743828 11.977815293967451 8.524240823876909
Zr 4.353997871491117 7.764580646232339 9.327334067212032
Zr 9.866712016363474 7.313730843376965 10.137500636109886
Zr 8.845100396089954 10.3891448011834 10.262747451938521
Zr 5.2335458016454215 5.2019910275916255 10.580100619892434
Zr 5.6531481958785 10.107327094525038 10.302680093680696
Zr 8.121251467599889 5.015755066041748 10.973043406536872
Zr 7.073753364600269 7.761366207075956 11.296646455760577
