37
Energy = -271.50434865 eV
Zr 6.494014302386012 11.122706896169168 8.71340959873338
Zr 8.813607378429893 9.609109443474008 9.970456468890351
Zr 6.508821496817538 8.390066903736521 10.923442826756709
Zr 9.373363115070921 10.558131855342198 7.34202017038083
Zr 9.433290275117072 7.110092338979725 11.58481195729435
Zr 11.131264423673583 8.25679360769352 8.873256258360504
Zr 6.992449423789497 11.232270454808994 5.805562523866199
Zr 6.80981198636771 5.501776474598772 11.687994519626567
Zr 3.953919030983119 8.763958712791002 9.00454878001395
Zr 4.950568437498443 6.034362641090397 9.552888799471148
Zr 4.353069192395314 10.290910703188201 6.499237794521824
Zr 6.788942187676313 8.63592255542973 7.7179471698355515
Zr 11.163706014674304 5.455660026449285 9.596590084701356
Zr 9.209035935155827 7.47890251856897 6.776645302709681
Zr 8.919718091869308 9.590901989362258 4.400716099757005
Zr 8.208509410084641 6.360612019224236 9.255307349365484
Zr 9.13619219654827 4.126621872385211 10.918859343061694
Zr 11.358521175527535 5.71692877463719 6.798570878223778
Zr 1.9375436639237487 8.506553205487348 6.7477045501557695
Zr 11.451363553862436 8.691256767944852 5.8129616993232895
Zr 2.35361394825404 6.220816230263012 8.326126391994373
Zr 4.464604695535698 7.041401933918829 6.4536792545991135
Zr 6.6654684518090885 3.6499549915356635 9.22252683634883
Zr 7.516005247305898 7.72221398682142 2.2184849787589678
Zr 9.600382379104849 4.0499852499831555 5.116358330880611
Zr 7.0139816940499164 5.298967220849918 6.608035548506478
Zr 5.613196068940757 9.742097159941352 3.684953700962565
Zr 4.125518706634054 4.034498958704235 7.280715972916495
Zr 3.05925101169468 8.687458997498855 4.225322656919136
Zr 9.788313313413488 6.688589266073073 3.954883489223363
Zr 6.826736914015338 7.512545635614478 4.841857328116276
Zr 9.342457412490154 3.612632998128173 7.958138845612244
Zr 2.3179050785830175 5.838657831007247 5.265945798842264
Zr 4.706548985967328 6.6469375354633575 2.990061227390715
Zr 7.089452503266309 2.7061674806013394 5.881437929838805
Zr 7.356962233967832 4.781789083116032 3.4130022963692728
Zr 4.804586158927629 4.232744372819891 4.583253288953724
