34
Energy = -246.423285 eV
Zr 10.220702797571358 8.031257767175124 2.18898587405458
Zr 7.568576338607932 6.507693304344415 2.848214987113113
Zr 8.017912507397103 9.381615142263117 2.929782294133448
Zr 7.26843802874714 10.80614773956252 5.295310929241815
Zr 5.430726550164982 8.592770622251612 3.856035188026442
Zr 10.145847171101204 6.655197894771108 4.442861087879915
Zr 4.610694409615565 9.816223834907973 6.630156309745811
Zr 5.010236919652637 5.509665358737548 4.32707051326615
Zr 10.169277539341191 9.648130637421987 4.86647235495391
Zr 9.30550085818933 10.71237440519823 7.685648627782574
Zr 7.731720351305576 7.8767340300387545 5.630477741401506
Zr 3.1290234360239917 7.737285449725731 5.2340420887338786
Zr 6.442533115790157 11.746347424062622 7.822111822467536
Zr 7.7754235204572 4.762293717787746 5.315519635751719
Zr 5.370806942793591 6.700518510787614 7.074224711845178
Zr 2.7962660870233274 5.2483225655826855 6.315354020954125
Zr 10.352525343087388 7.888486873075265 7.335049986361857
Zr 2.8917086009768584 7.747524406076035 8.180226328825697
Zr 5.316283059091884 3.703975559697596 6.7346619395169345
Zr 7.091076946991382 8.793996589785579 8.424656509107892
Zr 10.468157561923165 4.750755271501944 6.96688299805299
Zr 4.8575116007561645 10.130799107949173 9.721373532012658
Zr 8.062127417887 5.94838376082237 8.192742851143368
Zr 7.743068929093585 11.218504603832436 10.174367719340873
Zr 3.600568735062008 4.97202508930365 8.91188079121492
Zr 8.186974084364238 2.8829716724948646 7.6552184352557955
Zr 9.61609249656951 8.896204663346492 10.092354929408755
Zr 5.090058582052674 7.067407875818323 10.272858932362618
Zr 6.1921031048773685 4.190815230115678 9.715054531646858
Zr 10.790916438460233 6.009918727839295 9.689347751821318
Zr 6.921316916585543 8.9701574052143 11.500433540596182
Zr 11.08254089996613 2.99275339746941 8.848268655097016
Zr 8.034049940865803 6.400583007653872 11.140491885442723
Zr 8.96417968298793 3.828418033388867 10.288296885489029
