39
Energy = -286.9724605 eV
Zr 6.326410057977907 9.314623455341446 2.6196454713721846
Zr 8.604837454524908 7.406501716526224 2.4103147888152208
Zr 5.860744939461372 6.621309176667651 1.8160877022758841
Zr 11.026776232489311 8.308962682837123 3.5791777566411747
Zr 8.72265994365993 10.071718412125685 4.00814272605559
Zr 3.8486204639433717 8.016827622174977 3.382296027235981
Zr 7.49378505423741 4.736221436738425 3.268115092612384
Zr 10.278912452622615 5.4981637415439115 4.142818167177008
Zr 10.995340475704912 9.93293305188339 5.926880302325854
Zr 6.022685108616373 10.149198981889512 5.394721367441116
Zr 12.049847648071447 7.248458051944125 5.996683975253287
Zr 6.2687587437551295 7.110595978380748 4.795424408309205
Zr 4.359625946434708 4.917717654493714 3.6713597255426547
Zr 8.310454999600816 10.315222040683665 7.1156244679829
Zr 9.035769362347313 7.609516877861634 5.844065119003491
Zr 2.604652403831064 6.448153164567078 5.312924451198243
Zr 8.092713940963014 4.55923481723578 6.357029373080652
Zr 3.5957368198779602 8.962578609852425 6.331703221333507
Zr 5.962469993950171 3.196543457736013 5.3117202100235925
Zr 6.0500005789669435 8.322059541398925 8.160126316520639
Zr 10.54094021595977 5.180437831004099 7.194581716397143
Zr 3.2469485476624254 3.7952119287413244 6.466008507481736
Zr 5.478392740473439 11.044295792950173 8.307376075022033
Zr 10.503027912107074 8.441955549352606 8.413775617889062
Zr 5.245934794146825 5.631636510942686 7.277991535146694
Zr 3.21596500492552 9.229063773097007 9.10300847769592
Zr 2.4673753756348074 6.5917562105289935 8.065857362939212
Zr 5.806099473401176 2.8554243468736513 8.10700847255404
Zr 8.824387435420538 3.602704459070942 9.22321738153442
Zr 8.257945265465247 6.532421923997843 8.939542305784414
Zr 5.272719387369507 9.679810838407006 10.840912363722193
Zr 11.021523524880038 5.75753868049384 9.887156383476935
Zr 8.035558972623143 9.88007541311904 10.026596336514576
Zr 3.589501483614823 4.221360879650108 9.367546203632777
Zr 4.221582488019745 6.848991369324458 10.497691987743828
Zr 9.773765198506762 7.916549686526624 11.252107358368656
Zr 6.261738656082448 4.633995815985656 10.482908465495763
Zr 8.848660944460475 5.248857272153056 11.660432001831172
Zr 6.92906961855093 7.504598975481974 11.649964767379798
