37
Energy = -270.8287805 eV
Zr 11.812213895956356 10.074699247392804 10.303962083453674
Zr 12.54680389181918 7.044892895336926 10.520183037336459
Zr 10.748069976118275 8.240828904213723 12.359217352272191
Zr 9.422656848252782 11.754904328353879 8.791267112770237
Zr 8.81114828207077 10.292546447789103 11.379709438765282
Zr 12.887522113548888 8.161328137976932 8.174576843566332
Zr 10.215123342213438 5.644322306613401 11.292408395182017
Zr 11.27383126455417 10.110193436198418 6.96384891613073
Zr 6.7055158322600645 12.368950502071907 7.53561636883587
Zr 7.995103893647339 7.390490384874865 12.099195672715284
Zr 10.104429016274992 8.232922842043624 9.287484767563098
Zr 6.821680084651393 12.004196980271567 10.30113919273758
Zr 10.760012991362565 5.498534963355767 8.333158986264117
Zr 5.8628852530713 9.300349686839976 11.140037977453497
Zr 7.6605643354783 4.564037403453445 10.741350283213162
Zr 8.637593614328932 11.049641487904454 5.9277448570140905
Zr 7.313639441195093 9.591674229358754 8.489573179172119
Zr 11.724083851747652 7.187735151808102 5.764100912182405
Zr 8.891076563993897 7.743645596896172 6.376661266824755
Zr 4.589788052537937 10.838352634431153 8.828775969254641
Zr 5.395909382839959 6.355131802580478 11.073417487339498
Zr 7.715881671784015 6.661006423666135 9.05307657870418
Zr 9.762369454484414 4.920952935329842 5.661232558995901
Zr 4.429977791036399 7.9582089903619595 8.790992409821577
Zr 5.55882452506541 9.971240531875875 6.073168528469989
Zr 9.703981342455128 6.84163000933366 3.605281544543024
Zr 5.800239992042836 6.818061901030862 6.4581358916092215
Zr 10.436396081651685 9.455561968925512 4.306593965464512
Zr 5.308071695117438 4.662892338551747 8.770738565600693
Zr 7.54763949146456 8.867509847854958 3.925358993565893
Zr 7.059308532041731 5.700532652770687 4.242377274920814
Zr 7.63900392679085 4.149334222191786 7.248049236864157
Zr 3.0724653077590465 8.211226757628165 5.989986016282917
Zr 3.056734383274094 5.652724557333676 7.218516005846745
Zr 4.862910210196038 8.199580800253631 3.7971514001273605
Zr 5.056201942362568 3.9053362464447776 5.9365813970998405
Zr 3.776298537853184 5.803228486108549 4.381314889089293
