33
Energy = -241.17789034 eV
Zr 9.549692916292152 3.9319742802740576 6.254840632632171
Zr 7.64830474334808 4.167541473260275 3.885183811055544
Zr 10.471100394425921 5.138489639089781 3.948819761340696
Zr 7.026444906189352 4.279985747568237 7.199974149907691
Zr 9.729547142511915 4.945071152625933 8.95919978305244
Zr 4.399716118114684 4.416148009789259 8.163198958440958
Zr 4.783763811980397 4.314663224706848 4.910052039057955
Zr 11.538185896347358 6.047679079683068 6.565637938615133
Zr 6.9452544286406095 4.7611935805770536 10.307813334315455
Zr 8.722166264302427 6.6723830811439475 2.408479484429356
Zr 8.044418033808686 6.609090870146649 5.2341285610333985
Zr 10.650897808596243 8.062500254434992 4.312761197608208
Zr 5.873868994140491 6.633306123059031 3.0587051060852564
Zr 4.154831738904226 5.680661014457157 10.81868979855247
Zr 3.2304996846842675 6.673060218345147 3.8737387554902174
Zr 2.35501307603149 5.351548561850426 6.238227541430488
Zr 8.941599402676218 7.427443607961303 7.617596309496798
Zr 2.7282214127370064 6.960261683209124 8.614844298464714
Zr 11.321492865709207 7.394073686842739 9.282914015739856
Zr 6.0334744876999 7.097168499272762 8.840512115251526
Zr 7.6898575951501105 9.094345200398607 3.7174982714231346
Zr 11.571191797841621 8.970596785017086 6.990536371190503
Zr 5.047277452770164 6.89230901287016 6.253638753943233
Zr 9.322652372236075 10.126100771592535 5.877991178167025
Zr 6.243664836664364 7.282389329992727 11.831444084281504
Zr 4.715795309281769 9.215707775331516 4.540507924039181
Zr 8.759147976130272 7.364511732544656 10.688132907256962
Zr 2.307114094256144 8.251003894878307 6.024847917418567
Zr 6.818824130303372 9.724813443500137 6.83704726036933
Zr 9.482017817511224 9.867576518254905 8.918828980355984
Zr 3.99664913832419 8.578537640062594 10.648736130590764
Zr 6.678699281302967 9.668275200449957 10.057420115113867
Zr 4.223883746057782 9.539177184859065 7.867584187478538
