37
Energy = -271.17395651 eV
Zr 6.6593180909199825 5.222573622410222 11.799206883179957
Zr 6.655842699237036 3.199798205087639 9.586447100286735
Zr 9.043587030039193 5.241581559327087 10.19577267660121
Zr 4.28788519849483 4.2485157997876755 10.811925950034523
Zr 9.233467481925155 2.9092277113908325 8.555879607843897
Zr 7.575939248115222 7.783962001245979 11.073348787184994
Zr 6.945928405231972 2.8108651048246243 6.628486083009395
Zr 4.427219690581518 7.2404140212433 11.304469968946924
Zr 4.240574066001564 3.698074506438171 7.8683591763128335
Zr 5.778964971883207 6.193137846888981 8.962949456526985
Zr 9.794348854910801 2.9784065725895976 5.921070417545028
Zr 10.292738231512066 7.564887860917014 9.293405621873944
Zr 8.394011893925473 5.5832825092301634 6.946654880453725
Zr 11.151373515577902 4.932115934729175 7.782804279799827
Zr 7.857022736300211 8.52667082653503 8.18224090981089
Zr 2.646862814201736 5.791483093276821 9.346332467394115
Zr 5.656762831888595 9.505507828494693 9.817135232880844
Zr 7.899104174091756 4.270990408769402 4.142104227778764
Zr 10.697223855038098 7.699982470815727 6.466736262129449
Zr 10.716268501147365 5.301503658362946 4.821335068896596
Zr 2.8383744691059345 5.93168764076262 6.501169930354579
Zr 4.943300240106181 4.332705080980383 4.896360332549166
Zr 10.295868345638128 10.447976788297106 7.315438739356502
Zr 5.699225886863929 7.051586237864914 5.976973288897578
Zr 3.3138792663185033 8.325465243202022 8.465370554412427
Zr 5.299209254567739 10.05286491647461 6.964750088352791
Zr 8.916813721557396 7.209096917243121 3.9184817085713806
Zr 8.0111131285833 9.352322383468334 5.615304244309071
Zr 10.730477970906025 9.761621784611528 4.389033612632976
Zr 3.6649777370981678 6.746740963511515 3.7948145957048505
Zr 7.702914784198656 11.68054112847553 7.549722344425803
Zr 3.0719354754661428 8.762365202612985 5.621243983156935
Zr 6.306266424517003 6.3840161898307715 3.0269673710637557
Zr 9.29916305828434 12.10744076548698 5.086026210825398
Zr 5.488421803717255 9.184601477065367 3.861478014093122
Zr 6.518930675533757 11.866019295757598 4.816329274853459
Zr 8.25714952673374 10.356855425075251 2.9248228348086998
