35
Energy = -252.79350058 eV
Zr 8.636707485560446 7.516117984068458 2.966000640864928
Zr 9.206972003882566 10.53288015471881 2.6371183900132724
Zr 8.028208335736894 4.817594159111997 4.252346686123087
Zr 5.91672879566209 6.944953666052274 4.368095554405968
Zr 6.984534772743804 9.904557821445225 3.99667738808619
Zr 7.337360016106016 2.2729185384043635 5.52202638167922
Zr 5.226137812454643 4.294554959834948 5.601880538455559
Zr 10.720473265379654 9.031469473042188 4.284985992164351
Zr 3.106622775271828 6.490178406412352 5.61924025931227
Zr 4.148965498846983 9.376400121653308 5.35740289640957
Zr 10.443132834899709 6.321956996202683 5.227828968712306
Zr 9.738320417627346 3.605909795355272 6.46037465360893
Zr 1.6458499366829191 9.130699492136065 6.270951508748148
Zr 8.23697379799175 8.162663572541847 6.002478153483536
Zr 9.177845721434984 11.128916540456103 5.675210500296039
Zr 8.622527277715305 1.484802655205933 7.880904426907942
Zr 7.541978062734303 5.4651778322242395 7.1738811878747475
Zr 5.458821131798659 7.646877676479724 7.338707553772462
Zr 3.7979337394446273 10.132281342780795 8.260302419051817
Zr 4.127877138258458 5.149139853162838 8.2605817654382
Zr 7.98914074063017 7.927605270491339 9.052962243676246
Zr 10.935416305919887 8.900107275275921 7.08935759698663
Zr 6.516886749710444 5.400716514793955 10.279726222522717
Zr 6.510254710146075 10.646519790751215 7.023402448290784
Zr 6.276570370716909 2.96556898390326 8.136886067009378
Zr 2.461153404297486 7.498052875435826 8.253826923633213
Zr 10.51571140825632 6.145330758816439 8.355024914147323
Zr 8.942352847409577 3.9931404894449076 9.507508193560739
Zr 6.332737414630598 10.286033653014156 10.020499389208847
Zr 8.996360949575346 10.779670189159493 8.740576824509334
Zr 4.5033471121011255 7.70387385670173 10.181028715982931
Zr 8.827025959855195 9.612009227309139 11.451514263674659
Zr 10.880839035872091 8.611548616950502 9.899628526157802
Zr 6.748733015613104 7.845974336308894 11.883808334097518
Zr 9.313609259650883 6.5970421414841045 11.303351328715815
