38
Energy = -273.66568209 eV
Zr 7.235021149200182 13.47424250771781 6.0895941118119
Zr 5.626005549552478 11.727476560202781 8.05007183638478
Zr 4.495864693521963 9.250672805710645 9.352034020301677
Zr 7.615729405856017 9.463921866176799 9.24137732597581
Zr 3.592032768400358 6.78367858954012 10.518151676516872
Zr 8.539714701447396 11.468507634826821 7.331761122177534
Zr 6.5436404247813185 6.933364429978183 10.795905836750284
Zr 2.550897039754166 7.512047025194546 7.893753118651131
Zr 9.390323603740287 8.082292678978144 11.375537553171752
Zr 3.8540366656347844 9.834411338233497 6.476451025711155
Zr 5.412707560789257 11.831463051408061 5.1172690311618725
Zr 10.644976843945072 9.27426184766964 8.8169599910552
Zr 8.192432165960517 11.102378759300517 4.376491111883611
Zr 6.700099734917371 9.209529986571422 6.429157215676071
Zr 5.667516314830852 6.813252209855318 8.114961686003976
Zr 2.0092209962915484 4.888235527046536 9.441443784439343
Zr 11.138402593379038 6.133926291697368 12.465272126815984
Zr 8.568204947813346 5.244079829049136 11.901807930277862
Zr 4.952747629652078 4.264465081056409 9.809336361163922
Zr 4.519912202590671 6.92422542188163 5.363622326132369
Zr 5.752318372279992 9.382128304637492 3.7099592404764885
Zr 3.554793293797881 4.739149504131113 7.20877828745717
Zr 8.80587212522565 6.807698454803094 8.562163755318206
Zr 7.9210383795672765 4.0423413266736645 9.518834176330957
Zr 9.669155636502902 8.822443323860519 6.172001188535596
Zr 10.825057271699547 4.855201165965713 9.913958711494757
Zr 7.515548555913951 6.41478691412005 5.411862003350182
Zr 6.461531019863519 4.072933335749223 7.009735885868521
Zr 12.116090973621002 7.465676241704265 10.290414358811079
Zr 8.52320866212485 8.28892086798604 3.365759061461921
Zr 5.527679943081652 4.251341789650336 4.24648729846527
Zr 6.044177752128296 6.670789368645284 2.590030542911428
Zr 11.603300213398247 6.691642651255303 7.536384192820179
Zr 9.705840905627182 4.298199134943294 7.199309072322455
Zr 10.328216998445885 5.901409241240971 4.850567522365405
Zr 8.339041347360427 3.4906419590226165 4.642015924752104
Zr 8.775508937558834 5.572787560545934 2.540763283977957
Zr 6.933101102602324 3.753282278616553 1.9687886359859295
