31
Energy = -224.71430336 eV
Zr 9.158355321053492 7.969390664011343 3.5917551454571224
Zr 7.551323466065138 5.720203199530289 4.986857628289398
Zr 10.686959832248842 5.461096171893277 8.784136346676862
Zr 6.583024509163718 7.583095559028011 2.715341951592037
Zr 10.883035625347585 8.565880324241435 8.57969280652585
Zr 10.476742643431834 6.955271946068585 6.1062000598658654
Zr 7.818024960568192 5.2586043076182705 7.914564176078221
Zr 3.4433172902810183 9.007926535372333 6.340235506785342
Zr 9.954691479590036 4.136447249054193 6.059619843967313
Zr 4.855228728372756 4.153760331330465 6.259737787252663
Zr 6.245341446366601 3.172368588301741 9.10817380788681
Zr 5.891847951658476 4.405758103910003 3.350059075672284
Zr 6.076309339259133 5.948343544239441 10.644316660883709
Zr 3.8868579504756293 4.851036921429124 9.039602859268603
Zr 8.529371548260611 4.319866023749446 10.66992595778495
Zr 7.836783025262504 11.107563366981088 7.097788329064348
Zr 7.5362917410022225 10.55699008628194 3.812747652074297
Zr 6.5744011082834275 8.832221051721481 10.258989555015637
Zr 4.6635207153174045 9.43634484804953 3.608726060814716
Zr 5.458566613252484 6.960692409173706 7.58795768466264
Zr 8.940732188002462 7.102928921006938 10.640273948819754
Zr 2.739177642964853 6.216900372808493 6.903682551010026
Zr 5.2296498284015405 10.182507255391064 8.243263818211574
Zr 7.3829034746945315 2.847544015791919 6.118864292587438
Zr 8.312892156523805 8.151302353768406 7.964155480984797
Zr 9.857324113265651 9.75482375674999 5.782174371148247
Zr 5.3185349649732885 11.280306341421717 5.6501767252359025
Zr 6.8030505137138855 8.600860952384815 5.6268278237315705
Zr 9.211755058511393 2.7436296140702248 8.451493678493366
Zr 4.243642096522958 6.647913496894341 4.435121226579855
Zr 3.6886560757203304 7.812884396330068 9.460516234688887
