30
Energy = -214.787668 eV
Zr 8.75133632103943 8.711375237626886 11.089621498990002
Zr 3.13763678117075 6.341661264661747 9.458553453628538
Zr 7.256362191601443 5.396246214129315 7.056425547110735
Zr 7.174681075894273 8.827618343187398 8.456426921699537
Zr 6.922678843644287 6.751393854408763 2.8190451580468716
Zr 7.531673939138111 7.733090112183534 5.660502298825981
Zr 9.398466117990798 5.773817854044622 4.264965503974784
Zr 8.359032202781497 10.507158105276233 6.091161876356302
Zr 8.735176461247539 3.5989078813659425 8.840601404850906
Zr 10.360268018666137 5.720201989553967 7.223567661421038
Zr 9.034853657691913 8.770159243943137 3.4407068362829496
Zr 6.429328467165483 10.483808253600037 10.84506713130093
Zr 8.13509319519663 6.214665458248351 9.83662572671549
Zr 6.702426222551947 4.179906874728877 4.3629767239105135
Zr 9.142665670932141 3.3402319669750726 5.942106167432362
Zr 4.326986337956416 5.059988959449219 3.285346526698656
Zr 5.677799814051603 7.426446544805115 10.788264900778113
Zr 4.330053412762525 4.570999861666959 6.542276113141057
Zr 4.578300963226842 7.137121283536447 4.838937736167856
Zr 6.497106130509171 2.644246125902419 6.981620231127078
Zr 6.310739350685614 11.656110482286728 8.189359734894259
Zr 6.2721378168569855 9.49036015157909 3.7020789554981617
Zr 5.614652386725589 4.502856883843347 9.34035588758647
Zr 10.80615257370667 6.12272865598364 10.096564742252646
Zr 10.536908797920672 8.22605904841538 5.64351650462427
Zr 4.2724798445679575 9.582475437337324 9.21957135036363
Zr 10.210717615247814 8.518618347366619 8.50191259090861
Zr 5.202298738502652 9.995293754939288 6.25009149364985
Zr 4.876593074856252 7.163472422852329 7.726422477589983
Zr 8.891178277983354 11.070483707114338 9.300594628199484
