37
Energy = -271.41080469 eV
Zr 7.159759663404635 2.602094523847848 9.012669068461632
Zr 6.765933322515067 2.39028578998004 4.302547033182362
Zr 5.274527080087112 2.7137714321406 6.916966320277226
Zr 4.0807523268396055 3.204444798967647 4.331181760900815
Zr 8.452691700103916 2.961986755621566 6.510806827592887
Zr 7.234300575611993 4.507967020502344 10.984199253212498
Zr 4.712488295808409 4.360307167421252 9.376305481503708
Zr 9.641640593021146 4.284240419960716 9.03340782883737
Zr 10.735938067182909 4.720232943962604 6.300934091146082
Zr 3.3552722935564496 5.031791154181317 6.552402849465951
Zr 8.979610389756754 4.330544621836165 3.8462019617533487
Zr 6.063652145591214 4.578300726535374 2.4256430501957795
Zr 7.118328204495715 5.595977870473508 8.208776945734355
Zr 6.082018302013455 5.23369367567468 5.225305987699949
Zr 3.512209536310442 5.761529502568295 3.5658748316343054
Zr 5.844125151827821 7.018727870689662 10.550373614974594
Zr 8.939364977053902 6.841960478511776 10.569958388731282
Zr 8.505405602436184 6.7081192596889645 5.838965222863948
Zr 7.605959600338898 9.028037148938113 11.774792325373575
Zr 8.210196641741955 6.702424848199259 2.6882549204351953
Zr 10.650439844898427 7.08306190160628 4.560677369500926
Zr 10.48348874772616 7.1362093181595 8.08840528041457
Zr 3.9825630944208847 7.535795670790653 8.419800505312017
Zr 5.5339417836658304 7.686517756984338 3.0171443923648433
Zr 3.377374162623509 7.887465593019006 5.436126857169507
Zr 6.128754366776382 8.215401831830997 6.292135721981443
Zr 10.037185074883453 9.655740682845607 9.981530226819382
Zr 7.50153814112557 9.012749823790346 8.723644636516708
Zr 9.77578869342674 9.527406201837245 6.581794412394548
Zr 7.9723124090030915 9.23153151215197 3.924865166285365
Zr 5.0688121873212575 9.91678311081095 10.236230836466781
Zr 7.689961080682542 11.476692445547789 10.682987710386351
Zr 4.248166023313442 10.261633460501828 7.255658162246376
Zr 5.080077969777043 10.168856614272856 4.385930583214441
Zr 9.00745072574689 11.741265167804853 8.239480692437713
Zr 7.305825031050297 11.169371615772583 6.008722546767185
Zr 6.142519850109499 12.030280225263372 8.464578592319757
