33
Energy = -237.93245992 eV
Zr 12.443967783664531 7.834860387280375 7.537088531326085
Zr 11.707498878381507 8.032179172604485 10.250500098198971
Zr 11.626832428271916 10.381403355090528 8.451955288580747
Zr 11.075017528976241 6.362054712556121 5.611575119820936
Zr 9.783626740681973 10.107531660647748 10.61121467233328
Zr 10.797729407343887 5.609258594661409 8.651023409002143
Zr 9.794383492120899 3.894018270351877 6.5238767518729945
Zr 10.582707361146227 9.558107545473462 5.788162111213053
Zr 8.717303648461716 4.9237012565740494 3.8666899635601713
Zr 9.471877845136422 8.253355146278976 8.212725887500824
Zr 8.914800618288904 7.144682640966228 10.92142425500772
Zr 8.831751639599139 11.112935400484615 7.852681718325463
Zr 8.053108185509007 6.4928824344908636 6.110401517914461
Zr 7.0791725374966665 9.938389659720723 10.188948738623974
Zr 7.222095339713209 3.404645142709358 6.163223731949297
Zr 9.319484073428777 7.854505449670035 3.7355973695292213
Zr 6.001563793107736 7.500112024509044 11.181170589960644
Zr 7.66917003527993 5.2092209306856025 8.684632220284696
Zr 5.732336107058718 3.228981698902263 9.078044181954606
Zr 6.486714770877623 7.31585371276738 3.6785621743889063
Zr 6.760583029008373 4.7453656918436256 11.357323120055797
Zr 7.677560051223073 9.686013111476708 5.39236149466367
Zr 5.816159667168355 4.526356638762655 4.030736936757141
Zr 5.790439233268945 10.78049710943682 7.644193388747375
Zr 6.443480956427882 7.939291173195151 8.03561986834578
Zr 5.04017870525594 5.334032359528559 6.778224612395706
Zr 4.071427806682955 8.898826742335363 9.220678900531043
Zr 4.526447853475494 5.736121745215161 9.68078220488582
Zr 4.77630677680132 8.817801382597537 5.6827467213773035
Zr 3.4979984079574105 6.342658081730387 4.450709951717103
Zr 2.6371690580968403 10.208940722962662 6.99202844996486
Zr 2.6767372833654943 7.2445006347330425 7.151176774302359
Zr 2.045171025421299 8.753529276227718 4.755933819798389
