32
Energy = -233.01394492 eV
Zr 6.91159819625797 8.005522809631541 1.798212179320608
Zr 6.594512988541331 10.325329368680014 3.4229559852798115
Zr 4.301124535499756 8.715629098463689 2.6002835818118997
Zr 9.06817470295107 8.554215527294355 3.855422457382536
Zr 5.038864456300321 5.7344841830337066 2.8162085595271527
Zr 8.220295752650852 5.907335165048344 2.854417323247536
Zr 7.446929811971878 9.965542723852863 6.194354066058443
Zr 4.406750364201771 10.01269539182438 5.2411803526020195
Zr 6.091461188041957 7.515686344551509 4.6983183369723704
Zr 10.322182234940172 5.728129607683523 4.971539220049837
Zr 3.129404871868388 7.329554955754225 4.802139422767551
Zr 10.226376900308038 8.67584063893161 6.92123419581632
Zr 8.220869171721652 6.659538073227117 6.177777581574232
Zr 4.4156311329593905 4.939676140598736 5.959869961831063
Zr 7.234954353797385 4.2084746576664624 4.739369363735833
Zr 4.693166137756822 8.020534767406643 7.338360570198099
Zr 5.858255109437468 10.412677975266488 8.690056559852318
Zr 8.825913637928968 10.61579696436799 8.685228960040002
Zr 6.2974421372948655 2.499772605638626 6.734350378386947
Zr 6.46027460197402 5.2441439504181515 7.987205674549441
Zr 3.618289758646297 5.917631624921044 8.881585239012667
Zr 10.658803528015987 6.056059699740318 7.948942884010285
Zr 9.09153158477389 3.668650617488453 7.216203716387304
Zr 4.451499862445992 3.281630387256179 8.722559457318676
Zr 7.5524528829499955 7.912388889026702 8.699435146568938
Zr 5.064485763050577 7.973274671999046 10.454295635028485
Zr 10.025846280719941 8.11950148756862 10.073270707684344
Zr 7.514547514827314 9.694165819262802 11.019666308949782
Zr 7.247529210929414 2.7308343303291482 9.420163920035057
Zr 5.799266771567889 4.967951548442431 10.855903509206806
Zr 8.959973463900969 5.053452877626737 10.010086878136997
Zr 7.686047711478994 7.025454994508032 11.657403321174561
