39
Energy = -285.92402253 eV
Zr 9.325242595541042 2.554983169855028 6.131012329145723
Zr 11.161173881861608 5.315919713314813 7.9166376051952305
Zr 10.245878336390598 5.903384280630956 4.235066776038381
Zr 8.210933005481797 4.015248951643977 3.5696570382507473
Zr 11.402810605419024 7.842187652068126 9.309595529800232
Zr 10.247291916624693 5.5108028531795314 11.02493220880947
Zr 9.409708455274881 3.368573939605635 9.028215805764493
Zr 9.555131421324866 8.730756919735951 3.4901481678689104
Zr 10.260528683950385 8.008938013217882 6.535833314887968
Zr 7.549856734041903 6.5753207198345605 2.266286839432614
Zr 6.469713428730276 2.656597478920324 5.176524099871726
Zr 8.495502364411301 5.053446275104484 6.581322256964328
Zr 8.636809368787683 6.722388329422019 9.174869169464811
Zr 9.639955819119127 8.494083974700265 11.356972657824999
Zr 7.7976711128949425 7.329618909694263 5.078192242068317
Zr 9.1759307992487 9.883291932236235 8.72174055697988
Zr 5.584579026133867 5.657414248916572 5.021246897938914
Zr 6.605902541874999 9.442268264730675 3.05493688404975
Zr 8.255634993188 10.397240588223028 5.680584729139932
Zr 5.325064687787329 4.3624949210575545 2.7349920674068966
Zr 4.697842744403366 7.35324972577624 2.5503267100604963
Zr 5.683510801055647 11.43703141177697 4.934547127946953
Zr 7.6116885308531295 6.705173179384542 12.052592682890554
Zr 6.751129314347961 2.4734208906015684 8.074047867242516
Zr 6.874647695273809 8.297104442987614 7.669741510997864
Zr 6.041603259673896 5.457068103782279 7.873534862234291
Zr 4.880905956441351 8.581042558170992 5.7907561967181875
Zr 6.140420150582487 11.058499345611667 7.865774493853342
Zr 7.13585993875294 4.202375506963398 10.60738642599349
Zr 4.081695462773141 3.5848520415091794 6.544016665808788
Zr 6.830481397696462 9.192772415360626 10.497252026293113
Zr 2.7646412531223303 6.664636968048702 4.532588933374023
Zr 3.343082668740094 9.771792305468894 3.8229871129677457
Zr 3.454301510566389 11.091147598531167 6.5952922738135475
Zr 5.203175880707755 6.665968303917657 10.4892523989137
Zr 4.338600374841465 3.9323778368039894 9.464912009620672
Zr 3.274981756616621 6.3300892314173245 7.600283439740107
Zr 4.050447958376458 9.052918760777265 8.790574274089646
Zr 1.997035398641874 8.735229591581517 6.440453201455122
