30
Energy = -217.97630744 eV
Zr 9.969451367994697 7.236440796251199 4.065131282360927
Zr 7.791255754780555 9.08764165432868 4.458951506221004
Zr 10.593437584567697 9.488986934473003 5.5862304469684
Zr 7.392769781316553 6.09321992942816 4.075083060021951
Zr 9.609926090412953 4.716228430785198 5.138468870207719
Zr 5.616072805397407 7.299259221558564 5.869168028013501
Zr 5.70555901704546 10.142370556817571 6.080690664876788
Zr 11.440926589504143 6.629811867921013 6.582288580323923
Zr 8.487473288891325 6.942269931265428 6.949656435342149
Zr 5.0221875145623684 8.654779613521988 8.4807771569967
Zr 7.03717629591826 4.404689149425041 6.569275151131535
Zr 5.540043268464203 5.954231165218515 8.418429128519977
Zr 8.377023679112042 9.717229115995433 7.632753755761621
Zr 8.209883992588017 11.847731632684178 6.024249112310709
Zr 9.843005386671978 4.278211457816479 7.787773506474837
Zr 10.840113957865315 11.571778705406208 7.548827253985411
Zr 6.065204416636565 11.529565542654144 8.585398894362124
Zr 11.505899294388254 8.931418403691874 8.437676545713655
Zr 8.63431079979199 12.628516120433295 8.871882930683377
Zr 10.536534840742632 6.226700007015742 9.607540754570012
Zr 7.830189826393779 5.0052876487252265 9.740031644289955
Zr 10.447631732952638 11.003974367790667 10.421298891577514
Zr 5.858573677856326 6.885946254904483 11.097844418001396
Zr 8.146617387538472 8.58691811583578 10.172414748062119
Zr 11.191632997739609 8.294492392534774 11.231611350767542
Zr 5.225191447065222 9.86399333303384 10.917571759870281
Zr 8.809561719716177 6.669861161823655 12.205877215765058
Zr 7.605531371261959 11.437595715424637 11.332048508877657
Zr 6.841657722368467 8.871396892442885 12.915437464921967
Zr 9.44912311945147 9.623420609786969 12.819577662014984
