33
Energy = -240.94830473 eV
Zr 7.253352502899802 12.28964019895352 6.394070778694136
Zr 6.251920701268232 11.392981525676984 8.615801435637715
Zr 9.28942158344949 11.436038086873747 8.580818962318721
Zr 7.608408743272327 10.779950656192261 4.151717853086835
Zr 4.289642628638834 9.74656056171377 9.824122724706074
Zr 7.438955149238057 9.90611673811015 10.598077369817132
Zr 9.913055429671713 11.478121344544553 5.678032919663085
Zr 5.214579702350533 9.743494869484177 6.118157158940767
Zr 9.787504327515121 8.807188752724686 4.390653073734823
Zr 8.075812482421878 9.398010539734042 6.877872651575901
Zr 10.381621000315956 8.975553866175767 10.160431891813696
Zr 5.495708977867276 7.983207502723184 11.742256386473855
Zr 6.7777149673529085 8.221760117277423 3.6821484894532053
Zr 3.2210759002038887 7.983576078203018 7.562509776414688
Zr 6.0342088382601995 7.798779802061779 8.64247789093043
Zr 8.275556261711301 7.261667990011298 11.661985739113279
Zr 11.138398750433309 9.261865913876749 7.18151684129192
Zr 10.88526015623806 6.054569279245601 10.866537718743432
Zr 3.5233137194521835 6.895804388506026 10.0941769579155
Zr 8.908188430677887 6.831670952261431 8.73291751618093
Zr 4.507141518216405 6.778837128652918 5.285164574260603
Zr 11.9530864662331 6.916966047925298 8.532363130810994
Zr 7.382453306877143 6.547637506425369 6.106009040499734
Zr 6.5196861817618394 5.2579208622798275 3.5415575579038734
Zr 9.071874968228046 6.234925546728133 3.520347291709464
Zr 10.676091069772099 6.40060913869223 6.002371842738055
Zr 6.026842387875136 5.299920672486139 10.583727428035646
Zr 8.710254720561794 4.413261334139532 10.655722086356587
Zr 4.469845054559564 5.175199492488248 7.94789232382717
Zr 7.334547414565426 4.009437498045106 8.162219146446727
Zr 5.735188153577055 3.974230280548593 5.755216015343697
Zr 10.435555367635926 4.363733041220415 8.289755557093406
Zr 8.699411157953893 4.035048959395752 5.394361389760895
