33
Energy = -238.50309797 eV
Zr 8.564264153596659 11.00213515459168 8.488729544425212
Zr 10.949631973342704 10.057480634558745 6.845533641760733
Zr 6.034460278395458 11.614235704319368 6.653153995814145
Zr 8.68966436415932 10.766696144543808 5.440006492643072
Zr 6.388646825021132 10.899735980963321 3.773264339959147
Zr 11.740163164557462 7.3789106041214625 7.6826259918383935
Zr 10.06053901982184 7.93021340559151 5.0784997525690745
Zr 3.695278291873451 10.11100973254938 7.418825834826952
Zr 10.95893021622357 9.623931303832178 9.547353521616472
Zr 8.06114904519718 8.764509973437955 3.256931919076479
Zr 5.242672456111982 8.025661622623758 3.312479539066504
Zr 10.793451200361282 7.114816756093486 10.533753175006138
Zr 8.763292033048575 8.080059808066535 7.8192057020832415
Zr 5.995885958874068 9.560855223751867 9.14248641017459
Zr 6.225611782695845 8.730750855025123 6.007803419566997
Zr 3.9366696020823886 10.368294616394989 4.7059951082082145
Zr 9.843890866874041 5.27052730547691 6.438342700054086
Zr 8.424012208263685 8.910176586916558 10.67538078890422
Zr 6.066808626969534 6.018812969258555 7.496976932029899
Zr 11.461501895522812 4.778343274518291 8.929724106328507
Zr 6.132255727656748 6.8059070308727545 10.366028505108348
Zr 7.588881387061432 6.233591108384666 4.46267389092733
Zr 3.7257147037144778 7.643855537158139 8.749095473505237
Zr 8.713916571183233 5.513803409817744 9.287992942875105
Zr 3.233188092425451 7.733871673866289 5.621015525195244
Zr 4.845449087569325 5.341620911159102 4.829043268720234
Zr 7.472977579821614 3.5410716559756663 6.2632211896511825
Zr 9.567801439107432 2.755127355378712 8.050869094324359
Zr 4.103496421296317 4.808289306615449 9.565555268021594
Zr 4.817430922757694 3.1844359247448093 7.188577096819277
Zr 2.992535286803172 5.3588560026984196 7.060918802653281
Zr 6.742667881804364 3.6209528686640344 9.44396670385607
Zr 7.117268889087165 1.2897306250800937 7.907514490639007
