31
Energy = -225.51330624 eV
Zr 9.204641340098474 5.265553520491672 2.396399249756074
Zr 6.428474449159438 6.167165263978451 2.020084357919072
Zr 8.799395189100322 7.9715252738461 1.8194458718170048
Zr 7.389880624363976 3.9769805544699834 4.147600622947439
Zr 10.73980343366244 7.36338846815363 3.86573961258184
Zr 6.431785179520543 9.102195220228458 2.9406272518965553
Zr 10.038178164927915 4.9184820628 5.203799830768439
Zr 7.767646729894693 6.878019948429947 4.5580579729938755
Zr 4.739198021840567 7.202033703360765 4.245285319164874
Zr 4.623074132948382 4.452272787099502 5.406407998068721
Zr 9.007464767985425 9.656165622053381 4.244875834671952
Zr 7.833902994397652 4.852079605509135 6.966385814877085
Zr 6.713978560697886 9.289423333911998 6.035058778198798
Zr 9.629583023770577 7.819631100825564 6.707200378066837
Zr 10.07336740127946 5.648359617602304 8.739758124087851
Zr 2.6059275421650208 6.622875058351494 6.013851523390562
Zr 5.320643839769148 6.704863124692625 7.290362129910088
Zr 10.221827656315513 8.549133881747421 9.514166642358731
Zr 8.334740777070458 10.194422653179604 8.252333581313001
Zr 3.80708149803563 9.205230174569042 6.3329494205720795
Zr 5.593421195371822 3.6096892875256525 8.10915357281428
Zr 7.489399505398374 7.31665884024524 9.107691970636624
Zr 3.058120166610327 4.7363296908580095 7.985840167540568
Zr 5.397991894867317 9.843129307398973 8.703950997534283
Zr 3.000771312489725 7.631336414783679 8.852588355126354
Zr 9.390706666026505 6.6572810024231055 11.374933690320297
Zr 7.687708370106733 4.457261561152593 10.12251037708334
Zr 7.763678683139836 9.297792612245932 11.157678202790365
Zr 4.698355404978873 5.411510631776783 10.291808815654527
Zr 4.9494730090587735 8.25422898594659 10.898863879722052
Zr 6.7637257751796085 6.559109591542061 12.044646936723058
