31
Energy = -224.23712155 eV
Zr 9.219487197446595 5.268056128602811 10.505725860641645
Zr 6.220993061735383 4.704501460831812 9.8229197419051
Zr 9.693456623312736 8.245203527376937 10.442665507843438
Zr 7.060506128611503 9.77997606353542 11.140652966419378
Zr 7.2412370543695115 6.965687848196944 11.463940386344355
Zr 4.848590341292782 7.62179909032751 9.951691821262152
Zr 4.58546681029015 10.623507444863812 9.684888450523635
Zr 10.757674391439147 6.324870750386377 8.096873657026542
Zr 9.310002099333602 10.99347469926972 9.495104960103072
Zr 8.692779958026698 3.833677237788855 8.019534543652497
Zr 5.964085057830522 3.3353984150277665 7.300189793647968
Zr 3.5633613628139553 4.64472403330503 8.339114483306684
Zr 6.9440372096207374 12.177657782053661 9.165319925501137
Zr 7.907331965712696 6.764023049740202 8.392134793222874
Zr 6.94429942958721 9.34659269737868 8.209174995375148
Zr 5.331840274206124 11.5072827402847 6.941132308874714
Zr 5.049450137603486 6.487859368868113 7.156620166870885
Zr 3.9030110676669554 9.038717329307069 7.399742770467838
Zr 10.365967228405012 9.201623059926222 7.669402082380789
Zr 7.139292143929338 5.916590293707826 5.445427954981014
Zr 7.728712054807374 3.2365855745222487 4.749468271110312
Zr 11.395970797374973 7.091634076005205 5.227025694776538
Zr 4.701126282484123 4.161001588197636 5.022340941925975
Zr 10.153461618965471 4.659632080885854 5.778398852484903
Zr 8.38483222557994 11.288472718973424 6.59800079148469
Zr 6.13032166566455 9.105142939862661 5.336939440735728
Zr 4.566920597872492 6.87616227026059 4.056785588789497
Zr 8.948513551766402 8.248463842895935 5.428587487863596
Zr 6.365305976670505 4.958154815050399 2.722830953639383
Zr 7.1634172298780925 7.727703152469985 2.951840871706217
Zr 9.194786869665935 5.676795171356032 3.3072117030004184
