35
Energy = -254.95622638 eV
Zr 7.6659880699872955 4.666689777725047 10.72395150105678
Zr 10.300347527352796 5.297248985831173 9.567396209386406
Zr 5.2638874543523215 6.203096507606102 11.426059180605987
Zr 8.207198502733803 7.487573534015894 10.995478565165804
Zr 11.141847310534212 7.965139679942479 10.099981890840999
Zr 8.181404456212048 3.1106841963061798 8.238936563512489
Zr 3.7272265723911677 8.69528252363392 9.951155564098663
Zr 6.568404244954951 10.05164029913577 9.82042146968914
Zr 10.47365287986354 4.322809771123216 6.774525683441662
Zr 9.514240070863693 10.107981529497183 10.907581360953957
Zr 5.287168064862659 4.047856980650756 9.23181679150265
Zr 8.199303417427164 5.883912651598612 7.771155504124289
Zr 11.33298896765325 7.117269858179083 7.286729782904188
Zr 3.061099101545117 5.885522686869526 9.631641961270581
Zr 5.805631860999416 7.166925920037601 8.864172184738827
Zr 8.816246375174108 8.940362175972922 8.335035959885348
Zr 11.405857793901692 10.255619373094678 8.360495260087376
Zr 3.3539679100027024 4.823714213146183 6.773370957687733
Zr 5.735710644044372 3.142233134569892 6.59868730354925
Zr 8.8111714561772 11.917725692026234 9.004425532795958
Zr 2.8069189957074596 7.609260714494791 7.409023103107547
Zr 5.818675986578652 6.394854469791556 6.1442306816699555
Zr 5.02362969678452 9.331199314219687 7.0595141193233975
Zr 7.91528713684258 4.1844235625996005 5.06161497068988
Zr 7.894262223815397 8.503687094962642 5.762945845203479
Zr 9.80917441652393 6.405539119144273 4.7415638908816575
Zr 6.86119426827058 11.402078306674506 6.71468271597955
Zr 10.79126943243097 9.260134256638882 5.193193678445557
Zr 9.76053542308016 11.639198031875384 6.490250886003145
Zr 4.939583269617271 4.4551090315507125 4.221314740000108
Zr 3.74905325997094 7.15630463709061 4.620549228431043
Zr 6.809162210986328 6.59128579210638 3.3286270755949303
Zr 8.740443472752771 8.645082444383712 2.9716611251520373
Zr 5.920838882101408 9.515597949587242 4.005616651110181
Zr 8.47200568401828 11.069559761665111 4.210175898470314
