32
Energy = -233.85994192 eV
Zr 9.622601876498178 4.021112629370466 7.189514460783707
Zr 8.302698737834481 5.117637113380381 9.921683276899552
Zr 11.310855260389387 6.04562021150669 5.61507598899882
Zr 9.988802690688148 4.058961004112682 4.105253181139671
Zr 10.034776885365162 6.8709965725002595 8.100569701244263
Zr 7.373400585720594 3.1520332638403072 5.399102455750662
Zr 7.240596260121484 2.730859916388654 8.462423542182188
Zr 8.433831326800737 8.231102934372851 10.401459155864622
Zr 5.163748650523815 4.474085494205699 9.756853176770774
Zr 8.360625632995218 6.187308529222752 5.3209763756663335
Zr 9.794468223471105 6.906940848678099 3.068367629995784
Zr 6.343297280433525 6.365272851527027 11.549430648033795
Zr 6.765299567279189 5.42901220976167 7.419071735366771
Zr 10.434702477005995 8.837535244409986 5.717033223423901
Zr 7.577682384349293 4.760272880067504 2.852672065052311
Zr 4.8593342624191065 3.2476701058654913 6.990378588034377
Zr 5.280604681120111 5.164335977727252 4.6448617745999075
Zr 9.682273714662239 9.788341086728959 8.327437150241765
Zr 3.558786091335461 5.767923998692605 7.64289960692394
Zr 5.826418692411541 7.791480986811008 8.824622532002634
Zr 8.616048141755053 9.536803825924245 3.7317081242476577
Zr 6.688168108956369 7.54591492705167 3.066256643765186
Zr 7.429816750036168 8.646858129145137 6.609763031549365
Zr 3.637583435688775 7.237532741574349 10.524829174716222
Zr 4.5363433686782555 7.852198793880443 5.452304149989667
Zr 5.90551768344365 9.108762959793928 11.539344732071473
Zr 7.031267581499753 10.712180984954736 9.17412536111363
Zr 8.235926527662652 11.219065908956882 6.168049468454564
Zr 3.023950475838678 8.531310243047836 7.808192623610607
Zr 5.98852881714111 10.167797604320544 4.355562614001777
Zr 4.080503498363982 10.157294480120115 9.755370148524726
Zr 5.067758706345253 10.546486967469352 7.026849759830757
