33
Energy = -240.64583273 eV
Zr 10.45710272734941 7.8600570813452055 10.41181226281839
Zr 10.61376330964938 8.937718665007912 7.647460753327176
Zr 8.170893424547968 9.29676546303049 9.630853899211225
Zr 8.355191215991669 10.72012701156745 7.0781967817149996
Zr 11.426631283475308 5.885708991644682 8.262800626952018
Zr 10.343542981478127 5.170233117426679 11.064974912212126
Zr 9.373194720719827 9.30663715421968 4.6408438196432655
Zr 7.820298465763701 6.8195415924384415 11.574296365294893
Zr 10.962181959384878 6.9327986193494375 5.590586393029889
Zr 8.144218339161933 7.699457507282885 6.480024319452114
Zr 5.656070668789458 10.016220015318897 8.065607125815127
Zr 8.579242414780188 5.985935717415191 8.852196629091129
Zr 5.567642500841903 8.366040040433525 10.574100900811999
Zr 9.897933387743842 3.3139777933320445 8.937220474550147
Zr 6.299222882300229 10.246281381881474 5.170258168910702
Zr 7.768502754972241 3.8833311131006973 10.868857243899491
Zr 3.403200097565669 9.374116695503554 6.143773291657189
Zr 9.516792547918007 4.393704645028478 6.299006522955136
Zr 5.983793316239889 7.036884838314708 7.948217954806866
Zr 4.318548563648301 9.58805404215227 3.2725900944952904
Zr 8.833488082854068 6.294080418233824 3.828938855288928
Zr 6.9868710930962665 8.339877907342691 2.753192434149255
Zr 5.3396235611066585 5.397254304635908 10.321933127616594
Zr 5.207872433021464 7.251612881385375 4.973564182895486
Zr 6.65324466307539 4.7894354450287535 5.6346452211321
Zr 7.0295003223363155 3.423896165321867 8.114642467896411
Zr 3.4280936196916407 7.539433661571616 8.798735102709138
Zr 2.468361381671095 6.447166271466367 6.396385275049185
Zr 2.361249369079935 7.5813456964276655 3.941804061281701
Zr 4.234746121762398 4.671662815922973 7.501146703927473
Zr 6.3551010617873 5.27751670544059 2.795800817637187
Zr 4.381265296193945 7.0005155113214 2.034482799760402
Zr 3.720174791806008 4.865084841555043 4.121535220481081
