32
Energy = -233.56043702 eV
Zr 6.129869716922401 6.6515962605116705 7.632069543074898
Zr 9.80439660489376 5.131022834585377 12.029807676045822
Zr 5.125444569523073 8.687260653754155 5.858390522771891
Zr 6.80102091697666 10.362224429410668 4.520927036795525
Zr 5.6682840238102425 11.478129329584208 7.039469133259071
Zr 7.685910778101544 6.748101769316105 12.465467122697582
Zr 7.7376712934137535 9.40413475312061 7.430094987828522
Zr 9.4587473567576 9.832710509434152 4.690717832293922
Zr 4.668675746207072 9.103229701574238 8.487043548705472
Zr 7.695461005249992 12.733517419438948 8.675693428159914
Zr 12.724394046718453 11.307317414347837 9.101277793497747
Zr 10.191492334272501 4.182838181114432 9.506418325415149
Zr 7.66964489090803 7.508010817687305 5.046583965667009
Zr 9.847103007701772 10.370111193590846 9.976829522132334
Zr 7.814506339220794 9.561524539260835 12.324213244910244
Zr 12.097012136175982 6.327318597584214 10.720806663817147
Zr 12.513617399264708 9.564973931615215 11.432620821305695
Zr 8.739978027459673 5.380486092855238 7.278599037028504
Zr 10.258924994717157 10.745880462083537 13.022637995010516
Zr 7.43046668464865 5.013460114698234 10.08489068987089
Zr 10.891081729910905 10.715130411688758 6.981921209337904
Zr 9.391029999057134 7.2140833246453075 9.705513552716402
Zr 10.332182057613101 7.7503175773636706 6.38290904841431
Zr 12.287613119145757 8.49975972820193 8.665048974283618
Zr 8.484000431884597 12.205193079959223 6.011082606778127
Zr 11.696121659353544 12.455921654308513 11.408744295199392
Zr 6.290525884260814 7.883889092029736 10.339346285927508
Zr 8.751608159128697 12.670786432242592 11.35999200796312
Zr 10.476512115975654 13.143517642203896 8.83121699082939
Zr 11.623957417721991 5.788021308245737 7.867663537648038
Zr 6.3090186942094055 10.881087825873445 10.1171501331053
Zr 10.403540641424895 7.907442027234705 12.723964941340848
