33
Energy = -241.28645751 eV
Zr 2.576851845308926 9.233791113595663 9.167935622592134
Zr 3.329529496539596 6.468712351960374 8.885638161635603
Zr 3.2975837602899714 5.368504488655564 6.232905321919355
Zr 2.723002116687783 8.277613880422706 6.452914788706631
Zr 4.23670876251976 8.112612989562034 11.287810790188768
Zr 5.749338419669641 4.530863296758424 4.938509537383778
Zr 7.4339035152096455 5.372346682303243 2.420384567506569
Zr 4.092382403510203 6.93643755026135 3.9288419857862182
Zr 4.472725452698728 10.895579236839112 10.442474218838273
Zr 5.631071630641584 4.613857452147299 7.976639967208973
Zr 4.269246922123108 10.926706007876989 7.302650560328494
Zr 6.490634069423186 6.397522029528222 10.293428257600636
Zr 5.542768410112314 8.715012983131556 8.729431923265471
Zr 4.74090202766338 9.63867266080904 4.716560687322525
Zr 5.632543275091702 7.285650329831934 6.369658876195658
Zr 8.005669047159094 2.8482587359154348 3.9299409077597245
Zr 6.818069370369476 11.391793643911733 8.935277958800471
Zr 8.05210393327159 2.9697862476463874 6.972499758560744
Zr 7.049095424032851 7.9734262249082075 3.8570252517874875
Zr 7.103405911646767 10.20973808428124 6.278525232954971
Zr 8.541111814034814 5.479992926117136 5.114474852964533
Zr 6.948588633828255 9.378072374365777 11.19735446883176
Zr 8.096412000162244 4.078697296675848 9.62290896332123
Zr 8.167624383282774 6.4010039273281105 7.6878849875738595
Zr 10.244385007094193 4.426420250665136 2.922996377732226
Zr 10.483848895164616 3.1584702689972386 5.4359005719160365
Zr 9.772029655402582 7.210938377013904 3.0368641522439392
Zr 9.573943739468477 8.536533782164618 5.639809946064594
Zr 8.683673589056841 9.112522907374482 8.765547582322522
Zr 10.54790359103676 4.47856976806998 7.992860495196235
Zr 9.576628416100267 6.491854333299277 10.23325806930927
Zr 11.397525110655888 6.050208080531429 5.358059804439183
Zr 10.988926417527727 7.4334629492860165 7.905370119639652
