30
Energy = -215.96414134 eV
Zr 7.5010122587248835 9.888560093337441 3.7479737902356827
Zr 9.989246261866091 10.541347617855774 5.030540692996749
Zr 6.109877195508285 7.214189877331824 4.992805470201576
Zr 11.251121832106236 8.470568328785475 6.601889271251897
Zr 8.026876387442108 4.972394234701093 4.487348731943446
Zr 9.373164849189854 7.6867648171887755 4.294324244684593
Zr 5.66107033399003 4.091536277591928 5.629631377242789
Zr 7.582459851149114 11.887721100560768 6.106637238125698
Zr 4.082986605124656 5.844454855539235 7.015492144281941
Zr 7.979243314741457 9.077998180160751 6.578985576558415
Zr 5.230304575365992 10.093398522956464 5.284972006787297
Zr 8.19248521276253 3.4397946719835493 6.826855167169955
Zr 5.319532806998643 8.568193411529924 7.886494473457694
Zr 10.027316215316196 5.737920553929384 6.414766936358807
Zr 10.037906266951497 10.868151315884127 8.043998819632572
Zr 11.960294703194304 8.903583416223968 9.346592387498239
Zr 5.827610466785039 3.792954628354664 8.614038842927291
Zr 6.993353683588099 6.132632493666589 7.677289089591794
Zr 11.64580169813763 6.226294364977424 8.71844849412414
Zr 5.191038089619151 11.608894809488032 7.643268727411951
Zr 4.4650204346273705 6.161864683270891 9.684602896985567
Zr 7.427619253127106 10.595469395333879 9.579398817408476
Zr 9.267683580363437 4.703531517884904 9.236153673853593
Zr 10.556693547375001 7.031101426506877 11.33493762296579
Zr 4.4845607813945 10.47631650311226 9.965014539221505
Zr 9.02139034032929 7.935139743008085 9.145347654340561
Zr 10.191860371776503 10.101391088183625 10.982350034027577
Zr 5.807632165754381 8.206056035378893 10.960191464011661
Zr 7.369626422866966 5.851806105851375 10.899538971592557
Zr 8.201687251160939 8.666446686759341 12.0465876004473
