32
Energy = -233.50431552 eV
Zr 11.8132857850055 7.119741315576409 7.50714192744212
Zr 5.420872533867149 5.016572736493215 4.257900550273158
Zr 8.628636146246743 5.097701255307077 3.849678051538649
Zr 10.648706979315122 7.30902758969437 4.848420065819542
Zr 2.992821560391791 9.02476232934547 5.873675433888804
Zr 3.963639781727572 7.893674195260336 10.67983529531734
Zr 9.863070202677056 8.308217093709226 9.677010270067772
Zr 10.39206981518015 4.6133993980141925 6.371185570909893
Zr 7.547912226405658 9.671182973858276 7.7243523907704414
Zr 8.815424426865913 6.661729136011303 7.590123894063957
Zr 3.59887966781303 5.079364555346678 10.047207885565285
Zr 6.21295161932691 3.754913977159616 9.639922082710626
Zr 6.760668367553457 9.377922378147519 2.673701682752866
Zr 5.196991995843166 7.242686386654755 6.360452201437332
Zr 7.478334434497572 7.495210696164868 4.978982518641098
Zr 6.878116522086444 8.56649138411489 10.589641611221234
Zr 8.398328329738105 5.799760752791556 10.793976868618788
Zr 6.644349832052514 6.520360112716625 2.1251985774075246
Zr 2.7524681285067114 6.145649561345853 5.285144066116304
Zr 8.863761400562815 3.70050134037553 8.66440859328176
Zr 4.12270800759371 4.394203202587525 7.2330025994554825
Zr 7.122983534753525 4.114237453610749 6.4431563655213555
Zr 4.423815896728023 7.902885225573874 3.528767914373964
Zr 2.7406516007115753 7.044425934850914 8.111547323565336
Zr 5.749470968130398 5.95399293651639 11.690135235943174
Zr 10.913689717358938 5.407692311703177 9.383056818054172
Zr 10.301277106156315 9.386734171545777 7.020247189253104
Zr 5.678127865194923 10.15684287664724 5.29309913398736
Zr 4.7030317552891505 9.476010282938724 8.388404778799766
Zr 6.016099106996655 6.478146647440848 8.790798953678307
Zr 8.86979325112381 9.974532525917992 4.660137598170208
Zr 9.130437166095488 7.806801135215065 2.542162087763271
