33
Energy = -237.43140424 eV
Zr 11.001917161383437 7.370610284685477 6.7782022900851855
Zr 9.830440537623007 9.066195419105007 4.641446442717087
Zr 12.401366550011614 8.41145465454873 9.027292330712047
Zr 7.905469053749128 11.00572066151268 6.2171576128381245
Zr 10.679636366868486 10.182336380920043 7.342706128353204
Zr 10.596351756666122 9.869162723747218 10.2867517659798
Zr 8.668250685036712 11.43253849947369 8.983286391171237
Zr 10.129406824623102 6.247915278719409 4.247457963969531
Zr 8.08717995464493 7.418549022140742 2.51189479110439
Zr 7.901489436407594 9.284631561740431 10.922207758182495
Zr 9.05749164316037 5.353106208843019 6.897247618175662
Zr 7.412816642993992 10.1459114100153 3.6254830575490016
Zr 7.122398993881004 7.450051939135887 5.236241473807886
Zr 9.844838830591732 6.9446276776546645 9.601544847408727
Zr 5.951413019869698 10.689528530262079 8.600937142076349
Zr 7.920639541318578 8.515743541075341 7.990461001082714
Zr 8.441822581595288 4.08585780529009 9.41291170959568
Zr 7.887433424890355 4.621938538105942 4.225079625620659
Zr 7.004713518911475 6.33759117135912 10.583526957916613
Zr 5.169430878981956 9.908667128981028 5.60778759264955
Zr 5.606268904554796 5.842815011640958 2.9342066551677957
Zr 5.294364607077409 8.60143548101649 2.9612091584243494
Zr 6.241759228163863 5.619599577583596 7.649717759163665
Zr 5.2626539368321765 8.701624786452719 10.489182833121005
Zr 4.523637826023062 8.061941804763716 7.841685454405179
Zr 7.2444780191659826 2.887614834281624 7.099732733490023
Zr 3.979411269867441 7.145435947767266 5.058103218124518
Zr 5.676957531004262 3.6410204016814434 9.885759824616395
Zr 5.043735742979891 4.311319822561927 5.224796932564729
Zr 4.032965243235161 6.121934225249344 10.118839537839577
Zr 3.2013114897352066 5.24060365786247 7.486196041286903
Zr 4.454379912101222 2.553207427259244 7.366163142538128
Zr 2.894147652061812 3.3130354859947517 9.515302546036024
