30
Energy = -218.10212838 eV
Zr 3.016850877675917 5.385117584451274 5.2005308109933335
Zr 4.8025959555082895 3.6467220317323727 3.4001041287254385
Zr 5.215141755407652 6.314174395007494 3.1729876103600656
Zr 3.7939138589930463 2.6426184918993556 5.883710170322359
Zr 3.8897644364689943 4.509870201312318 8.230133541506422
Zr 4.486136962646722 8.160812898352747 5.214688199945425
Zr 6.868178259832648 10.35035111354947 5.471673207050252
Zr 5.021173272994304 9.56126866904549 7.898961378122983
Zr 5.816760744569399 4.952546888175149 5.873790929765878
Zr 7.708780835544832 4.52766106625354 3.6913506474796645
Zr 6.578667949390452 2.1175403609933188 4.991011688798648
Zr 7.363437284281446 7.675136635372813 4.495131334842153
Zr 3.3640995737372403 7.183203292052876 7.534282965243431
Zr 5.942907755858879 2.3930316221248016 7.724965978221874
Zr 6.7870265972294845 11.65998431997381 8.141397654872845
Zr 4.9250667480504635 7.067309147292081 9.995070297899805
Zr 9.138588420526048 11.853537506506619 6.596637674412256
Zr 8.44423780337847 3.631735564772008 6.696834337265183
Zr 6.570364084678886 7.024981496898267 7.6338200475751625
Zr 8.5214011777195 9.057535376607241 7.691236186742027
Zr 9.929554645082666 9.387330079360726 5.155937163828224
Zr 9.23289035525445 6.27244488929205 5.830845531866077
Zr 6.813415097918619 4.519667468376092 9.239472238756168
Zr 6.982775686974335 9.592543214926312 10.298245444562523
Zr 9.247415574246416 11.403036972469575 9.534217083117728
Zr 9.544377106999182 5.8545379887586755 8.793701899954883
Zr 7.769436836304517 6.909667489978484 10.620235705400123
Zr 11.216251666939906 10.316924455310948 7.761299508920168
Zr 11.239934186585812 7.633547440259397 7.362588995801479
Zr 10.11089269271986 8.654449301541534 10.09896866982353
