36
Energy = -263.85765251 eV
Zr 10.442531169698292 4.876914456895488 9.364141495917398
Zr 11.263962401391485 5.131941895126232 6.704110280987021
Zr 11.05058454403373 7.589811537556075 8.455352272083719
Zr 8.997441142888128 3.3780298302107368 7.167803563255636
Zr 7.903253122300186 4.031966298413755 10.11766661022794
Zr 10.943175823164896 7.532753646097232 5.326429209917272
Zr 8.701475163041676 7.017430466635558 10.518750300247813
Zr 10.976624657480365 9.993185256903486 7.1062829830461665
Zr 8.765164446987749 9.724331690141044 9.074904674098365
Zr 8.59354651350109 6.346999683149745 7.436497437349286
Zr 9.117043660045695 5.159380232040716 4.574805204984205
Zr 6.6900406882983905 2.133647746685065 8.322357969662383
Zr 6.135636746079136 5.986581398391814 11.230328710723933
Zr 8.112831954760434 9.217974606622992 6.03215584799941
Zr 10.585212439613912 10.23138908609473 4.4124776322986845
Zr 4.693344344586908 3.5117117671726668 10.14575746699947
Zr 6.0490206897404555 8.957816290308651 10.802010818513564
Zr 8.932047724797643 11.903429992405327 6.447543691177051
Zr 5.6973944282886695 5.006563540040585 8.059563949458543
Zr 6.308892379968905 10.92948626463222 8.159328554786697
Zr 4.269317770593659 2.5194339449800087 7.260799109607425
Zr 8.25518506103548 10.990843336831809 3.508865154345553
Zr 3.750733268711327 6.702670944936397 10.037508673405116
Zr 8.710234940451834 7.900902819277506 3.329900286752615
Zr 6.255854929009806 11.587729634371497 5.2702061819552455
Zr 6.388353965094184 6.72419761727098 5.512701238357995
Zr 6.314874242485014 7.879573424189653 8.419928501783362
Zr 6.59680674334726 3.509498717516532 5.432758331476756
Zr 3.807862519174219 9.44117291172335 8.818199397538542
Zr 2.6857168486032337 4.6233355958058775 8.158724846830383
Zr 6.0371823018414 9.078693799904483 3.449778484676442
Zr 6.132529037128612 5.814960154387563 3.0980776343017875
Zr 3.9860288681010654 4.719184982462377 5.335634003517584
Zr 3.1435148015828975 7.176522329109882 7.0651286909041735
Zr 4.436007668003464 9.670026980260197 5.996924439131663
Zr 3.768523058339456 7.4076168427310645 4.233444704509948
