35
Energy = -255.69268127 eV
Zr 10.202060875703442 9.294331859047336 5.211259740802528
Zr 9.992336878883727 5.898348857832539 4.3127808424380385
Zr 9.066277882366233 3.0934551597898947 4.859111008250127
Zr 11.56735562311827 9.512716821727032 7.777030812060383
Zr 10.617806749059234 7.026720373718482 7.1655793896473625
Zr 10.93383399260002 4.233585346855213 6.5501673325560885
Zr 7.720425118175595 10.98865406059071 5.337486980580253
Zr 7.700159541666964 7.897508280743746 4.585149663334821
Zr 8.629640883275425 2.7544900465673483 7.851292412890808
Zr 7.126751028526712 5.036363372957205 3.7766152334094865
Zr 10.113250049227089 11.746982650653312 6.745414221817449
Zr 8.4631136536166 9.288143887947337 7.913903526966512
Zr 8.100271626740403 5.43252563056186 6.517006073454112
Zr 5.500687750484088 10.007485453645597 4.010166376777528
Zr 4.482240633407725 7.38900237780955 4.064144186304718
Zr 6.440064635274583 2.97756202824557 5.857279534468066
Zr 10.29106826826708 11.273102688426857 9.514203499994048
Zr 7.59705033172303 12.11306823488752 8.248742821487111
Zr 10.412315569505672 4.911386218918434 9.358879885279013
Zr 10.124561757755654 8.246757876837721 10.286581681186078
Zr 8.073343273973023 10.59225847844055 10.779523287609726
Zr 5.819359217356032 3.888924210403866 8.646102675495657
Zr 3.0307264716434728 9.687141307690986 5.317928220383352
Zr 3.2006720565221976 9.466640006022976 8.151123774056646
Zr 5.085005871112911 5.417586484418905 6.04517752801545
Zr 5.616559732183904 8.476191850289117 6.667320845454312
Zr 5.055265442773491 11.404828976661522 6.7433186269722265
Zr 7.686968320695172 6.430183938549919 9.106005914887142
Zr 5.6045642335328045 10.074937598682368 9.464826788513962
Zr 2.8952131649213007 7.113091414201853 6.575651598915698
Zr 8.077839776292409 3.6130139988037815 10.499251542470983
Zr 8.922926363345733 5.944964265603008 11.771936861774515
Zr 7.141750890514014 8.118144538843444 11.46293004378141
Zr 6.004023058658632 5.388854115975788 11.27085079640922
Zr 4.699237369068132 6.932440206972424 9.083623838746215
