34
Energy = -248.34355231 eV
Zr 11.278758476106988 5.745949651844891 6.122929217191056
Zr 10.35779145109818 5.003833955970983 8.727628184679228
Zr 10.540660191356814 8.279417073498825 4.854536496043432
Zr 9.918068848790801 10.987293692427315 6.927326787581854
Zr 10.721542744269604 8.025176804945245 7.833573020456636
Zr 8.996677299990406 3.768659836161895 6.312736195096621
Zr 9.57613872874043 5.4525060431558074 3.889576018153043
Zr 9.310231060925734 10.631873370689187 3.8619123475190413
Zr 10.391304973187264 7.354593356824269 10.522317933554001
Zr 7.610568955915508 3.604667482103088 9.259272762709616
Zr 8.323168477797967 6.603811621107592 6.145340124073053
Zr 8.930652831325562 5.035945842812837 11.337637550536302
Zr 8.027206960357216 7.950222170645268 3.325754763353559
Zr 8.473867323806463 9.539645300537622 9.421761413176014
Zr 7.670831815424814 12.321455947475496 5.384943765158483
Zr 7.710154627455909 6.758006840365515 9.155384433874035
Zr 8.010413733283531 7.680043001914382 11.985536113106374
Zr 7.7830677542421185 9.385730575705766 6.211600941845883
Zr 6.484384105009096 10.517491041691024 3.504016365595174
Zr 5.993948149892106 5.464138587230408 11.239544407756426
Zr 5.7628602297844695 8.530416983102814 10.806581746108035
Zr 5.477230269317774 5.876618301105601 7.147220715698945
Zr 6.513064231260043 4.82716343447131 4.458355592542576
Zr 6.4297590896976535 2.8169534089127537 6.826661445963733
Zr 5.476601203530381 9.039697661444306 8.098370172285426
Zr 4.57888946614331 3.7379025369809193 9.002318329712873
Zr 3.8345309975129567 6.723257062990416 9.604377569859054
Zr 7.064867671069737 11.684454752213352 8.036831247800647
Zr 5.10094689267118 10.96057891116647 5.928911776146181
Zr 3.179319780004756 7.973480963698891 6.84470793648547
Zr 5.4278344856109975 8.036454793608142 4.833414840264314
Zr 2.516739410411201 5.234992034313167 7.487180899672881
Zr 3.4975414254971087 5.94337036288141 4.810767527135452
Zr 4.068043787953891 3.458132002787474 5.91014762744293
