39
Energy = -286.26169245 eV
Zr 3.885659020967268 3.6569783162972826 5.616339313495532
Zr 2.583465343604595 5.797815617603953 7.20910334482219
Zr 3.5164043018684095 6.298442224410377 4.519341636727441
Zr 6.035484052208089 4.7547893297824695 3.9873421557027413
Zr 4.662851993255309 8.73187563263279 11.473751866807138
Zr 4.187735621203373 3.757641141390452 8.374898494940012
Zr 3.1180878998719117 9.166788938443789 9.08797371838989
Zr 4.450819200319367 6.50319211163042 9.558666656959018
Zr 4.009795739855239 8.429760807187918 6.531669106638764
Zr 5.606333061348907 5.987673908535849 6.728998532432276
Zr 5.208590330072796 10.35080920091415 4.958302430356913
Zr 6.114500291763782 7.736850577791829 3.692366154618159
Zr 6.206155924290828 9.084789526236685 8.751811799480464
Zr 8.261392154200182 3.0803488636132315 3.9239333405603234
Zr 4.669780515414417 11.244426680943818 10.440420404032189
Zr 6.80332750197399 3.1481766174023833 6.75791834625071
Zr 6.933954331102441 7.1245984824240605 11.432443514646547
Zr 6.588980247820448 4.3872273689078405 9.759833347903006
Zr 4.582564257169463 11.366232531960444 7.511356013821823
Zr 8.2735699495934 6.582491465789311 8.578997702002173
Zr 7.371839290399874 10.1467324878639 11.281624744062313
Zr 9.026249805799816 5.322660747282776 11.211400976845027
Zr 7.807565648061641 8.55690837830569 6.003213287716479
Zr 9.84869971153094 2.6746728045627925 6.179800631319099
Zr 11.365077252034721 5.142716950929278 6.954215954854164
Zr 6.9814125737221175 12.083448388327717 9.179652307147212
Zr 7.474786961760303 11.722377743958614 6.454865344012267
Zr 9.262789164917645 3.659196278181163 8.728163078634546
Zr 7.573341683827441 10.614875140903015 3.7856357044993283
Zr 8.697446739065679 5.917392139713499 2.875488498254314
Zr 8.566601188754465 5.453316254102227 5.780579653663139
Zr 9.66654436909491 8.21510812026482 10.585661615688792
Zr 11.15764819348833 5.885788710401106 9.625410330869025
Zr 9.230615506076315 10.44991430446504 8.603706857791687
Zr 10.855255040437688 4.383716588148655 4.1295644001759975
Zr 10.865384698523496 8.150866622405836 7.7218663385918225
Zr 10.04399693380367 10.301661543661822 5.582820420374121
Zr 9.15653004138177 8.63582933314217 3.1860044687306623
Zr 10.916948799742698 7.286757227058569 4.876044462493731
