30
Energy = -217.40140153 eV
Zr 9.713348059608128 7.358833028490613 4.53011456105805
Zr 8.056347816354965 9.50433357321817 3.5960254802653275
Zr 6.654702774025389 7.251004029684965 4.400621318751038
Zr 8.022774749369358 4.803024801664444 4.897715455969846
Zr 5.47515813437698 10.007112932477561 5.062177145610224
Zr 10.600485561653892 4.964769812771898 5.922896803869155
Zr 10.379366365820026 10.220045400382013 5.481860328761123
Zr 9.112949241753496 12.195505310707844 7.327888756740387
Zr 5.599829633695451 7.25537212311357 7.081460183400826
Zr 7.851124495673354 11.879501823064079 4.823288851248461
Zr 7.8304890223118235 9.45255870801291 6.674939388571732
Zr 5.795115561726656 4.3680103087689135 6.508119984841274
Zr 8.393366043486452 6.351768257914446 7.425191229008033
Zr 3.554215162668884 5.99030546464081 7.923548444437344
Zr 11.277824415429047 7.627144717856308 7.066880437501222
Zr 6.170178550156891 12.02540113153349 7.092321126901057
Zr 10.43779434532126 9.986662218682946 8.59179483723277
Zr 10.960763411253213 5.011941748019943 8.607646152022715
Zr 6.033435380094384 4.845628775078126 9.288418736805598
Zr 5.173838127732691 9.66201789998589 8.492696586858607
Zr 8.529065492679056 3.5295732888474913 7.697889508289112
Zr 7.431806556781282 11.157280690368466 9.520700591681821
Zr 7.631723713539787 7.929173600836008 9.586693818659455
Zr 10.698442277979973 7.394148116803168 10.067996225382988
Zr 8.7532886557804 4.938029749476279 10.465471034025608
Zr 4.52916414809345 7.301902546302312 10.260659201041294
Zr 6.419392791529338 6.187984990426674 11.867418913881535
Zr 6.413329888241269 9.2148582969156 11.770202061875297
Zr 9.32299712174159 9.84061314552049 11.25072925456128
Zr 8.813991752292704 7.381802759606494 12.352942831918996
