30
Energy = -218.18783359 eV
Zr 8.590443588293343 5.705972541883051 11.824676927803099
Zr 10.209549108338791 5.330893754070666 9.598852191950975
Zr 7.750766525024466 3.3939834743141493 10.032051205724866
Zr 9.331750398868426 8.063222839431523 10.187210613971365
Zr 5.825396195952349 5.139994939106688 11.575503193730109
Zr 6.74154792168784 7.923532810401688 11.462191133035317
Zr 9.321809717072703 3.949964967647892 7.243696729607031
Zr 9.812892730244306 7.2052152711972095 7.3894179846945365
Zr 7.274369161404929 6.064751339496166 9.10728151890149
Zr 6.793304020272709 2.8113579172039382 7.321523434712189
Zr 8.97741752175113 9.960320220103839 7.189302294881436
Zr 6.601566858360748 8.966049269487074 8.719987193006427
Zr 9.612123867701737 8.555371530686019 4.553008876312379
Zr 4.447514512043584 7.088854428138288 9.953337511020404
Zr 9.844778683299456 5.615028866189345 4.924298228415081
Zr 8.128568660988446 11.210309283158526 4.7938148564583845
Zr 6.354051590364791 11.242393368228978 6.991651573339878
Zr 7.072771941327281 5.795772404926697 6.184327032535489
Zr 4.842313576166187 4.1813613759579935 9.006605247424918
Zr 6.674729630342075 8.579438791112423 5.47833336009983
Zr 7.502358652058521 3.7219844079537565 4.542242063387207
Zr 7.819882162528926 6.543846517163174 3.0639615852535367
Zr 4.349027580244984 6.596897559599163 7.1812196986331935
Zr 7.621856392827525 9.549533207137051 2.664250906442388
Zr 4.120843859829007 9.598089011503196 7.0146289270476165
Zr 4.648926879100897 3.8735761444945034 5.913275230954942
Zr 5.151380745515272 10.664858671472864 4.217752056385281
Zr 5.134897840111086 5.628112932987802 3.811702847604425
Zr 5.3201492117700555 8.148966938606007 2.585756418603741
Zr 3.582780368782224 8.054104999156976 4.760428238827065
