35
Energy = -254.59143069 eV
Zr 11.489882055659875 7.113688633457723 9.939027140477261
Zr 10.387243530731249 7.922990510887737 7.33393591013704
Zr 10.46977628431188 4.920163365904239 8.091196158550503
Zr 12.909026863867966 6.497397403129545 7.850641856279565
Zr 9.369517367500928 8.124871427722471 4.300727068019046
Zr 8.996226742549588 3.376518856054452 5.7288786076677995
Zr 11.029089653369358 5.736552538059593 5.445818099882337
Zr 9.069572881065428 9.326474246481553 9.547309345982887
Zr 9.084359057646227 5.2930926743507145 3.4542455807702774
Zr 7.033057626719062 10.181820929809026 3.697185688235893
Zr 8.636829205767574 6.454981929850098 9.88043601451246
Zr 8.742979606686882 10.159669321776343 6.364430734968809
Zr 6.899386424054024 7.116228479556646 2.9706418232988954
Zr 7.786838011230024 3.7678468741439843 8.602015543566559
Zr 6.859232302953722 8.020615745763978 8.046143752958178
Zr 8.080696887185558 6.042612409104804 6.23229851790239
Zr 6.511594431492695 4.1821854091635124 4.005047628684298
Zr 7.095772841405411 11.067472514555408 8.85932261475783
Zr 6.155325931719052 2.2740781394863845 6.368818312176047
Zr 6.429285050102206 11.624833277739082 6.2435823025428725
Zr 5.935747638896731 8.365145180463974 5.596303360585421
Zr 5.763479622905439 5.6567667887781585 9.986822069820619
Zr 6.0364003823089405 8.816532509421569 10.456038011492433
Zr 5.266757242611254 2.8359572132861812 9.191739655884533
Zr 5.165903778873389 5.042041922167493 6.99322229999053
Zr 4.390017855061754 8.756640240863922 3.105058704813406
Zr 4.422103227644639 10.225556451254057 7.878807389287777
Zr 4.148349613327765 6.1133030547187825 4.12211970492828
Zr 3.8436657423721567 3.3659710783752788 4.775679460425749
Zr 3.819900701187242 7.395014511265551 8.437316075743173
Zr 4.222682437965667 10.823570442390404 4.9166444028482825
Zr 3.2530606810466383 2.570442826935759 7.297755807946963
Zr 3.067101155675426 4.7130437425334835 9.198336017596702
Zr 2.917180640912447 8.372117601717308 5.765437686250778
Zr 2.260330437112798 5.2720543792745325 6.409192698626036
