37
Energy = -271.76593442 eV
Zr 7.8397296587702785 4.683910806375048 11.361438339364476
Zr 5.864042077098422 6.974899639743217 11.408524778931387
Zr 8.693140407744595 7.4761437017713455 10.995608390445321
Zr 4.06651078025058 9.212146590028548 10.598159292024175
Zr 10.107613367534515 4.864425061725745 9.73734198901346
Zr 10.153863456800167 9.724045156678859 11.826807363336453
Zr 10.075422544133293 4.434941592663043 6.849655345538136
Zr 7.166459623987287 10.384065888482734 11.238421163610507
Zr 5.353373542895592 4.252373272454742 10.304931364320762
Zr 11.654496183645051 7.587123518777145 10.418534711828688
Zr 9.6881309015574 12.158579166067987 10.709098820111349
Zr 12.384666274276984 5.6391134057443475 8.210371388216645
Zr 7.26833615950255 6.03970775799453 8.646537181779983
Zr 11.998772785445674 10.474875500877403 9.531892741010912
Zr 4.008647339861275 6.617208594852033 9.100275766881925
Zr 7.714928722862021 3.237872466338435 8.647646614982524
Zr 12.959764870995071 8.29165514536264 7.894755332790814
Zr 9.15324310564981 9.83419666269625 8.928268454441401
Zr 5.059923556860477 4.169509486192115 7.596603707963048
Zr 9.982725461623167 7.38741430737519 7.644362605982208
Zr 6.310622965058178 8.8827684959141 8.866928251245492
Zr 11.872292068913131 6.856193594187568 5.553944094760059
Zr 11.40044491204399 10.111509799818744 6.431026795311963
Zr 10.450890810918775 12.421248302393824 7.990733181843406
Zr 7.160240296770777 4.685822695951054 5.78607016806377
Zr 4.694601039373805 6.568076921821044 6.173837599453998
Zr 9.295581411871579 6.059896810694704 4.608992578711836
Zr 7.521225911351142 12.317858247117716 8.695944662527472
Zr 7.292380772001256 8.431910239669827 6.267518243207719
Zr 4.853588643201216 11.43042442886646 9.286036447678192
Zr 6.7823193366477135 7.201357955439104 3.7754831257640813
Zr 9.558646577787222 8.836690823850752 4.292353977783482
Zr 8.718316547147142 11.337885298518122 5.969648494260785
Zr 5.707545710685433 11.2630192832216 6.429478359176708
Zr 3.717239047352228 9.2584244102487 7.529302935638789
Zr 4.6825558962761304 9.02713146040636 4.768026188447571
Zr 7.01093786551296 10.221930775059436 3.9035183037331853
