34
Energy = -247.51157176 eV
Zr 10.562759722535876 4.518103987192636 9.523471715357628
Zr 9.959256617594072 7.565639156975558 9.673358413488646
Zr 8.561330684658968 5.185266712013764 11.174513439082995
Zr 10.0268362841403 3.6082764754353196 6.958191097003357
Zr 7.918371057283393 2.9657384249900116 9.0518155503673
Zr 11.317005400819966 6.252912630578902 7.15864704365787
Zr 7.733492125762624 9.390382036190337 8.138132835458881
Zr 7.42213523083232 7.829094390355073 11.169227992638447
Zr 9.575457784707096 5.275459854359751 4.719942761433384
Zr 8.041833253219107 5.630146987594346 8.254455147255237
Zr 8.780264968344603 10.390057719703403 10.634988480914183
Zr 5.861562163821755 4.767353180261175 10.458730646601165
Zr 7.361305176899012 3.4540011922012286 5.852867116470364
Zr 11.008318586590393 7.9230473271880335 4.659563770086708
Zr 11.178166599848165 9.24777270447682 7.334881685636387
Zr 5.157162888223969 3.906326094784425 7.7615484784679145
Zr 8.744531939011834 7.645302972423139 6.280194385360513
Zr 4.755802776560224 4.213331476783504 4.815362369817961
Zr 5.999819891839149 6.702109779012655 5.945860597575849
Zr 5.698517337911582 9.903736500926684 10.333916364353001
Zr 7.0322841840649515 12.11016487791593 9.056713083382071
Zr 9.68948018448423 11.639396259669528 7.883195609034062
Zr 5.593475578188547 7.349545159793572 8.78128502695333
Zr 3.277105591260214 5.621889374692671 9.132432836895443
Zr 9.408167558053382 10.389210552873205 5.16250065667946
Zr 3.0309569170567006 5.9936581256185 6.117222478804021
Zr 8.065739197055725 7.858707730669122 3.459445508952365
Zr 7.015965503736859 5.141225738618824 3.413690915456863
Zr 4.9684609440767264 10.364385704770063 7.48620724647452
Zr 7.292534555942653 11.966213767589158 6.289362539135761
Zr 2.865109827356129 8.185395210848382 8.142407547373578
Zr 4.68843590228614 7.000378986079164 3.566916196707307
Zr 6.359609595708457 9.634212239753943 4.8734821621624596
Zr 3.545341108511538 8.779635402708724 5.518770727380498
