37
Energy = -271.20623258 eV
Zr 8.408419615818133 3.5838852265999996 3.2732370252489598
Zr 5.471464345792066 4.040839545600354 3.816696437377461
Zr 9.804469271013453 5.893713941263413 2.6430099481123266
Zr 6.845188225982813 1.884530650038424 5.052984458145417
Zr 6.9422645557315095 5.861947826307069 1.6333549670847574
Zr 9.578459188019288 2.218190982992056 5.7125151990006
Zr 10.612635827787583 4.866795170801609 5.172104911796459
Zr 4.051048107161963 5.8639459065490565 5.743359372064769
Zr 8.719976420249015 8.356567939724131 2.152918643141679
Zr 7.7621425390892185 4.6242831242624 6.2761637106320345
Zr 10.14139629115818 8.008764566776744 4.715078901450299
Zr 5.979533850111764 8.713933669953537 2.358288868422138
Zr 4.413163293664025 6.624348601882774 3.0934199211411495
Zr 7.558191753481277 2.0211488118184997 7.769213042476528
Zr 5.019940454013065 3.3915247050853115 6.861405791160933
Zr 9.935541298079158 3.864232634035533 8.0846239623037
Zr 7.269708125985372 6.788688870666318 4.359374072258025
Zr 10.043232916479752 6.683213233278709 7.324391548897406
Zr 5.076076827787896 8.685782641707801 5.248167601715948
Zr 7.675418323991473 9.917804295189908 4.403415466405625
Zr 6.663487123948151 4.112971578630729 9.329873337003479
Zr 7.9806241079544415 8.666355821609315 6.880087458978664
Zr 6.034781164878011 6.661800474131216 7.817169492720065
Zr 8.58406186172786 6.263362283685178 9.767013676115017
Zr 3.8300275136408857 5.468078148644341 8.962328670590587
Zr 9.647957979256319 9.017697855406382 9.5598269820003
Zr 3.432602629166234 8.381366401332583 7.745621608206483
Zr 5.461838707226608 10.782059450546681 7.3009661667742245
Zr 8.173505638149253 11.281182586054472 8.331779258493755
Zr 6.4793159354041325 9.018380527633104 9.53934285996852
Zr 5.975429796878694 6.4141040380048935 11.323854577862631
Zr 8.20756261103582 8.129768344957052 11.972032490532781
Zr 3.636913017912267 7.785288112270201 10.5934360419017
Zr 8.158121417415426 10.842198270796073 11.293980649748292
Zr 3.6767283449935984 10.412937802931536 9.765233326903463
Zr 5.914270182804907 11.929029971520402 10.058464885133096
Zr 5.479254561284994 9.530924543956209 12.13152905864588
