33
Energy = -241.34351971 eV
Zr 6.264904949182172 11.603598508030116 8.19855715974395
Zr 5.518594103302175 10.650678595648442 5.555475264723347
Zr 3.642244332979102 10.038682162760162 7.968200252630675
Zr 5.4046928994617 10.193604881470598 10.45513789656399
Zr 4.825196736760637 9.056880353307312 3.2089380083575634
Zr 8.3876918204177 10.400181947925603 6.632881860731382
Zr 3.1468417959708033 8.903417059812705 5.353340561656639
Zr 8.2868507195096 9.939118915766299 9.865438393551893
Zr 7.708393430199673 9.161369802304328 3.959713491049598
Zr 3.8952688214323743 7.865847402614945 10.027513190746918
Zr 6.14899194922993 8.599121876307963 8.094500158201173
Zr 10.61312417339432 9.483824544412233 8.204865971965503
Zr 3.273886695780848 6.926604937153176 7.292439499787259
Zr 3.673870066800356 6.377092174676535 3.9493172029321144
Zr 5.9457215407566535 7.244576660831892 5.487300561866102
Zr 6.291239292521862 6.891812378339426 2.5004387329689353
Zr 6.8098363921683305 7.60326506254773 10.92033046503446
Zr 10.036148895309992 8.042144967960445 5.613257037208238
Zr 5.318045173206673 5.6145348615922455 9.072453188540901
Zr 8.62890369840126 7.196239972573287 8.289062477848027
Zr 11.725714983066496 7.022151661733808 7.920968213136527
Zr 4.442990932945763 4.287062575007939 6.397574460467144
Zr 10.219416011654245 7.454024613127169 10.463427771991556
Zr 8.677105324857664 6.138290336685169 3.8895283808632217
Zr 6.051200927318397 4.416648049911369 3.939630724850618
Zr 7.496260901098704 4.996807310811855 6.771842754944554
Zr 7.96392471785458 4.717631472328716 10.057673148284097
Zr 10.572241256997746 5.028533209909323 6.10461780617215
Zr 6.136048554418462 2.931596462987936 8.601023115557785
Zr 10.545600031298536 4.800201271804341 9.039689762853808
Zr 8.809328937156168 3.2892286373243564 4.6373951678605945
Zr 6.537073638951249 2.2964012521622696 5.904635094160585
Zr 9.019847270548652 2.7441442945771337 7.613141504009511
