32
Energy = -231.15530032 eV
Zr 12.758750262629977 6.098981327535757 5.618854715190133
Zr 10.318380277382538 7.3825864166684765 4.717638250553117
Zr 7.605608012440969 8.635885271934018 4.516101116696809
Zr 4.946317039205091 9.714338191402362 4.371006431904624
Zr 6.8618366196248815 11.311007616347041 5.950494719726524
Zr 9.672772782416105 9.795101912565348 6.374567944361606
Zr 12.076334987449165 8.346904454467966 6.81775539759653
Zr 10.218426946852317 4.585667373974734 5.599522807942239
Zr 5.1107367343899215 6.929757461776514 4.172133549331739
Zr 7.796447990814764 5.631752756999259 4.187439492420553
Zr 5.607660094237449 11.665962252434527 8.574591247768998
Zr 8.267550044857371 10.429949486854271 8.77504558839134
Zr 8.651787525154853 7.1313574799164945 7.439478654970046
Zr 11.213152590916154 5.720420203035715 8.141634149653171
Zr 3.87360325359003 11.014333737291032 6.562942545215756
Zr 7.87367973520457 3.0088024387151595 5.288233781448752
Zr 8.745205339997767 3.8331298914346355 8.007574653958367
Zr 5.9512692994369125 8.841723398989625 7.215208843195134
Zr 5.161435238281894 3.701804224787842 4.751660891425837
Zr 6.078021287689929 5.530815141484172 6.810374160986342
Zr 3.143071818751191 5.510185190138133 5.789452033131802
Zr 10.642720050890516 8.401618962040743 9.256659218860609
Zr 3.636406604656834 9.378803166061743 9.003102134599967
Zr 6.286957740551945 2.4016187312525847 7.345746200458733
Zr 8.400908304001584 8.463571750953408 10.931783841173745
Zr 3.1125423108308996 8.190800033961043 6.286881619001778
Zr 6.014492088055279 9.903280384056377 10.618555032268565
Zr 9.039015230888673 5.859284884848647 10.192639291080916
Zr 6.149131760496528 7.135807881647734 9.808368389753285
Zr 3.634971780057295 6.253633638282164 8.628867242332776
Zr 3.8560538229492045 3.5439221997393235 7.579267220953558
Zr 6.102030998814878 4.28539274080643 9.550887742249152
