39
Energy = -286.10103874 eV
Zr 8.01453954771798 11.287261208229962 4.056800618561727
Zr 12.176559156792967 9.270510836074415 6.036866560492
Zr 10.042930041603812 9.287603167179883 4.011969687951878
Zr 9.802765650095541 11.023778450529335 6.541565382151017
Zr 11.50346426206235 6.724622463996376 4.6642803461449125
Zr 6.698829643092393 8.605135323225435 3.1093984460199446
Zr 7.024542325583845 12.136318143066138 6.573246910759014
Zr 5.176390483430898 10.647571432106606 4.584958749820911
Zr 12.369035233198414 6.786264981156116 7.4241910983221855
Zr 11.114200819962996 9.144684250074738 8.892229719006696
Zr 7.3328046647951535 9.266355938093165 6.168421208341832
Zr 9.708954811677991 7.804637524860895 6.721654163511895
Zr 8.594762183213966 6.6244608478014495 4.1170317888590375
Zr 8.137728522871257 3.8364897330829915 4.151292573784616
Zr 3.7035490974465897 7.965480785895575 3.413224217054638
Zr 7.790911791961018 10.18644003544664 8.968826400474027
Zr 9.934029585917425 4.8469350681981815 6.585898870082711
Zr 5.6688316656941975 5.647179306550057 3.3489894319095566
Zr 4.8302927643798235 10.552338153467046 7.4554242295979645
Zr 9.381732514816818 8.481917947903979 11.053787472059922
Zr 7.030940311405211 5.403164208091247 6.366100327545
Zr 5.13916254694101 7.717717386659262 5.6798663149036654
Zr 7.905795724159241 2.510371303670803 6.539580380929484
Zr 10.650478979551057 6.217257495368289 9.641056755215057
Zr 6.4969518342483825 8.19462284865408 11.280121801974309
Zr 5.044149801620739 8.246273712776986 8.781994062972247
Zr 7.789274786555687 7.073893817231772 8.877956385362626
Zr 2.5797270631515565 7.803545503623163 7.043699694265742
Zr 8.15569402430962 4.1171907325988695 9.015800448348143
Zr 5.2792797152423425 3.19443705483982 5.120043797711272
Zr 8.343400652629462 5.905612924284332 11.538490624728803
Zr 4.468363530726479 5.4291137320331915 7.686143189372318
Zr 3.0510563909512367 5.421828372855734 4.988236914050754
Zr 5.556752025142035 2.5544625703586408 8.158404382852297
Zr 5.6804920692948215 5.3242718628722505 10.396911640145904
Zr 2.902093485889157 6.6224876421809675 9.903019196313048
Zr 2.995115093969634 2.9495385493419155 6.862076971138475
Zr 1.510334432631663 5.1938003589366 7.692623363162344
Zr 3.1618937715730597 3.7200939331949723 9.655157303718802
