35
Energy = -250.01270322 eV
Zr 6.15462287217927 6.163255375186513 4.204120359402695
Zr 3.0790579495903865 5.818969387298093 8.069252266920996
Zr 6.220572381239463 6.22707774772591 8.656741685787786
Zr 8.17199446599646 3.799279260685712 8.136814426991101
Zr 6.12236264671781 1.8582213691220064 6.713306543116796
Zr 1.94164779227647 4.080261274197197 5.602181267663425
Zr 5.238782809476251 3.424601760268497 9.261444696496014
Zr 6.977878366617788 7.743827642477287 1.9234793143127045
Zr 4.676613023570406 8.90197211357802 3.8030179017792696
Zr 7.8036559706845665 8.716732639866866 4.806883467976938
Zr 9.26804387383202 6.128151151937202 3.7783710438306763
Zr 7.145798324002494 4.558382770425441 1.9969849225907335
Zr 4.390060653357951 6.116833451344362 1.9425995357867905
Zr 3.111141391023928 6.472316519050092 4.866792978973898
Zr 5.228837093116415 7.9353612671751135 6.533811931122222
Zr 8.23936728080933 6.185700590382592 6.492573558019913
Zr 7.688353606357806 3.5313056675690184 4.730484097934342
Zr 4.556681947333785 3.3311747306717425 4.070889335518084
Zr 5.255712829165025 4.543699914591459 6.522123510179422
Zr 9.100191190149763 6.833780244119458 9.334562029459228
Zr 7.45483197378834 9.08397687780966 8.073589148488926
Zr 10.286666786825823 3.8625256407795505 5.640584909217103
Zr 10.221725877553641 8.125229158123847 6.728950752342546
Zr 2.5697237628105127 8.794444976761412 6.802556033137384
Zr 6.24243373253215 10.831271440989092 5.67300153833519
Zr 4.049263900463137 8.382844352063515 9.393809128531116
Zr 4.468983634095634 5.896488969366416 10.908563230408834
Zr 6.683529598267752 7.845205392744024 10.968930765734004
Zr 7.271217863490381 4.952243248631659 10.972675825531114
Zr 4.614449231235506 10.665468975196644 7.816749522497888
Zr 3.3436875806064354 2.415106541719781 7.046257897792145
Zr 10.925285680017481 5.437678575215054 7.716922785094279
Zr 6.759373165851651 10.472029587201284 2.684919815542325
Zr 2.26593614005854 4.584948943059408 2.789261976406147
Zr 9.78985953638334 3.5979773685436047 2.6551367229549094
