30
Energy = -217.44243621 eV
Zr 10.166160330283917 8.456788747234441 3.5768405787663053
Zr 8.225892630532716 10.414934681220034 4.345379262002162
Zr 10.343055369418458 9.589444802094173 6.238989030062836
Zr 7.248750469531528 8.014736231339398 2.8389892338096896
Zr 10.899012467915357 6.598052308334985 5.829669621727911
Zr 7.486505473288235 10.087515763485735 7.223205186565106
Zr 9.30109909006145 5.826793313225219 3.5002944407061043
Zr 8.147444307692409 7.639085431851432 5.638478668156393
Zr 5.4038112098638225 9.630760371252991 4.9260227345116725
Zr 9.110556587394445 10.26556538376147 9.744275996733347
Zr 4.468452381873353 7.383098261491015 3.503468109063901
Zr 9.67678713153748 7.763025260017806 8.372051068688682
Zr 2.893905551799279 7.752092239946203 6.104912265243835
Zr 6.7168495426613495 11.429653431407393 9.674190643597345
Zr 6.480495858684661 5.194197532488752 3.8059812674527604
Zr 8.550061755863199 4.515818540394129 5.97220728545374
Zr 3.620070000198884 5.100759265456421 4.699943050680887
Zr 4.639833694299472 9.570087316331225 7.824985855861843
Zr 9.911483674552228 4.751510379621339 8.791741682991784
Zr 5.464056033445812 6.857796499304393 6.403620836096988
Zr 8.793188776818376 6.681957755433258 10.89800873210704
Zr 7.191760089593133 5.855051608569063 8.500909493517225
Zr 6.655919019247386 8.532455031138303 9.721612176500102
Zr 5.635068401092047 3.6134078930628295 6.343926064063427
Zr 7.728998354509488 2.884351222185968 8.220298337711316
Zr 3.1826959688237584 4.976299593442598 7.3731670739570605
Zr 7.774745771745094 3.975396436632989 10.76501047084847
Zr 3.9921557164899286 6.978403214259253 9.181165718623241
Zr 5.919457544494521 6.091373555986966 11.278272698327825
Zr 5.081765590637826 3.955568734430933 9.3546334086016
