38
Energy = -278.6186731 eV
Zr 4.8473074339157725 3.3920113544220527 4.4808950875597935
Zr 6.966382815658559 3.2410191171897766 2.369000041817796
Zr 7.7670085228895935 2.3159922552963774 4.9001341343429425
Zr 6.355717074855052 3.2600246774471584 7.1797688729525895
Zr 5.21948406128664 5.4707447753081375 2.281216797806472
Zr 9.618763440788836 4.113316277061441 3.471332903606908
Zr 8.455810450273983 3.4231498886438376 9.366835698337281
Zr 4.079733233519915 6.612959149652159 4.502352991840152
Zr 7.080353054664268 5.270388278123886 4.72575807188625
Zr 8.002175451873642 5.830861320981892 1.7796448075962241
Zr 7.62706546556334 5.747609859601067 8.208732652812241
Zr 5.475230021561525 4.304214296965867 10.063800714199086
Zr 4.255559467404409 5.199564155484633 7.219783443803619
Zr 5.642066825462205 7.2309264197547165 9.317553254438641
Zr 6.110564512103397 7.637854876459702 6.142777525803961
Zr 3.2871648751724427 8.055816826262557 7.434224970468559
Zr 4.906543481622426 6.5960332333159615 11.956828741399748
Zr 9.457691981093948 4.189489475501627 6.512814927018823
Zr 3.003145504534531 6.132967693058728 9.773951574440021
Zr 11.50701740324266 6.283247534973996 5.944590924409904
Zr 6.505883654921375 8.001660470720998 3.2450288796806688
Zr 9.46891216333276 7.135835207392873 3.8834863795012025
Zr 7.771695871443041 6.005587677157337 11.143795285543595
Zr 10.571198881775777 5.743489407857905 8.89035848676678
Zr 9.108260881165249 7.675072435175829 6.849438111040875
Zr 3.696628999194031 9.018285277300814 10.463875558559758
Zr 5.099020194683941 10.265262766932876 5.403989685394066
Zr 6.765959148463158 9.515021294412485 8.05978081538133
Zr 11.019818761019229 9.181262596081668 5.308849158504988
Zr 7.990157252218916 10.180870497858846 5.181024325288727
Zr 6.665208489947952 9.062991668413096 11.60373104975305
Zr 3.957926322826562 10.806318626606291 7.9329770703447124
Zr 11.687453933271161 8.41807312462688 8.023911803892641
Zr 9.185344777756105 8.362939393687105 9.85752350979426
Zr 9.592167210432297 10.602695385929998 7.584552135556744
Zr 5.472436542134032 11.377346654740181 10.185958152922142
Zr 6.719198843979655 12.169415798322296 7.516768890795877
Zr 8.244490881919873 11.142785977505971 10.105630435827852
