39
Energy = -283.49400421 eV
Zr 9.752012099011537 4.339003461766409 12.11150245739578
Zr 11.230566801227297 6.352860435122972 10.946325648873685
Zr 13.137370318297805 7.87386854378662 9.316127832187894
Zr 10.418233427787001 8.8207827805122 9.639674735168372
Zr 8.201305674732051 6.639637448120459 12.150579233496577
Zr 8.820874845466662 11.223937197778852 9.70737852689988
Zr 7.116265595811782 8.868382667946799 10.05734377982504
Zr 11.163533849944882 6.153001875769388 7.972926719893106
Zr 10.017798079491396 3.8174611845973856 9.371218719568715
Zr 7.219562736727699 3.9824841130880446 10.840969446112236
Zr 11.839040220486403 8.702537804120286 6.768230209210534
Zr 11.317311830911303 6.511341029823482 5.033219951469605
Zr 8.347237376031886 6.303306506544812 9.299960952549721
Zr 5.894557827933171 11.500830477450162 8.991846063784463
Zr 5.486286574419914 6.391129571698277 10.930065315309259
Zr 10.729868830648233 11.16384304506051 7.397666760608502
Zr 8.138181951116787 12.480379338766733 7.380316567953313
Zr 10.137697016340805 4.107595080411373 5.812199183214438
Zr 8.756660611376393 9.19871390540827 7.315144115136036
Zr 5.721290872678485 12.479528113273433 6.205015835060556
Zr 5.989903035594907 9.445332137691235 6.703462611111073
Zr 7.674426304526385 3.5647889324488022 7.757926321842057
Zr 3.4889531708650035 10.749576238106295 6.742168053498699
Zr 3.0604818986994795 6.245760438735283 9.342167437577176
Zr 7.964352916543277 11.194230546900403 4.750816223208084
Zr 4.795856651251552 4.060978507241871 8.938292081656643
Zr 8.326185776604683 6.416095741818884 6.155613974755358
Zr 4.286169568046789 8.989380211363741 9.549610136231236
Zr 9.85553247435463 8.847168468246421 4.356089875328675
Zr 5.599238513648525 6.62329250275627 7.648049077412509
Zr 8.854970522591353 6.0226341846923015 3.4316691013000744
Zr 5.056563991124157 10.74792958847843 4.14064401348488
Zr 7.612657341009077 3.74584692879744 4.7642173012104
Zr 6.948708939337315 8.48462394223045 3.872001162384777
Zr 5.258950783716109 3.7139350064087777 6.170052362157748
Zr 2.6678120724339727 8.126721737101567 7.387734589089172
Zr 5.686225057196249 5.91945931820487 4.333207769426489
Zr 3.840050662264148 8.252823204860096 4.811169042054741
Zr 3.1565436025064963 5.473817048915798 6.452881338812787
