38
Energy = -278.70304557 eV
Zr 1.6668406821132482 8.442389974526812 6.954841210103821
Zr 3.0110740888512595 10.256875062555029 8.70315470499994
Zr 3.6112700922812717 10.35079488357289 5.7646365612510095
Zr 2.5510068251414997 7.437621163837168 9.628764726045759
Zr 2.372731261405404 5.636433152246221 7.074342752950802
Zr 3.1777107042237573 7.500850568688872 4.714895771658029
Zr 5.268582003656982 8.881881071707133 10.204203240728974
Zr 5.6627763716331465 10.886584149279326 7.857542480269197
Zr 4.62902776124361 8.189088336469329 7.324395063108239
Zr 6.464767863799663 9.016819977472505 5.143057374097975
Zr 4.574807790865957 6.20201185949278 11.370184861084157
Zr 2.883544447132129 4.5183633305220114 9.760098013466994
Zr 3.9437226822018534 4.586616312188904 4.747130737106437
Zr 5.451229136718674 6.895360668441988 3.0667248411745183
Zr 8.550079384193168 10.93355382688938 6.133167408497975
Zr 4.274339635512551 3.18189361496409 7.593928477389685
Zr 7.658139222774777 9.0013563147033 8.383609895195173
Zr 5.3230224837004725 5.794093781166546 8.515335490910758
Zr 8.762925994781607 9.715903206435009 3.382559464382801
Zr 6.407674252133142 5.947293984057836 5.711279952149868
Zr 11.114866671602487 10.522199488891133 4.962806831563605
Zr 10.762933536599695 9.617471079826622 7.945835094548759
Zr 9.503759990698931 8.12097745831858 5.710047336593668
Zr 7.438492504247041 6.243006561060103 10.353978840607898
Zr 8.424876469905742 6.595223594976259 3.469561606315411
Zr 9.898181424283322 7.812978527807804 10.055339101172638
Zr 5.621502028353937 3.6656784223648144 10.400580616541315
Zr 6.516557210733454 4.2759430279177595 3.2717355714979575
Zr 8.827363794125386 6.255733131311327 7.6777365374181255
Zr 11.221937519473675 8.02445305219587 3.352715710133372
Zr 6.279975235374 2.8448920770070494 5.644009100965087
Zr 7.609549954523443 3.637557824491903 8.17226372177445
Zr 12.558864596743136 8.34732720578278 5.91313170615039
Zr 10.064107242375133 4.914678923628387 9.95331272664844
Zr 8.892404550370468 4.169855910692673 5.208033674268553
Zr 11.8631306408238 6.646248071294518 8.150366030703182
Zr 11.510897301555948 5.723135028353686 5.289194270267086
Zr 10.691349943203 3.918686005232876 7.441315948287279
