38
Energy = -275.19286522 eV
Zr 6.465490450819283 2.976026569472822 2.852289135334163
Zr 8.360435577501342 4.99015491766277 2.87453886459481
Zr 5.611233582573572 5.5281130073815135 2.0378661865504313
Zr 7.4599496941899375 7.7417936948018165 2.9888194764026745
Zr 10.274777018723436 6.8007611902505545 4.067189691320237
Zr 4.034656036322688 3.4660468083344815 4.120044353070145
Zr 6.337028497594504 2.416423025962229 5.636628378947768
Zr 4.551511324677946 7.887338187230617 3.6755912175315215
Zr 12.63139932977331 8.078064158264917 4.5653578725533395
Zr 9.671607045114934 9.554768263392866 4.237206176698501
Zr 8.646437712400399 4.4317600534474595 5.9758090113337925
Zr 6.084618626024859 5.404700733654616 4.918150721585129
Zr 3.088920554322116 6.091796439573659 5.463383514648117
Zr 6.508783119443048 10.052321621506675 4.699514429849802
Zr 3.707784475916806 10.172383908856915 5.3494869189529375
Zr 10.964903600798177 8.76493539143846 6.61876473319516
Zr 11.121341464916886 5.797530891628015 6.735104414417565
Zr 4.154093903907451 3.7145469599580414 7.078171920652844
Zr 6.776140239197779 2.58308419051497 8.457027271433542
Zr 5.260813823655862 7.981555222701786 6.644249445031319
Zr 9.424384251332201 3.872635450270539 8.6864770189657
Zr 8.306852334503693 7.520563332936719 6.1695274179641375
Zr 5.580321613689113 10.860849533308706 7.542922299802734
Zr 3.3339276996084766 6.268202055606985 8.509328731225976
Zr 8.504489931273492 10.740019633528965 6.878523722950711
Zr 6.656339016080957 5.535824010385671 8.158074147655054
Zr 2.384580095806418 8.580829075366408 7.0180891353847
Zr 9.458775330824984 6.7342561788489945 8.957455762702113
Zr 4.1589663668891665 9.084650266588953 9.385296591961476
Zr 4.74635523283439 3.8854305893433887 9.94299798881956
Zr 10.058478804238613 9.846203320605886 9.151231935400117
Zr 7.221546107183938 8.63849354853376 9.105711671825311
Zr 7.407136376128205 4.369755705076086 10.785532298573045
Zr 5.1900299649141 6.626444221782764 10.88225377997428
Zr 7.980023262891627 7.037561092952184 11.633348388516982
Zr 7.672388872334463 11.443711139638587 9.720852463173689
Zr 6.12001766862881 9.308527765029972 11.743187833210765
Zr 8.860645561642201 9.748664311837139 11.623979250671114
