34
Energy = -249.5425947 eV
Zr 8.141858074949376 5.020817062609165 2.9601595705690382
Zr 6.35323566879145 7.17293973038508 3.6938317567992733
Zr 9.774208565838654 6.67989958786436 4.940261960103912
Zr 8.631688544591588 8.991028786741845 3.2872869967055496
Zr 7.390406421373058 2.481338729548389 4.155433599604995
Zr 9.761262159756866 3.7351343383298206 5.002108593268566
Zr 5.268916525833538 4.432033849235542 3.5799318248675736
Zr 3.5223613219826757 7.7168106711160505 4.3278833419985965
Zr 10.494393657004196 9.623840332136034 5.454340590255422
Zr 5.7550066493552245 9.909249324412741 4.108084643798351
Zr 7.164257875729392 5.149201142911877 5.876242788581796
Zr 7.845900817908189 8.649832235777243 6.147235997957651
Zr 9.831439552203667 4.9163927126621205 7.652399762387987
Zr 8.28493989441171 11.418520222192251 4.846133690278506
Zr 8.000726011929807 2.553262127372397 7.085568343089002
Zr 5.256312486993757 2.706358665839505 5.9391008436271635
Zr 5.329136672972261 8.043420842380632 6.661272189959672
Zr 9.040609357056988 10.964300281342084 7.6178998631123145
Zr 3.9743950234859957 5.321490353630012 6.20368116043519
Zr 5.789781027568014 5.1194037947549065 11.162378439408025
Zr 8.310609251967607 3.9413644183471317 10.099222735198751
Zr 10.11612163928751 8.123023048764077 8.077117968460373
Zr 10.296418829399833 6.1478453882925965 10.23871918039855
Zr 2.455049146838899 7.774017622438987 7.071581019056792
Zr 6.016782285960115 11.159886806742184 6.841714502047377
Zr 7.489505871100825 6.607806427672401 9.041354779210717
Zr 3.3083570676297387 10.236594284321841 5.851056124111558
Zr 6.854441398997321 9.630221748277341 9.063357616528977
Zr 3.9326559720148198 9.733753010944445 8.682037917749291
Zr 4.28619206496738 6.72936224474321 9.234556224788957
Zr 8.939763977935819 8.657153498661321 10.831422589889936
Zr 5.7179547190002245 3.9731307260518918 8.503840599258014
Zr 8.20750235736775 6.149233140112801 12.114583681442726
Zr 6.066828818887188 8.01120759325082 11.37388268210229
