33
Energy = -238.94850883 eV
Zr 4.666675982022102 6.986569512941702 3.8979391828634737
Zr 2.908028959866569 6.061658682478263 6.316815035714694
Zr 6.174672199726369 7.869444517194291 1.5012036237288031
Zr 4.001913381055389 3.596334671239091 7.4862952123886615
Zr 5.538588062981308 4.664457517051249 5.3383615957963295
Zr 2.5802251502423204 5.388407737349745 9.194245693773452
Zr 7.331869181873881 5.722979322804681 3.033125807840271
Zr 6.796046434931993 3.5575126385712252 8.060270356242361
Zr 8.485877903764989 4.084179706715499 5.1995567376528316
Zr 6.418443892398809 9.457180440289452 3.864422533432939
Zr 4.488131564836756 8.697711701290595 6.1804559781571
Zr 2.8628544913808227 8.038593555442262 8.493156772322367
Zr 5.424382305975812 6.331072708376398 8.087702503167648
Zr 7.48895515989297 7.2226876381819025 5.667355021427951
Zr 4.892042694044755 4.137552825025995 10.183005142350686
Zr 8.692053097514606 8.328867609324151 2.498631197817843
Zr 10.002522964353373 6.407560848849553 4.135288949565951
Zr 11.131456650674087 4.952201349201441 6.260490334486346
Zr 4.491021174743853 6.999352921046992 10.83934980594566
Zr 8.891566385609407 5.455095273426001 7.8479083733209025
Zr 7.272775566866798 5.686024858876527 10.46598465004689
Zr 9.162765122808029 9.67053079528102 4.988706260337769
Zr 6.961940707287675 10.501033735764903 6.735773163188259
Zr 5.288749289271122 9.413085305486149 9.026009190874412
Zr 11.006737268912584 7.99494470560893 6.529082859060822
Zr 8.44478719689374 8.374635626151383 8.520113014102458
Zr 11.59730547634226 6.198903089524456 8.7740946750916
Zr 7.1785990454845585 8.592566927363436 11.267643817652338
Zr 9.864484242405407 7.222410264869858 10.935509080364113
Zr 9.812673800671952 10.862420440322825 7.782821355455345
Zr 7.459905288195341 11.110885187925055 9.557582087166027
Zr 11.5678669701567 8.955087419815177 9.188831278418693
Zr 9.679726588367926 10.100909490510046 10.79799247641495
