37
Energy = -269.13181512 eV
Zr 12.411741914355419 4.668784973845521 7.718317244013642
Zr 13.759300426401714 6.550501251127195 8.915165762220976
Zr 9.53231723306626 4.805343035890064 7.423883306705728
Zr 11.557344206835564 7.5087132130412835 7.0856753451169565
Zr 7.821839978000188 4.364049058008478 5.170262887691674
Zr 10.573087204251573 5.819918473100622 4.991616143863504
Zr 8.539805038351654 6.5433506668314685 3.323510407098879
Zr 8.694683683798583 4.093920417385375 10.00836824309731
Zr 10.899777340748741 6.351254983496043 9.830949113772078
Zr 12.682559934740238 8.877582773360839 9.554086262658904
Zr 8.039775068521816 6.991850354694053 9.2814875861931
Zr 9.942374349344197 9.485751459576507 9.05523706075156
Zr 10.563072339922039 10.36241271148391 6.599219219675545
Zr 6.625940745104362 3.9571200321341933 7.97085010478933
Zr 8.66698033026674 7.871680119438882 6.369159651633484
Zr 9.964735484764773 8.876410599061918 4.134328226319455
Zr 5.9387926947654925 5.830169978844614 3.545239207265211
Zr 8.543597547684891 5.892130172735737 12.014753341595393
Zr 9.714915267293932 8.43128764045129 11.64783616565792
Zr 6.67550860193829 8.657116856268722 3.844463032179116
Zr 5.912470037858725 5.353904542094831 10.540950063548609
Zr 6.133150561233188 6.873251468066606 6.631038577915088
Zr 4.887204146510427 4.2907466859767505 5.610810948419421
Zr 7.85919046007882 10.868847830559647 5.442351527301353
Zr 6.615620450086043 9.687760309312905 8.42419549751068
Zr 6.625157664153696 8.051012233581853 11.82512115230503
Zr 3.8510128811669135 7.090259221214566 4.8622247472309486
Zr 3.9807829121376566 5.517508232564552 8.036280995152591
Zr 6.015313539604438 12.4792404309413 9.627457991888301
Zr 8.540343014201675 12.062801765281112 8.178831777276033
Zr 8.040016710019124 10.75866009734764 10.967810757532925
Zr 4.786844707433542 9.992352963376119 5.676151795280513
Zr 4.281499930296989 7.902860891010512 9.94107765777645
Zr 3.1958171702576523 8.212047153960029 7.344029390534774
Zr 5.896680497855633 12.29610511984288 6.912792291694703
Zr 5.157758966007916 10.372521233505276 11.128955983106367
Zr 3.8443684615023908 10.720993248185207 8.50553523979032
