32
Energy = -232.47645909 eV
Zr 12.68400017569037 9.456272913940959 14.522111120429575
Zr 7.936593422469124 8.571999012537026 13.401800301200998
Zr 11.235330826663727 10.442258018925912 9.761512900500769
Zr 10.137252686880235 10.965573035988045 14.228373121275721
Zr 11.228546842251479 8.15884151826227 7.636161701591165
Zr 10.852985258033936 9.073299075257108 12.27389340670206
Zr 9.736091102678047 6.250525959363614 12.45650137970845
Zr 12.488491270420207 6.768920583755124 13.346340880050265
Zr 6.607290704535377 7.736687481723925 6.250536727536685
Zr 6.119995481372195 9.604621651437393 10.744674213566249
Zr 7.883769274068685 12.30670347502157 6.796476760763433
Zr 8.020114504159586 11.077492082859761 12.248344650638446
Zr 10.333152896128347 10.76207112315437 5.863219803593783
Zr 12.87087056640813 11.190443540841288 7.570023421702232
Zr 13.677824677553557 8.655384692765663 8.966824603376013
Zr 9.365310305211365 7.954493344075666 5.509445109098123
Zr 7.49344918929901 10.158255736359745 5.1514567125341175
Zr 11.976080849620013 6.8737449744482655 10.458327045490664
Zr 7.625353428908302 12.060483132272394 9.675754364844584
Zr 14.362939264681629 11.097192054871153 10.15068179003959
Zr 12.54497992067 13.142232217309841 9.91841302364153
Zr 8.493516118172058 9.560994774653334 7.931100404763603
Zr 10.306573504778422 12.804718404455837 8.123392538926591
Zr 10.157204170302197 12.744248673723645 11.52931401006582
Zr 6.955364726537316 6.644070524056204 11.295916208624568
Zr 5.758848866474573 10.389211888350136 7.705302176140738
Zr 6.00150086267379 7.575549525500194 8.871677292753928
Zr 10.299701428314497 7.896261793387523 14.914194048155533
Zr 12.78600238907015 11.68254663167546 12.582450050167365
Zr 8.65508115164206 6.443772049563434 8.03129010476709
Zr 13.940139336337069 8.8649838643798 11.91045119234972
Zr 8.943564069546623 8.306827496092955 10.310652376817327
