39
Energy = -283.65073929 eV
Zr 8.29456208978022 11.821918936425087 10.040024390917571
Zr 5.444674983472429 10.76084881260643 10.901584811594711
Zr 5.6892274091020685 11.870446696174996 8.468998249754438
Zr 10.91715102004323 10.913827322816857 7.825449564991145
Zr 7.726639941322365 9.763434670042448 12.093009978765851
Zr 8.101836791614055 11.782998764719526 6.965330600249991
Zr 11.777232376236222 8.710798330759818 5.622032164177846
Zr 5.120293391082748 10.885162181532783 5.900530791781285
Zr 4.3499113097739635 9.081029675449736 8.593709283733961
Zr 10.150681880544555 9.386766950196472 10.460716318203975
Zr 9.953695284757897 10.752491098504072 5.09542472546202
Zr 5.598321382962946 7.824227354603377 11.265587221385415
Zr 7.308290844279879 9.293727276218691 9.07515057113726
Zr 7.3945007282813275 10.94001416419382 4.061612561750521
Zr 12.378964573773711 8.54075555403471 8.554009373930915
Zr 8.511798023919333 7.097917355114292 11.826960439173355
Zr 5.692982195807943 8.597587419610834 3.6168568774113146
Zr 7.121851998589524 8.882927518288012 6.113946972034778
Zr 3.6716575368912663 8.379444848027925 5.723931201329781
Zr 10.858892461904679 6.572436412390981 10.067170482318176
Zr 9.637571936817446 8.264783551912751 7.344870284829174
Zr 4.142226286348761 6.048216706946792 3.829028213194125
Zr 7.832293207893236 6.374400984048937 8.815192602834292
Zr 4.768583359079043 6.027015599278392 8.95864464627985
Zr 5.955415676227673 6.210807258184245 6.244496740708515
Zr 9.138370070762228 4.275467166601705 10.655870358566617
Zr 8.947500545798967 8.358266992885223 3.7635075624280585
Zr 6.442653797917598 5.072678468632421 11.204615328880536
Zr 11.88265822725217 6.089050564763584 7.032820688420654
Zr 2.7852547985596527 5.95842490525238 6.719236758194434
Zr 7.1136021872313036 5.878465645884078 3.4546978502673555
Zr 9.320526974830255 5.923859771130967 5.402366312110806
Zr 6.8642733744933455 3.6197477721935525 8.758037256302853
Zr 4.597253672412094 3.5911272284754068 6.806060659238804
Zr 12.213207200898005 4.339314521220105 9.410868444594087
Zr 5.356316555347688 3.4475773374172514 3.976617922794557
Zr 2.6772780531023828 3.807663551242616 4.774916010706888
Zr 9.870964053062465 4.244596207194513 7.867658381357843
Zr 7.467453404577813 3.6872245614130357 5.8259770306682315
