38
Energy = -277.87070838 eV
Zr 5.18370127482527 4.810356520503001 9.849550928027881
Zr 3.3427607250374924 3.946121807916003 6.238425323151822
Zr 2.5861809921978356 6.107305518246813 8.381120226410586
Zr 7.559966027801894 4.828402168263095 11.544307931648017
Zr 5.686531900571954 6.811295916226619 12.121034070168776
Zr 8.106927214064934 4.189068710164087 8.59041493048934
Zr 4.700173237494597 3.1823624239275805 3.6254228802521378
Zr 2.71924821493631 5.182460633522351 3.4185134414172778
Zr 6.419190330901622 3.160244534371567 6.065904444483972
Zr 4.34547332425694 7.918800488497761 9.69224321829449
Zr 2.225631997163687 6.585262738706407 5.679349450402882
Zr 5.378288361597278 6.003972347816421 7.4862509300954265
Zr 9.984714790310843 5.495796822992599 10.545715254634032
Zr 8.63088033888288 7.703829961021719 12.129519987110788
Zr 7.413461907606965 7.079745493243901 9.558931525546216
Zr 3.5510933098063275 8.764074564074612 6.874513889208481
Zr 6.269955606786374 9.407724384356287 11.28754941492372
Zr 5.288284950130493 5.832648975435913 4.704265450033356
Zr 8.075447640147706 5.838506489768466 6.106629663834107
Zr 6.043481459909568 10.050373157842833 8.423899683353184
Zr 3.638827921115782 8.260094930212794 3.772932920151203
Zr 5.258706973011084 5.837626686117387 1.9577558843714635
Zr 7.365715044946973 3.8833106869655367 3.3308094878721377
Zr 6.4771383847956185 8.243474860285694 5.975825635196442
Zr 10.939922248290356 8.13947918836494 10.050101330034876
Zr 9.44202094684891 3.698970537134558 5.590147686188441
Zr 10.76650551013867 5.658777828929724 7.812718037241928
Zr 8.678819916884013 10.167618996545189 10.057493097480771
Zr 9.257978501062635 8.333684423558292 7.507704725443728
Zr 5.593566339045009 10.544821009886151 5.012585663800436
Zr 8.107049188041156 6.58902934079392 3.0459096610168306
Zr 6.213606110927992 8.626462670211435 2.760010115535996
Zr 10.611947044983513 7.03222634886334 5.106832322146852
Zr 12.256389303290817 8.167340184514204 7.339612776094297
Zr 8.307348805725168 11.058826030883829 6.910075987897791
Zr 8.569248552078296 9.390438143067648 4.314586337446524
Zr 10.971775706284248 10.606861845172078 8.393597004077824
Zr 10.89989844924919 10.027965158604072 5.6472090214008555
