39
Energy = -287.20926843 eV
Zr 6.628817448033666 8.456713355653022 10.968314575792554
Zr 6.332687055310324 5.291028262888522 10.961448484709988
Zr 6.459282821502245 6.2979116739092005 8.511723258781554
Zr 9.134413314157836 6.829078996338945 10.39498105591754
Zr 8.828211007106976 4.072268884838252 9.233193457230648
Zr 9.20629607780262 9.92595157113434 10.14554379966642
Zr 11.230315146319406 5.760723745524627 8.228669214474708
Zr 6.130570589462107 3.1326989408100863 8.878014632183655
Zr 11.436357233396025 8.392928892081922 9.146798442964302
Zr 6.777080624113178 11.42529155486653 10.039625705682699
Zr 4.007223726624174 7.494678855197178 9.941127696997222
Zr 3.82461634714766 4.610384462035227 8.604925338495642
Zr 4.318891884475055 10.395270203412794 10.347532034081762
Zr 10.769264036451654 10.607295078336588 7.5358889644202085
Zr 5.833199238293594 9.308917094662776 8.027639418213637
Zr 4.568132486382566 2.426911681827996 6.315459179725737
Zr 3.527955944802533 7.199156607259032 6.963654275359631
Zr 8.71985948637131 5.564639423924449 6.523272677605178
Zr 7.806390172412935 2.4399349290663976 6.673432714168442
Zr 6.612726416896538 2.7308004754041684 4.084851029969257
Zr 5.725601178321804 4.924469959587886 6.0343186102288255
Zr 9.15246800345878 4.038325898143742 4.111969001763842
Zr 2.717055705433501 4.774524150516862 5.80702504879209
Zr 2.839608868793184 9.675629512414655 8.085373529018549
Zr 11.432200561799466 5.403225880099651 5.241951757026735
Zr 10.510023525769938 3.249226839246283 6.809375274822848
Zr 11.383687517247127 8.048023290651164 6.148620855631527
Zr 8.791404694590094 8.43279511930313 7.709522876118725
Zr 4.893106431651279 11.883832377641125 7.696513320245586
Zr 4.264820606478901 3.9359222690362605 3.635809639453167
Zr 6.603520187342908 7.883441501906489 5.591369591939623
Zr 8.133603865919794 11.624090013493472 7.515887322265601
Zr 9.325261274363093 7.137900007300152 3.869187377992591
Zr 4.156807374638074 6.861613940224606 4.018917151624996
Zr 6.750461481170663 5.70687944177969 3.1428163952437815
Zr 9.176316558723903 9.912878665868279 5.019504561744831
Zr 6.54312607591881 11.061489097301465 5.223549371335631
Zr 4.115183392944834 9.76316323282195 5.3479832755836565
Zr 6.665778768295173 8.890904741636925 3.136858959352726
