36
Energy = -263.90566912 eV
Zr 7.24520787988468 12.376922644132218 5.448293622866065
Zr 9.777647237539009 12.272858824117314 6.519110725091888
Zr 11.203141730373922 9.766102454985706 6.315626293986701
Zr 7.792544304948534 10.133755206579028 7.402855343029626
Zr 10.399560323902142 11.05827048675054 8.995063661169512
Zr 8.169573151296772 7.57120753240591 5.9295409096313145
Zr 7.579385255404525 12.733491889812244 8.48737463764224
Zr 9.87990281109436 7.5692930812329315 8.215837144228292
Zr 7.518795330339745 8.35046776805449 10.053760018360325
Zr 8.980202835704759 10.235931694271752 4.3678917987816135
Zr 12.307796828927566 7.15635080820986 6.411501790031852
Zr 12.341657488891316 8.490539230190901 9.090589236152688
Zr 5.130876022569706 11.537677472325589 6.968152357771538
Zr 10.462905283605664 7.437276369402518 4.181229032855966
Zr 10.530362388187447 9.357898751509959 11.192335860295962
Zr 8.143712947478832 11.046893677400796 11.125424049827032
Zr 7.641205634809297 7.899370336539291 3.087424217925223
Zr 12.000371234894413 5.511320505365757 8.578655709932006
Zr 5.456311945429578 10.800329047144958 9.630430342674435
Zr 8.253178940580302 5.386539240961734 3.956027837125146
Zr 10.602504502616641 6.500769320481789 10.96456478864634
Zr 4.939629738431207 8.61902362856464 7.367847407229268
Zr 10.277010855630879 5.030166609544753 6.096467295580605
Zr 6.030320519362675 9.659829654692663 4.779608400180023
Zr 8.46146422582009 8.181178660652323 12.76133713819452
Zr 9.371712644609968 4.397702617344615 8.950321029320456
Zr 6.838164774985343 6.390043811005913 8.364212959427322
Zr 5.8174708552282 9.602012896108835 12.150273662354754
Zr 7.18161299455644 4.266355226358117 6.358784824458949
Zr 7.900316407051735 5.189176015905176 11.329412840112758
Zr 4.304215775094255 7.853656635141849 10.06952571966733
Zr 5.605508663477418 6.522734014922834 5.032676791447719
Zr 6.590771296907229 3.5185504238605425 9.096514273115455
Zr 5.882482121498618 6.911628173407381 12.394034426751352
Zr 4.468075087515409 5.293537292066805 7.7107534962125
Zr 4.976915253580946 5.079015707713428 10.610657839449349
