33
Energy = -241.04183385 eV
Zr 11.845566478457416 6.89125526568682 10.00996306545403
Zr 11.47590778709429 4.515950348846585 8.43857939179169
Zr 11.915056330279757 10.125287979863279 7.290971916304135
Zr 10.409672417555274 4.679373315632888 11.148735884095204
Zr 11.28596799764089 7.056109911954826 6.963636556952979
Zr 10.903557309361112 8.98299537708972 4.713311775153685
Zr 10.169383454504349 11.616386792393582 5.513769935518629
Zr 9.201285481506435 7.305587632340678 11.672700761654202
Zr 10.584706186321363 9.358736983643857 9.832678267950195
Zr 9.117338531249192 3.1629694175376946 9.186675784189154
Zr 9.110527527545402 6.376413169628054 8.909249354852859
Zr 9.171133290938865 4.286060809632321 6.542264623584686
Zr 7.367898178060155 12.264945753172459 6.0691480777288875
Zr 8.089469129414557 9.941403709868595 4.215544300857826
Zr 9.42710840014455 11.82729617347409 8.388136246885477
Zr 8.695941222459108 6.948895847826595 5.232979178674829
Zr 7.462060469225521 4.803834881925861 10.987022627748368
Zr 9.233492596971315 9.190703034924384 7.103844712689346
Zr 6.115307874572639 7.393770404962333 10.965148793317999
Zr 7.807777423825073 9.744143792183825 10.233809512476059
Zr 6.622857326129245 4.869773312338625 5.385459588898452
Zr 6.578791926805746 3.644277385740308 8.00726454071916
Zr 4.7845144098666115 9.866016015178198 9.561327809453228
Zr 5.282100916816735 10.556698878225056 4.726243235743225
Zr 6.658299746530133 12.104367656934455 8.99374995069011
Zr 3.6332776908732 7.296748390194706 9.176317204781952
Zr 6.411801099893686 6.7700589110829865 7.840101750129123
Zr 5.857783699386441 7.66716903721314 4.906975265113457
Zr 4.830098575126386 4.968984558254246 9.800337841586037
Zr 6.538477275148707 9.606893118699503 7.222910273127126
Zr 4.503992531055787 11.689249736871421 7.19827951234541
Zr 4.174414221834799 5.400367927738969 6.896653055413851
Zr 3.7855569950551704 8.72795663404389 6.723515348014154
