37
Energy = -272.03046701 eV
Zr 7.291640853717903 2.3370233257959296 8.73508972313945
Zr 9.462872521532955 4.261042031025528 8.133700390924874
Zr 7.077913406100648 5.08246515086879 9.853314976417426
Zr 8.20225534263417 2.183857395960682 5.917584959676394
Zr 4.516371833014616 3.688942874340971 8.945931500044772
Zr 5.347694951308458 1.7908085432264143 6.780622427877721
Zr 9.496510843087913 6.786238424198402 10.357147091282304
Zr 11.344559290052777 6.692668741424702 8.029578902266305
Zr 6.713220774480966 4.478180593734592 6.7141199157314615
Zr 8.199870934869043 4.777902659740001 4.0900048818349095
Zr 8.572232267223168 6.951035105531477 7.275289057186999
Zr 4.48235309314013 6.625008396078185 10.449376075576915
Zr 5.866270358484833 3.016158935562634 4.252952677352526
Zr 3.5430803286255306 4.1398885466868505 6.122147896344749
Zr 6.913105489497235 7.188082407382571 11.883633659346172
Zr 10.027524686429828 9.295587291088689 8.803101388413431
Zr 8.533658070064138 9.37543184555267 11.355743045711472
Zr 10.552843281479463 5.496015805568967 5.521827140779331
Zr 5.101994311847558 6.472959583526507 7.458579938233722
Zr 5.080537142566775 5.914182334642392 4.279088061103764
Zr 2.4298128684585003 5.785113392572076 8.40858771667866
Zr 6.979602433922445 6.464829871337042 2.075662152876293
Zr 5.494604453547006 9.748085337787357 11.020982385851
Zr 6.8569691298523745 8.359080593831795 9.036746728398002
Zr 10.763922996799307 8.490637821678739 5.803820257052336
Zr 9.806308959670355 7.270954737303022 3.1198503301043985
Zr 7.7151923326815375 11.256963562294416 9.510983871943349
Zr 7.417503123875942 7.885320936966587 4.725317358981065
Zr 2.7832968894394416 7.1344696379485875 5.880722135426356
Zr 3.486388920412093 8.627583225927706 8.610527637412062
Zr 5.0749023678208705 8.55960590114544 2.9052956340837217
Zr 8.013220373766053 10.251436109396382 6.723000291742228
Zr 4.926365526799386 9.155203250203899 5.94121051634527
Zr 5.346954372068332 10.977399061136175 8.193610270573584
Zr 7.776639360621902 9.197012842487258 1.9522007599754068
Zr 9.358532271825252 10.180047742593894 4.011440628479805
Zr 6.549689509485954 10.777040847958737 4.093019905506492
