32
Energy = -231.13736724 eV
Zr 4.052757207920266 4.953526897565482 9.905046209033202
Zr 1.758283877205219 7.750778861670155 6.647810243859509
Zr 2.488264890348832 7.479870995577638 9.517966570343832
Zr 1.9389275165866036 5.166778601051111 7.87153799783215
Zr 5.270183214238856 7.832520937232117 10.102616673612681
Zr 4.41203176749374 6.874951115738834 7.393079430311016
Zr 6.886078741032125 5.372850722358985 10.60816870083743
Zr 4.152047778865359 8.76267275428704 5.059872608750341
Zr 6.517579182306352 9.1987466930112 7.189504434235507
Zr 5.634238365722068 11.295721805174363 5.772501224520645
Zr 3.1049550640033057 5.398686261814391 5.218327300081155
Zr 6.210205661741705 2.9382367924811295 9.374957306216654
Zr 4.110718922724282 3.2802892561189765 7.290047786080371
Zr 6.576009641476666 5.246897451305898 7.390650987338528
Zr 3.7137126627902872 9.700864224079252 7.841769126388853
Zr 5.6101825314835185 3.843909030671366 4.805540830483247
Zr 8.754114836863204 10.727805504414293 5.632822940091928
Zr 8.519363726136131 7.711660751598919 5.659342278294139
Zr 7.11800306281206 2.4788433174731455 6.747019900813071
Zr 8.08247824416398 7.30519235820046 8.949772555155164
Zr 10.038829630571426 9.213276445193127 8.255253813179376
Zr 10.70098810302241 6.892790427156599 10.06862918304274
Zr 11.326053405527556 8.973785249232753 5.759370308407092
Zr 6.827641990696278 9.485559574196472 3.717641142418271
Zr 12.624498189068541 7.91774211213832 8.336214603197064
Zr 5.850061579261715 6.599945824902727 4.27204947926846
Zr 9.739838263285334 9.229788454856012 3.3454728091039034
Zr 8.479492768968203 4.734851587570256 5.1123198238484875
Zr 8.890770500349662 4.2015621998949575 8.79904687176336
Zr 10.441971177861998 6.320157260176734 7.240883435176408
Zr 8.200515510971368 6.8458795146665565 2.795476399469108
Zr 10.7651982075018 6.558249511551 4.149870841709802
