31
Energy = -225.70820013 eV
Zr 5.016643913532399 3.6879235581170646 7.9975511563695925
Zr 7.403540913852802 2.360398173492189 7.024409913605119
Zr 2.80487094233175 5.533161924548491 8.692599463711572
Zr 7.751709731797451 4.412504828557153 9.163210262483659
Zr 5.513650620430733 3.2175490695603237 4.885352140748015
Zr 5.43318474910483 6.764425773113112 8.131348499175008
Zr 3.1951636655821565 8.018475413712263 9.820371510352444
Zr 3.6498433033501354 5.2976143615751745 5.959260156247032
Zr 5.185916262581527 5.810393582284666 10.671881445318304
Zr 7.053568484427498 5.217284896043294 6.081077139339825
Zr 9.940837266612546 3.9103978869637666 7.0017172742931715
Zr 8.421212683943006 3.1193979504049945 4.492816067166417
Zr 10.337830950145305 5.826585492970335 9.295477486133413
Zr 2.934711315007432 8.020043274889682 6.872731833014703
Zr 8.015916034119549 7.34962563516768 9.964261098251121
Zr 7.220410236082062 5.353297354157213 3.1521090669729928
Zr 8.883493449270878 7.022276428141227 6.965941959329283
Zr 11.742380868195713 6.304250609090903 6.918599378439943
Zr 5.732486025762015 8.810635961980658 10.560962176037531
Zr 4.423702593056431 10.288722197165317 8.348258766791103
Zr 7.652633228379365 10.234793617260877 8.824460337040563
Zr 10.09680192581501 5.526222250617493 4.476715804476847
Zr 6.437310853837589 8.788710708375882 6.562780893467918
Zr 5.204833636657098 7.349021992546141 4.41619417818518
Zr 10.455470102691272 8.788025778208693 8.319676644617969
Zr 4.12090430428299 10.130902928180051 5.328044459116832
Zr 10.933462267165915 8.342628302438488 5.234166188984635
Zr 8.39456906833779 7.96127733535798 3.9020240401836586
Zr 6.331238107298262 11.651658877658818 6.538344464675101
Zr 8.954752393918115 10.340380606474161 5.945584648179438
Zr 6.579182220978322 10.175629845491983 3.986310787598287
