36
Energy = -263.46248534 eV
Zr 5.0568972755235855 7.385712402058974 11.719741537594293
Zr 3.9615137306152217 9.489084600305214 10.055393605267243
Zr 8.649639721192786 8.197833025932118 7.31283089159531
Zr 3.318559005814191 5.531320286880461 6.055651379522311
Zr 6.640873606204671 11.746417541711217 6.572444485816332
Zr 8.071614166273568 6.454132778385136 4.842429655787526
Zr 6.889138742614131 6.818705496358821 9.377644673496839
Zr 5.473353594558971 6.76455970980838 3.420219209122326
Zr 4.500298775215154 9.704588360868652 5.209578966790297
Zr 10.153397179023097 3.4774163644345566 7.794127189824384
Zr 11.116273994485981 9.003856649164533 7.78494779168943
Zr 10.329968698753722 8.47197294037887 4.662020389264729
Zr 10.046313302487562 6.11504497056516 9.339434634569026
Zr 2.904861707460564 8.517764283664649 7.298830576451125
Zr 10.876090118325786 5.973447345079362 6.236416979539694
Zr 5.92325433862086 9.271638877952418 7.8790805893050555
Zr 10.333523160319023 5.794231363844068 3.2106042961759464
Zr 9.378608493039048 10.818605464600408 6.028241954984418
Zr 5.1849838812657305 3.983406044533632 8.096454434035415
Zr 3.8151300130186563 11.271301524774525 7.574233698604702
Zr 7.925061320172874 5.158914441462744 7.296135598163517
Zr 8.271298398679095 7.693198272723735 2.2908812195747044
Zr 3.693761823740467 6.455728047469704 9.117099278080758
Zr 7.151835973993709 9.289290430641099 4.5808584530796335
Zr 5.955639069267497 4.075558965616185 5.003335947508711
Zr 7.476112248779883 2.3785540706509765 7.163405578047629
Zr 7.919322595228937 6.512981815640542 11.853319004680234
Zr 7.619309385162488 4.8129521036110665 2.539554524869617
Zr 9.152919379101052 3.639010539524112 4.9374323793255215
Zr 7.984261817726212 3.8179724911131134 9.890656377737772
Zr 9.597439617751782 8.649940041689508 10.440074676583551
Zr 6.939244377495055 9.54116974092974 11.085935726835359
Zr 5.441435446223396 4.770672625619529 10.920067195961536
Zr 5.877965046675683 11.754816286255682 9.474054063148156
Zr 5.516358062386854 6.91037373625993 6.424976353181936
Zr 8.663437026986674 10.946634247261988 8.871108584723514
