34
Energy = -245.48044164 eV
Zr 10.207298643329697 9.53857516803733 9.739979615191546
Zr 5.743167980190572 8.931842095850884 11.352512249923462
Zr 8.82542089604078 7.768200109752032 11.63227091104985
Zr 8.07706995385132 10.606246808239257 11.004915010303662
Zr 5.7938683871838705 11.32475877375261 9.598552597668533
Zr 6.352089009306104 6.282077494216043 12.013558571096858
Zr 10.26717680228987 6.666784548231629 9.095104345739367
Zr 4.882171994833794 6.462061731749076 9.52080289117338
Zr 4.3694927553281895 9.211145806391158 8.358629646370673
Zr 5.2831846857733264 11.475145419754638 6.838768484743363
Zr 9.922417851872076 8.887858866323311 7.080162220702783
Zr 7.477571067108606 8.19940206110631 9.093784203044084
Zr 8.50618041436613 4.904320339551767 10.580863660215797
Zr 8.012704411093635 10.912039633470773 7.722245805177796
Zr 6.720067179746633 8.375704022349506 6.025611365915734
Zr 5.692248237634999 4.0109306395877775 10.669753006282342
Zr 6.819157779418037 11.024917758793912 4.5556286391363665
Zr 9.733758064276659 10.942639325928331 5.175444056516679
Zr 7.374215833022929 2.539873917119067 9.199807610020253
Zr 9.566138889328311 6.416605142027834 6.029738454280729
Zr 4.726197690647534 3.716962377042767 7.921340851102193
Zr 11.447917109061484 8.456945969922069 4.747170078271079
Zr 4.0420849568421655 9.408181985264036 5.289790535895187
Zr 4.049697602507199 6.600049416449564 6.756247081445571
Zr 9.652565361969929 3.719845652185009 7.806107894420999
Zr 5.9792202790170474 8.895040853715347 3.016842707250115
Zr 7.196516916076454 5.294948487208211 7.703315079587674
Zr 8.858851443857104 8.734039410670885 3.5880986181172663
Zr 10.460335375418913 6.176744496698838 3.378463504359162
Zr 7.099317229573216 2.428513525114915 6.551280210757196
Zr 4.5512608067291715 6.8640402315726465 4.033017742357353
Zr 5.637192663509558 4.480564839118478 5.124114981036905
Zr 7.410472813444942 6.229738846650841 3.5208602553735537
Zr 8.62100951180477 3.9454216652311214 4.8673894158297815
