35
Energy = -253.8304365 eV
Zr 11.463352787649086 5.414922074516668 9.849156804571926
Zr 10.333964440332544 7.9336621316580045 11.041656081199879
Zr 8.537154523695873 10.434203206986812 11.39899119210857
Zr 12.340098519112345 8.059159813444252 8.847615468708044
Zr 12.204776105586246 5.7833156325194235 7.170444989088536
Zr 10.31057374961804 10.131020298375123 8.797752533961763
Zr 5.836927073978788 11.65465136382469 10.37145435689443
Zr 8.553974663006594 4.739488588780991 10.156632660966922
Zr 7.402130661289236 7.05576030051568 11.675402770050217
Zr 8.223754551887561 12.18576529279078 8.939270909005007
Zr 5.882582040031088 9.392082860356544 12.092250380664552
Zr 9.791310727744946 4.023216217074589 7.636892170711728
Zr 5.7208838933779935 4.712393108782173 10.502640041726437
Zr 9.654929235371862 7.139075485846936 8.28286357877967
Zr 7.3021618535885535 9.277140953574015 9.21886037289126
Zr 10.504628050444852 5.197323647390287 4.917045381112802
Zr 11.078979016302107 8.414164681271982 5.941691362915574
Zr 8.131663758980183 9.448758102382964 6.463573355335268
Zr 4.441681364427003 7.122323385948484 10.954257134614076
Zr 6.487822388554925 6.775854039005584 8.529142334926123
Zr 9.04248501332838 10.210451068606547 3.8136201965834253
Zr 9.654184696880563 7.606239922628919 3.464857075181678
Zr 8.109132720663675 6.523075635774949 5.99091297106652
Zr 8.005018243189927 3.602089826190946 5.311878222547986
Zr 6.647420194482909 3.906675375482602 7.8167204426779975
Zr 3.3427041652583567 10.027455157756489 11.154387486602932
Zr 8.671802631523256 12.137946998080986 6.1376866374697405
Zr 7.855033799578893 5.4566776335488525 3.2774423422481522
Zr 4.298337531158934 9.173500347282628 8.809535429484914
Zr 5.864547088707672 11.54755354932346 7.287314507283571
Zr 6.424700709552492 10.944604220437624 4.594065286923442
Zr 5.225317346346973 8.509283594736877 6.202633345517539
Zr 6.681328177965588 8.115223148960125 3.7203287673615653
Zr 4.043357243448921 5.797732548962906 8.154026326960057
Zr 5.5326736932068235 5.416870190038112 5.349037323933371
