36
Energy = -258.4348029 eV
Zr 7.975769462154093 12.380134142185565 10.672691379063847
Zr 5.130370527974254 11.609950091758986 5.369407556721931
Zr 6.674113108677183 11.407713652714104 8.289022768389902
Zr 6.1179136779628775 9.906146302728954 10.715056089140422
Zr 3.458849123357387 9.120669549977222 4.573942868711498
Zr 9.154446630618834 9.835832021967809 10.300202600631149
Zr 9.446865426335247 11.983113423403054 8.3210333187926
Zr 5.097057868737817 9.318135011152593 7.050842582082852
Zr 7.8866093785422215 10.697019913376774 5.882789362882884
Zr 6.248149367757856 9.467365567577298 3.688647474334788
Zr 7.676277676099146 8.242712374380604 8.041022939297793
Zr 4.626348171864839 7.706762995158317 9.838682192066097
Zr 5.36557811064101 7.567392439093996 12.570248784765374
Zr 2.1099525890796205 6.394967083608055 4.181845469071528
Zr 3.244535495536524 7.027330388615911 6.639344187022548
Zr 6.252110266482667 6.9267715995717465 5.423820525359046
Zr 4.646789174297412 6.846236050330258 3.01571229672581
Zr 7.567072244992745 7.299966764834597 10.854288701670132
Zr 9.098749318387416 8.339930812265862 4.848854488626426
Zr 5.524089655874415 5.698123707921498 8.050492754799242
Zr 10.351060578226294 9.42825697025919 7.4752200800868085
Zr 4.0765074220893585 4.61570729810784 5.310638012749797
Zr 5.362297783558987 5.173229029437377 10.917130149554293
Zr 7.570259551244645 7.118239393395277 2.696658558292327
Zr 8.462972730218182 4.6897880365892926 10.049659045231474
Zr 9.537988907729796 5.4913161477341745 3.9685446438002905
Zr 10.254265566734807 7.105290857419042 9.27198917609463
Zr 6.38187087417085 3.0501931972815495 8.998760981507568
Zr 8.42314870526422 5.222470362228316 6.901510474194981
Zr 11.102468230480754 6.6337751911594935 6.385772129683144
Zr 6.308476614286684 2.9324099284245566 6.254273107974686
Zr 6.652996544426514 4.50091531763389 3.588776557765717
Zr 10.967351275871618 4.560580325805519 8.562526296411637
Zr 8.973463376093969 2.460204288820203 7.7837687388248735
Zr 10.968647130193638 3.756885311787469 5.918736725087834
Zr 8.638735356266627 2.8081750329317354 4.823119584673904
