32
Energy = -233.02750726 eV
Zr 4.864679018708521 5.590238896974815 9.583784130118415
Zr 7.047627067698051 3.683630958551839 8.434230963509854
Zr 4.205146432660447 8.298233594825232 9.975137721770075
Zr 3.5551595186489986 7.2971907448010995 7.339796902473685
Zr 6.411980669400679 7.96472646981211 11.934309154374994
Zr 4.611552375623466 4.487832007860174 6.990246253604105
Zr 3.70755839929386 10.189198721602196 8.016362722533042
Zr 7.156007144370634 4.948876104189577 11.139040235077648
Zr 7.423940390853463 7.49134586815077 9.488413654377641
Zr 4.4196678339702435 9.4818278444996 5.202699332094355
Zr 7.288799512971989 6.153320976835427 6.849910805251978
Zr 4.669476469995023 6.417890353388934 4.911155808358962
Zr 6.128551907095633 10.422774232799332 9.958909141729658
Zr 5.762238215601406 11.671379526014173 7.051533747156839
Zr 9.129997874948671 6.8298138769296255 11.835658245594647
Zr 6.270873987508235 8.805193180741316 7.067113824991058
Zr 9.591874786708368 5.024797644472478 9.490248926173736
Zr 8.949926034405761 9.631673836828112 10.99075230103676
Zr 9.341911934619512 3.9552260706565407 6.753354482404506
Zr 6.945497899600675 7.413085466774815 3.9912402997983385
Zr 8.351977941861637 11.096994818922852 8.3273626862832
Zr 6.856224232706854 4.263446658631354 5.034469613073003
Zr 9.470594450629417 8.297786024514584 7.335162008543922
Zr 7.406838654350761 10.783949227688346 5.066442605329895
Zr 9.196586205704506 8.913055638393093 4.2308498436202795
Zr 11.108767833872937 7.609137054299495 9.917295620235
Zr 9.566517344264849 5.946015624642398 4.6383569985879
Zr 11.363439246664763 5.963590952670564 7.154003569031026
Zr 10.939656891790413 10.42942239395316 9.046622441701519
Zr 10.660600789646061 10.698116236187845 6.105414001707241
Zr 11.625852876068613 8.039841280310332 5.060951630415372
Zr 12.487876669932026 8.731761111545264 7.5648169433411665
