38
Energy = -275.82757879 eV
Zr 2.6704960077576216 11.295193700941624 5.439416414448276
Zr 4.936110523600235 11.376231366828636 3.739073020949025
Zr 3.94693983942485 8.808337147086972 4.805278992796733
Zr 2.888177191882607 8.991247789586936 7.342072722606088
Zr 3.6406256935371313 6.072336871968491 6.814964456897109
Zr 5.3098995974367424 11.060918943795143 6.607982748191813
Zr 5.950478771622672 6.041848585683736 5.071268922832753
Zr 6.7174558812800065 9.00662902696775 4.408653265784855
Zr 7.564089891868806 11.775958458928907 4.724955813574133
Zr 3.8860525047161967 4.261293860477348 9.053060486853884
Zr 3.7645930485178667 7.182039250799111 9.589245815800805
Zr 5.834970179551567 8.31287774256429 7.490411120727473
Zr 4.398968612739225 10.212667287142223 9.426159756626577
Zr 8.35383257102596 6.763048184090021 3.0584933993285883
Zr 5.391806483008049 3.5485522608544606 6.606819466768804
Zr 8.505171792016045 9.854875758981835 6.818996536227577
Zr 7.9366189073789 4.058149691998554 4.285319568203103
Zr 8.587648926618527 6.922292226693389 6.09905464245738
Zr 9.645533733329287 9.297058151359789 4.239697565775612
Zr 6.4021703074780065 3.0094053321474856 9.276120587621188
Zr 10.286139318004757 4.755028842727166 2.590898038295879
Zr 6.042160636319958 8.368296949999905 11.002564252171634
Zr 6.4127088764870805 5.825118644745332 8.347374245578818
Zr 5.78769158076465 5.32293452121251 11.15572272146797
Zr 7.292577606981797 10.721976409683096 9.173832266641037
Zr 8.392692999069135 3.7745093300871506 7.159109867501485
Zr 11.231130089856174 7.103451959508304 3.770990174303627
Zr 8.997373044438438 7.68023728921918 9.283798733521046
Zr 10.479490139362245 10.258461721206112 9.247681938938694
Zr 10.603030848564382 4.710245245635517 5.343133885733762
Zr 8.607726564939354 4.47923209790548 10.278767095059933
Zr 11.09598530753552 8.101526412742066 6.7237336744495755
Zr 8.437360880272818 9.792784246237849 11.519758258580922
Zr 8.383545660092507 6.868538446914754 12.182696607721955
Zr 10.787063785485055 5.281093743727052 8.229072358416076
Zr 12.119931405777951 7.692611476317249 9.270720997185995
Zr 10.928342093019534 5.852240912379951 11.071002322790282
Zr 10.861638732364394 8.574232473753717 11.652523393509009
