32
Energy = -233.10484942 eV
Zr 4.501842163813052 5.718751951323291 9.931759168149334
Zr 5.844923998052544 3.0891446788131947 8.132185168407416
Zr 7.656319023780357 2.044503760825789 6.046552343698594
Zr 3.8617680853614917 4.677495522317554 7.085033487312332
Zr 5.072737645985702 3.0899440970324963 4.815874056509577
Zr 7.846871733166584 3.2198083392423587 3.442993322582367
Zr 8.820185808385988 3.6594451719548067 8.12804111139377
Zr 7.328616296157681 4.439893004243096 10.480467927893693
Zr 4.012896944909276 6.065650273760781 4.585707779828892
Zr 6.543123808968727 6.133354703998437 8.308994325601036
Zr 3.3961820286337128 7.443079359424794 7.359831030672236
Zr 6.025739319786916 5.159010065395833 2.7694649093146175
Zr 6.965203901068602 4.962606563744411 5.6950160337185265
Zr 9.819094615442804 3.927346571207602 5.354209800286059
Zr 6.216361550117862 7.9303194672600315 6.156666888179283
Zr 8.793743942464447 6.077085838837507 3.5562096488553774
Zr 3.9470017489068914 8.994475949766663 4.697377796530884
Zr 5.055965040603944 8.869715443436695 9.501954421848302
Zr 9.464519185808149 6.373971935299841 9.45237205656994
Zr 4.289381657353322 10.227571437641375 7.114933924124933
Zr 6.36964558323181 7.959308757659276 3.317266114186571
Zr 7.162336411673971 7.448772770511695 10.961031331924953
Zr 8.021762736331148 8.908472311722711 8.209500243772586
Zr 9.65784458930299 6.448504821853499 6.624686007470064
Zr 9.797862251723306 9.0010743882185 10.637323459469252
Zr 6.538547690948256 10.636288682927157 5.173925675384334
Zr 7.261310539368112 10.399663887726879 10.807357192329816
Zr 6.557281847452796 11.548246565396889 8.15610182181782
Zr 9.03901614542714 8.805991665552634 5.050636421496174
Zr 10.80631175425345 9.173232580608925 7.717758702485018
Zr 9.054789701416977 11.295662156033096 6.4844568608604
Zr 9.425562685637633 11.400613908720677 9.186066242189357
