35
Energy = -255.85399124 eV
Zr 9.244541199037606 7.957064103459447 3.4287057718303857
Zr 11.42592947389822 7.886358749349577 5.565027661987267
Zr 9.998824046167929 5.409981013643759 4.190132744735585
Zr 8.954985828521995 10.067524205649468 5.261039250285026
Zr 10.424899636099019 9.799623732223058 7.969126300406223
Zr 8.252566005444582 11.868603567295002 7.455106355589666
Zr 6.509673099309751 8.030744261941255 5.567693199164708
Zr 7.033693652225297 5.978786852542076 3.546729332371587
Zr 11.058297488523154 5.001790968508381 6.728734897317871
Zr 8.955835990459878 7.0666039653318204 6.594360599127103
Zr 6.07715341418429 11.056151579417584 5.904623646986871
Zr 11.345403267921169 7.085742894380757 8.478607432062322
Zr 8.620627390680726 10.923586883543537 10.056415934891076
Zr 6.650319589401418 9.221420180700443 3.2037724187276346
Zr 8.291174699964554 4.020142625014416 6.387213671516073
Zr 7.21090575647769 9.109274052915705 8.15690169674734
Zr 9.338408804324683 8.028308111568851 10.246135243639186
Zr 4.182747679285798 9.342585450202296 7.089912607108329
Zr 6.737413807192756 9.269670199813396 11.226574201239139
Zr 9.106740445485192 5.208410576389431 9.180544642338482
Zr 6.691015058660196 2.9143929695832056 4.023382256812772
Zr 4.0039792704958765 7.229666553081372 4.398714743890368
Zr 6.085691379235135 6.404949763103746 8.099571825841366
Zr 5.70011656167987 11.241228681289925 9.103071570165204
Zr 5.377486219092234 4.825701491285795 5.772570594860601
Zr 4.374104753558193 4.502283179866331 3.020585869291923
Zr 6.0657927564636 2.040076988796828 6.737696657766175
Zr 6.798657522327936 6.413800977803344 10.860883805983946
Zr 3.067369185617805 6.631419598132893 7.382094812455711
Zr 4.420499574355389 8.306678061757488 9.823876238094801
Zr 6.372487108025065 3.650769479435139 9.110978813489158
Zr 3.896888631994836 2.364562870318872 4.939023697715607
Zr 2.449732183783546 4.850880137475915 5.210134540377386
Zr 4.10835181137403 5.366702381434325 9.948403409381934
Zr 3.579516211149763 3.5246288573404545 7.742644759892273
