36
Energy = -262.56467576 eV
Zr 4.641020203684186 2.289617195539142 9.099839834510579
Zr 4.023565904158611 4.823675183363647 8.10219201333636
Zr 4.413417246703697 4.386584530333068 10.944631760640855
Zr 6.463939850677995 3.5081004261173754 7.004076742850412
Zr 7.012809735558032 3.668137847336102 9.772544556882167
Zr 5.617655630363683 5.896580789699679 5.762821597744149
Zr 3.7721671671865717 7.866749100923926 7.101530410280229
Zr 3.8338135774477817 7.130209050528291 9.959459889402028
Zr 8.24459302052818 4.602852398295924 4.521714566831245
Zr 6.489847795149177 6.604973711952868 8.847597298133698
Zr 6.858610178041122 5.789866617120004 11.70109745369669
Zr 8.945354904844429 5.211376528401287 7.382200769229036
Zr 6.442500832276256 6.386991081976408 3.047533939191853
Zr 9.135097443469522 6.573222438601982 2.4912719221520008
Zr 4.946673701255143 8.51150370186367 4.342458302042922
Zr 4.70411737682398 9.922323508317834 9.123816893295414
Zr 9.53287016988317 5.501826574856178 10.34876972909095
Zr 4.232475046067861 10.625061577975671 6.365078470144847
Zr 10.824574836770388 6.07200926154821 4.899891516475038
Zr 8.29156761534212 7.487033101915685 5.268016152272049
Zr 6.317819365991891 11.129021593342959 4.6575969576153815
Zr 11.381284326645872 7.570697869657606 10.931182587466163
Zr 10.485999786525552 8.771285031349816 3.5680617176773195
Zr 8.650499617359056 8.070304468361691 11.848847404368005
Zr 5.86243500411714 8.542630131224549 11.428376919114893
Zr 7.609868057197688 9.186706495525303 2.882609587760932
Zr 11.561833727797127 6.4203980487869545 8.222495540225616
Zr 9.210465103963244 8.169841000437435 8.81065619585376
Zr 6.710511362337252 9.091259731111228 6.972252443936092
Zr 11.0309725100312 8.773518347851336 6.3147176901843345
Zr 8.999703224338582 10.74094714668644 5.210244689459348
Zr 10.28049531769501 10.24807729186163 10.830184522752708
Zr 7.52148239876503 10.588496787209532 10.162015391912
Zr 12.07728850238261 9.286001582339853 8.807767012801586
Zr 6.701151396206196 11.839072627570824 7.575683535920185
Zr 9.710558391299013 11.117698813347548 8.116772625244183
