36
Energy = -263.65701698 eV
Zr 7.381848137146867 7.128140632226584 11.594475327252372
Zr 6.676238448352822 4.222128869589744 11.286554314028463
Zr 8.400226488400758 9.899302881956618 10.961575061548404
Zr 4.855769014816491 6.411219339571244 10.479721055885355
Zr 5.502594283361565 10.120478273943942 10.671687288841989
Zr 10.573951700797796 10.382261296261662 9.069702609112237
Zr 9.395303672495595 4.958131354475211 10.859687593037545
Zr 7.246490490107332 5.7028733724603455 8.634910132884334
Zr 9.987515507713303 7.670210575024102 10.32755262520886
Zr 8.283878452973651 2.963986724201499 9.277223550079025
Zr 6.6531679397559715 8.536740018063579 8.88850618154504
Zr 7.590816420255566 11.44116753738976 8.625931141110042
Zr 4.7385224538813775 10.642949201082732 7.571127215641515
Zr 5.325486157691044 3.517601582298626 8.800446918887701
Zr 3.5029036690649447 5.947458147960449 7.939234789296259
Zr 3.4517168611326716 8.632197688164538 9.287560262445346
Zr 11.843418515090637 7.642579200325733 8.204466467033766
Zr 10.06242331159007 5.265889059758036 7.775247102580256
Zr 9.143887556123403 8.60919590224048 7.247255465504168
Zr 9.625175374471667 11.529836503088372 6.479458642027062
Zr 8.00519720779338 6.440562816494096 5.612322518500306
Zr 2.6257235718153935 8.635365063154524 6.758739926366733
Zr 7.735483189732657 3.389131378847771 6.565425150811181
Zr 5.552609551185933 7.778591961864792 6.4018701710314305
Zr 7.023905560250699 10.651570049400027 5.710209413066987
Zr 11.756784503894588 9.743138795556565 6.355677644433578
Zr 5.153644127351667 4.522525572212297 5.797129913119566
Zr 9.905699410265061 4.370842926307699 4.79339201801225
Zr 11.092483870360045 6.962407751477004 5.323884041574876
Zr 3.2007369067557288 6.501451501739822 5.045313214899942
Zr 4.262858026088364 9.327878727048619 4.486300219465989
Zr 8.824531206654362 6.576467073334539 2.94042318432654
Zr 9.675304834672556 9.309061148327652 4.3276246587655205
Zr 7.24172004972628 4.174579464560515 3.756380042228221
Zr 7.011126730227602 8.916623292214398 3.5085403137586133
Zr 5.611372636847323 6.564180963385319 3.391831488471508
