39
Energy = -282.71216527 eV
Zr 10.107121927576046 9.131584834647951 11.42357333492644
Zr 8.6059669910441 8.725101356070981 13.648148051958515
Zr 9.555459592501558 6.2818176176164675 11.985615016663306
Zr 11.254557842351032 7.347409668059373 9.694958998974657
Zr 9.941524456425405 9.852834280009562 8.540322064459358
Zr 10.25923590039286 6.87178897711291 7.112230162058943
Zr 7.053617758427819 10.20770607606117 8.186765271238029
Zr 7.375124416779372 10.241478118239037 11.248333096853967
Zr 11.530397864635175 9.498468062735501 6.252859855539266
Zr 5.390410425716874 8.262488491859859 9.761196174550651
Zr 7.191873711764968 5.106056580774484 10.541545621341282
Zr 6.811577870263122 7.4610234928214645 12.17418797235288
Zr 8.993618953307507 11.589562678660064 6.115405336901463
Zr 10.113073107276096 4.300749399765117 5.956571306643471
Zr 9.775212595237845 4.673013932974618 9.16400950289172
Zr 10.528801338277287 10.295195031948795 3.7910125200200233
Zr 8.243484571202936 7.521346317171468 9.290384625639575
Zr 6.028001156643739 12.617971640492812 7.589533784310306
Zr 4.919744467317416 11.228175132623676 10.022498306960129
Zr 4.56725557003886 5.397732297082978 8.969683771599609
Zr 6.202872208705393 2.825674643448916 9.104204563403453
Zr 8.565540007610197 8.775046144163602 5.626248157571519
Zr 4.026438440607032 10.391244490858764 7.454756229877188
Zr 7.846666479246347 10.822929279895368 3.3421955801862406
Zr 8.951603058574204 2.3107783858199875 7.4450172491657325
Zr 11.01330532672239 7.3949446338570475 4.285471766579764
Zr 7.425577110159212 4.988173119500456 7.287246714316734
Zr 5.7027726978925175 7.501597341746429 6.7044664273253485
Zr 5.962041887803807 10.505104650900511 5.380421928225115
Zr 8.965433767624992 8.244966462958683 2.525769230262581
Zr 3.004457245426023 7.8532457464592715 8.149923055559945
Zr 2.9426182237828584 5.809033646650058 6.366370530812599
Zr 8.196913162677266 6.001546606754345 4.334697531886173
Zr 4.751615395187846 3.708331797001279 6.494706611813157
Zr 6.504560102887932 1.5698583677255196 6.779720383522149
Zr 6.215017055895342 8.146953203898994 3.6681146195984704
Zr 7.577170738898947 3.188639014613027 4.830447015062594
Zr 5.0429439838213685 5.594251118526484 4.301511023137989
Zr 3.472424688856021 8.33164602432347 5.085864787105168
