36
Energy = -262.74308679 eV
Zr 4.400114035938504 8.886330119519076 11.649307596084453
Zr 6.424184721508982 10.099601364430251 13.034025386753472
Zr 4.6598742822074195 6.3349008437372145 10.301111578189131
Zr 4.062787478948059 9.409938621480855 8.811774180670785
Zr 6.8705414127270386 7.450035964480401 11.97901339149937
Zr 6.14953097477864 10.805454915029285 10.226749378319065
Zr 3.727576355372835 6.764523025721924 7.426273506635254
Zr 5.031433096909662 4.084412131248036 8.399252073667324
Zr 3.514207675083403 9.566735664803904 6.1612804865985
Zr 7.347558835575995 5.027932462513706 10.15241627324897
Zr 5.8299176493648135 11.092093983276696 7.002821457919398
Zr 6.746025165636084 7.942622883351454 8.985611897808889
Zr 8.68550368090495 9.765496441576943 11.225056926480873
Zr 6.200370531299786 2.5460994836527258 6.150761540040651
Zr 4.491835911782368 4.784060854829084 5.440917359258753
Zr 9.886404315492072 4.7946181244071475 8.279471948982268
Zr 3.7037411891210748 7.4477814046789845 4.51308351512875
Zr 7.160596986828706 5.432709819950053 6.785862444544644
Zr 7.768691067507374 2.851245669504973 8.375510635614589
Zr 8.509179235132525 10.513840754691197 8.418711360679875
Zr 9.521210223720272 7.198672422739733 10.242000073746068
Zr 9.496898845902704 7.89528422390039 7.0801272334271355
Zr 11.269168667176423 9.43759912497024 9.158150829820528
Zr 6.327437315134812 8.210178693341925 6.031453619375127
Zr 5.5026255851369505 9.928582281550383 4.045751949294986
Zr 6.994583536504065 4.027908169636702 3.939331091662937
Zr 9.0955242835756 3.3377416611961848 5.788916880915312
Zr 8.330269301309107 10.65527107743761 5.333675595287285
Zr 9.008431782783836 6.066436198398152 4.261566402845753
Zr 11.93151121516255 6.668134132039801 8.677880374801253
Zr 10.828412405912653 10.68947617243556 6.63241186572697
Zr 11.415281916813079 5.900931639246111 5.834163318349397
Zr 6.12034579013631 6.677228754514443 3.345283029225457
Zr 8.0784720523721 8.691664013818833 3.3311133564579793
Zr 10.708846021159589 8.57943038151503 4.435350221364414
Zr 12.557571770985213 8.459226650628864 6.651846634208197
