36
Energy = -260.60221078 eV
Zr 6.809094790665205 4.376748808916995 11.18500267500676
Zr 10.137203442418283 4.8106851900630625 9.260831135120767
Zr 9.0388490030459 6.926145705175007 11.142356306593074
Zr 11.193325519209383 5.15754489823517 6.633880165350108
Zr 8.365012230232356 2.9041712710603487 9.522026412210213
Zr 10.760824382434407 7.542230415772293 8.644394167671592
Zr 10.390440428644483 9.40008205751048 10.814789387291993
Zr 8.592626540198797 3.556094596918953 6.855163140711688
Zr 11.594188650545412 6.187513720061559 4.118054479919895
Zr 6.276650698616793 7.034797492776412 11.621175871758009
Zr 11.447038705802868 8.266332093211194 5.976348315811516
Zr 10.91920643537354 10.602473948786841 8.270455588304172
Zr 9.151652990504028 4.7510446224014915 4.122076142375102
Zr 7.496317901083552 9.65482232020005 11.55214088946513
Zr 7.177125618666356 5.95333525032544 8.667614438880587
Zr 8.684852363678349 6.7929690958627615 6.197625388788792
Zr 5.748216279704953 3.342235055267065 8.51810891134168
Zr 9.060505598490941 11.761775275820188 10.291267664070801
Zr 4.347142188393931 5.706329298014664 9.945067870494366
Zr 9.46657119406128 7.815828385965668 3.466971513988835
Zr 9.21348746593409 10.0075544189674 5.788798506221203
Zr 8.632109948571356 12.184881395407395 7.586848734887986
Zr 6.315465472165153 11.54179132806364 9.373579232981006
Zr 8.093541783061092 9.227569736813354 8.618207599636255
Zr 6.304157291756371 4.609317293036666 5.604552262028583
Zr 5.907651942811027 7.966842554237709 6.360009189673261
Zr 4.865947320692275 8.800835461538595 10.041312556435734
Zr 3.9895009886775328 5.01791864901959 7.230698408035646
Zr 6.74273955788326 6.4576149820011794 3.5209588525380675
Zr 7.206599421752865 9.518754238108679 3.8119976534347586
Zr 6.352178967894889 11.148390698433735 6.224947687809851
Zr 3.784515768915919 6.474101879863182 4.9044465236331565
Zr 3.1068761359952517 7.649707825191315 7.699446349320461
Zr 4.187543648140904 10.32503326659329 7.850230873993461
Zr 4.874333047080684 8.488597307509982 3.209181963899777
Zr 3.54007754144479 9.498990444408834 5.33216743375218
