37
Energy = -270.43053555 eV
Zr 7.014058768026235 11.373357498728705 6.838904179581709
Zr 4.104845030623742 11.23150889440172 7.84913231903713
Zr 7.450753074462003 10.368037937458286 9.47746920273885
Zr 8.494131352942436 11.076524906428183 4.331243156636638
Zr 9.728354160655488 10.231644863483995 7.038359574481238
Zr 5.096138368898977 10.120284694974883 5.097285715290724
Zr 4.7379123826814835 9.849169820325102 10.605882982158239
Zr 10.590183880413456 9.042865830330019 4.3891515405454635
Zr 2.755006194973336 9.013470243891039 6.180723882492439
Zr 5.209503550978349 8.700624816795811 7.867903591143413
Zr 7.626051058127179 8.714044306142398 5.460003006842475
Zr 2.415632839464504 9.119105705947534 9.007529912853604
Zr 6.045199679189391 7.374034583450127 3.043057458500553
Zr 10.72913191884745 7.30311423177862 6.568190861619231
Zr 6.7623279949179675 7.850657362054725 11.04273649778146
Zr 8.073402064405613 7.708203878833914 8.147752316421915
Zr 8.74801857553558 8.369742867679236 2.453912766723402
Zr 9.802574630028767 8.191772367186653 10.042619361852108
Zr 5.0917059056832645 6.794593791130959 5.6464095584830565
Zr 8.37709085218677 6.2696423051089205 4.656804573510594
Zr 7.714907218130624 5.044716979361832 7.162978422537002
Zr 2.7149713000541804 6.455981186978425 7.718264811027633
Zr 10.612197183359154 5.528260639026459 8.68510106022311
Zr 3.5705891790187017 7.020096208487339 10.662501290290841
Zr 8.09514390904149 5.57168084737597 1.8589954747761894
Zr 5.568735238980167 6.001941816947536 8.783276926988126
Zr 10.800576852899932 6.107703353812622 3.3871543283827488
Zr 8.336346353860783 5.317876447404609 10.369813194546362
Zr 10.548603499380542 4.182430494717068 5.983519274446332
Zr 6.116003042367215 4.39650541681939 3.8066452763131555
Zr 5.564932442938545 4.93355457115549 11.464681641498814
Zr 4.787165706752245 3.9990497840488373 6.763088997735503
Zr 9.048601113281766 3.573278577502285 3.5771030021025267
Zr 3.5220779374945055 4.173514649266413 9.510189980878867
Zr 7.716799327689695 2.6087566577611034 5.900547502810934
Zr 9.301430337856484 3.028305055547028 8.489850847103664
Zr 6.339606813771819 3.1040184703528078 9.068856976515885
