37
Energy = -271.22064961 eV
Zr 3.693433916509001 7.620146057012483 10.086585873985111
Zr 7.646810932695485 4.519282047098824 10.69952534718645
Zr 6.6143943413419075 5.581624271295306 5.301699881931647
Zr 4.701915725830778 7.161129303307278 3.6277100061442162
Zr 11.388497083906891 5.035462531294593 4.440791954222085
Zr 4.90458597723115 5.163243050865076 11.101796210209194
Zr 9.30839738951788 9.773950348634589 4.551093817021298
Zr 6.675937264192145 8.665042422360623 5.515088459492227
Zr 2.964039764885182 9.809148134094592 8.22285767769659
Zr 6.272758691114787 5.662704113072599 8.414491061624986
Zr 8.217570552939861 7.974958620740253 7.884893331250253
Zr 4.792699280043332 11.011143085149529 6.371656706086597
Zr 4.900138561966561 3.580345700848456 6.591541552565165
Zr 12.452817286591145 5.380387591056652 7.065703587977052
Zr 9.386718021590278 6.785666554973123 10.53486152527455
Zr 7.834061124905848 11.079907997042735 7.1698319771675125
Zr 3.1141419291982437 5.674013240600117 5.678483180995025
Zr 7.127109680266212 8.863671720696955 2.68842152269646
Zr 7.813292003227425 3.3466558424087567 7.408251773773131
Zr 6.952042649301065 11.397934615677645 4.277906470873253
Zr 5.44929636068515 2.999656111382791 9.326890130110913
Zr 9.447714833186996 5.729115004349647 6.637650484552359
Zr 9.052011332317289 6.804456216158053 3.8219362518875823
Zr 10.726145292420004 3.099545389494534 6.568153434550765
Zr 5.865298223234231 9.794114858914314 9.037961308851417
Zr 11.346468004707424 7.584912338361644 8.673640497464467
Zr 4.668567859989681 7.611626143648759 7.271985252282075
Zr 8.757953432196903 3.7934144215288788 4.49824898919238
Zr 10.462142113245564 9.963198351704154 7.227457704847017
Zr 9.034381921435125 9.659631014978004 9.827480204198942
Zr 2.78527464232068 8.823904871152369 5.3578180295182705
Zr 1.7986004548699173 7.270332153548984 7.722188601067808
Zr 11.495921363405836 7.771210705459922 5.613904866514161
Zr 6.689453366677463 7.57309815883367 10.869135582135764
Zr 4.656347937533722 10.00537986548235 3.5595889955404743
Zr 3.1621006604177335 4.8932069514864835 8.701043528577681
Zr 10.580949689382441 4.586535019729145 9.15430621070737
