32
Energy = -231.52897877 eV
Zr 6.176028920973087 13.087389314161957 14.835007807541524
Zr 10.785235804542285 12.869000366547173 8.861217583447004
Zr 12.313844624768127 10.73758880497158 7.342313048338847
Zr 8.797932591387728 13.932879306374508 10.662262702255815
Zr 12.976223921014054 11.430932799716922 10.00458924822209
Zr 12.36177545242277 6.216376301872767 9.232270245199013
Zr 8.570594910628381 13.041972760917945 13.423670641064943
Zr 10.982398401782048 8.898482164286099 10.556895008094644
Zr 8.096346940553238 11.017402338215847 11.20224159989782
Zr 7.809450916027855 12.825705921397045 8.017366607151002
Zr 12.315276441250406 7.995484708873531 7.254503318144384
Zr 6.097371125413982 10.011267263399256 8.508646880503205
Zr 8.317214226917406 8.070208850778803 12.497814532205535
Zr 10.065165651102262 10.246049550431927 13.56040873990725
Zr 9.261143005952606 10.091835508411778 8.431912500025822
Zr 10.08876155441475 9.059597788642511 5.813606752777648
Zr 10.015501832911594 12.055953703120302 6.2058258233476735
Zr 12.981414353533713 6.871359169312768 11.763404056342848
Zr 5.715131187897262 9.354096776201526 11.478693423742207
Zr 11.0216835855198 7.656302963910057 13.433105251957713
Zr 5.689873808771578 12.451214488063165 10.031747006509818
Zr 13.930714520450762 8.70153154364584 9.687709660900353
Zr 13.001659316924197 9.78868704938326 12.449159760255451
Zr 7.555171735965485 7.574784553904581 9.761415060475102
Zr 7.508717203434107 8.069260331042258 6.940422522430902
Zr 10.04145480399699 6.08345674114391 11.017332034819875
Zr 5.062692481189245 11.829713090304217 12.706067011359767
Zr 6.3260603809339235 14.327494615911673 12.161674523415021
Zr 9.811060941220948 6.738885463388464 8.014077866690467
Zr 11.031775271523243 12.218709646297118 11.802074214498964
Zr 7.559266431231256 10.709784224851346 6.004194791575316
Zr 7.054808962593436 10.266649973199936 14.023488662519053
