33
Energy = -238.83900772 eV
Zr 8.84494560282177 9.791500368611826 10.285957934052698
Zr 8.771281679889556 11.135444393186452 7.899840457503636
Zr 8.152746048722525 5.008343008651931 11.270641077420716
Zr 3.9068675088607283 10.800279959196011 8.498157754339784
Zr 4.653554220110073 10.13474228653194 5.70962286525472
Zr 9.10003494683661 3.1777755810474617 8.92651360630173
Zr 4.611625153084002 3.921424446935877 8.034070381802202
Zr 11.37383067975482 6.858513425089437 6.025305505192981
Zr 7.42258522665405 10.663653401419086 5.275368012180116
Zr 6.534596551720823 3.114558111691895 9.810908405399054
Zr 6.087570065323084 12.021260909512467 7.426228468545479
Zr 9.565341257760231 4.418129144371989 6.382847508272401
Zr 7.581973654330791 5.916102384608402 8.550759068189361
Zr 6.959663965634906 5.088790621988752 4.438649129717125
Zr 10.759787240466657 7.873844686690371 3.380387003521239
Zr 8.137422248379334 6.8226831817822 2.457237958868731
Zr 10.349398915622542 8.498060918047129 8.19188285368811
Zr 9.708814615691345 7.323577299690045 10.755181590864876
Zr 10.67565611957263 5.525300067394535 8.939171465550823
Zr 9.948918316461048 5.243282141108419 3.8729823735900593
Zr 10.368027756262524 9.782530656326465 5.533110662255903
Zr 8.439865405606636 7.470754853604958 5.554871499857617
Zr 7.008124645085611 3.2714435713423926 6.8874727622254825
Zr 8.492032235881245 9.501399216870498 3.1279530636952724
Zr 5.248621292544564 6.516855552687498 6.50952942082781
Zr 5.963306001862183 8.023801572421268 3.934080971522856
Zr 6.91108585006745 7.89196917386934 11.310219404185574
Zr 5.210613909251881 5.5676283317608375 10.569554840382969
Zr 6.504201861906892 8.975752904200267 7.977766410383562
Zr 6.1759928163064925 10.756375289582879 10.282756334884548
Zr 3.159830834249749 6.14720239498118 8.545874008221485
Zr 4.237733381729384 8.39492182210463 10.077144755934624
Zr 3.0338507477065186 8.52895567918983 7.255688577739903
