33
Energy = -241.50886454 eV
Zr 10.039606241425632 8.70596379197109 5.053572221218534
Zr 8.26037964634309 6.8981911655657555 3.2353844305708206
Zr 6.965579004235093 9.503488874417181 4.792283883834977
Zr 10.65787978626705 5.824363583921187 4.623217289617251
Zr 5.356241159457238 7.66374705955837 2.74997578302908
Zr 6.512314042110001 11.55665613477226 7.109661108749494
Zr 11.541848782161459 6.932852943759903 6.987675345629844
Zr 9.170920782732333 11.226477858140795 6.014094808915255
Zr 6.07894988151044 4.919484672359703 2.9453336757492314
Zr 8.39333085024459 4.117048177001273 4.554602920188053
Zr 10.869842943071966 9.559209302061628 7.930911264335767
Zr 3.945888441873793 8.772380007744093 4.903925549000666
Zr 7.999634697162795 9.065001753313531 7.731707776970624
Zr 6.126201431953505 6.7228207912015385 5.348814548815005
Zr 8.935970621081221 11.709452991256692 8.8087543654482
Zr 10.374507549255858 4.236641874017622 7.172259293467273
Zr 9.161039485550349 9.451065403478708 10.494431304837343
Zr 6.4621747179466995 10.452913678983649 9.889176752076542
Zr 5.038872150394874 9.05098749162303 7.547033928941493
Zr 8.583223368912591 6.321945480577203 6.7939885108925
Zr 10.043042400376438 6.881264209009153 9.467402372314814
Zr 3.5367093751857084 5.7700076920216 4.39412710566209
Zr 5.517007956400995 3.4810401745581054 5.451104817770408
Zr 5.572238913179417 5.826618492228654 7.989609223957897
Zr 7.126332012461642 7.408214400461582 10.248841432542603
Zr 2.8240434132799406 7.077298779540371 7.141345091677765
Zr 7.740229703228618 3.0917337878484616 7.167041951712296
Zr 4.111762188111375 7.667694588896452 9.922039635716727
Zr 8.012779796775817 4.4740270224763785 9.552367214237979
Zr 3.162375932013398 4.160139973125091 6.794443115981351
Zr 5.417850853764306 5.19609872310715 10.880743946713098
Zr 3.0195632483306807 5.031356746260935 9.370600644514631
Zr 5.260349973244661 3.088201674897645 8.725889507903167
