34
Energy = -248.98877833 eV
Zr 11.487113094832955 6.875428919668642 5.987960524670248
Zr 10.562010478762751 9.696230155710092 7.082181337317667
Zr 10.761377834890878 7.376907108808301 8.711596449796739
Zr 10.865641928816267 9.17569228104259 4.2306216910498495
Zr 10.568259652727244 4.529825871503012 8.169786168890377
Zr 7.005106323340008 7.914723236061792 11.544794637730979
Zr 8.752820145632816 10.829468190839489 5.026847043085413
Zr 9.439412079006885 4.579864013871579 5.2453074978824485
Zr 9.096894159850827 6.099354617567695 10.52951786257861
Zr 10.115686963899874 6.599243821223306 3.3635467299246398
Zr 8.672286224798109 7.847527779275475 5.80889810436655
Zr 7.099737285562668 10.259920121439908 7.2793843520970665
Zr 7.851237783756221 5.554898106798245 7.77482638236315
Zr 8.186592987481001 8.769410360973994 2.8995126963323
Zr 8.413161357880625 2.6761596401301744 7.196182090348744
Zr 8.42753966207859 8.849542790459774 9.285150032654869
Zr 8.371619579956878 3.419845131762252 9.876953848645211
Zr 5.783197443952299 3.365161397079034 8.480451793711437
Zr 6.213701417318372 5.0985451994288145 10.940787627771554
Zr 5.977280529049383 10.209786230525383 4.51531523908304
Zr 5.651338757927907 7.291906489675645 8.685611272585083
Zr 7.370242602977276 5.810156200404479 3.3106622661666676
Zr 5.778438007639568 7.328013053687377 5.666001092461563
Zr 5.409060701824318 9.87125604052422 10.03741898280129
Zr 4.26169418445716 9.752199951768874 7.05442210752412
Zr 4.025591857201935 4.558095999995997 6.686342082431798
Zr 4.307088693424947 7.392325806125277 11.374640582724949
Zr 5.482433895680548 7.885486504587881 2.701422830688025
Zr 6.434916264629789 3.850588308166342 5.441996745640284
Zr 3.5088543711624154 5.383806599497819 9.427217539445614
Zr 3.4210090160414595 8.661668913884533 4.424458755149552
Zr 2.887554989761979 8.470963141276982 9.250347481947367
Zr 4.06065362988278 5.725252527568664 4.097382046587237
Zr 2.8026059731006567 7.028580849461158 6.756059483641267
