39
Energy = -286.36907328 eV
Zr 6.292571831342899 3.368655887851451 9.240429876734238
Zr 4.565680306554039 3.4735258916629412 6.337474988894644
Zr 6.903022825344112 5.3685038923496124 7.031723905939862
Zr 8.465041482353474 3.339466240068814 6.232791098987032
Zr 6.45014665740773 4.56282014941422 4.070933139184534
Zr 9.19777376528416 4.2288779762064355 8.916991740321993
Zr 9.52643449707485 5.077736712785828 4.062020847835285
Zr 3.3432771571032696 4.9222259406796685 3.897562299415725
Zr 11.423910919158153 4.427386862961363 6.606894678700999
Zr 7.912399179672964 4.687008722089203 11.491353561776421
Zr 3.8419745194521844 5.115859364107793 8.790429813950173
Zr 2.0448636758280303 5.1484720837456255 6.429954059446559
Zr 5.050746350376874 4.903961514879759 11.49934795824051
Zr 11.561225337374639 5.9492744285755785 9.350497153731284
Zr 6.650473007729173 6.5028519842984975 9.520200627299301
Zr 7.708123353170581 6.412789518895745 2.1679003428065267
Zr 4.68147611362764 6.384190122131325 5.9201943424647725
Zr 9.693653825950477 6.637194101564836 7.075440831841775
Zr 11.77969486741191 6.68308818940797 4.672645569520322
Zr 9.878248008809045 8.169163043551682 3.206315790822258
Zr 7.578861872467672 7.535828148527214 4.959789027087963
Zr 10.801257667879993 9.313963275485557 5.8975383319898835
Zr 4.958099751642046 7.234059582539597 3.0266864015500943
Zr 2.3699947226311036 7.703525883564787 4.921403673830021
Zr 11.017179745961162 8.830718747604921 8.763904641571829
Zr 12.685168888916712 7.223404930274655 7.099486588813787
Zr 6.654562613876443 7.2080757809604785 12.285535935955304
Zr 9.139614231244352 7.311753359538647 10.250068458127757
Zr 2.211798302614171 7.693468037993292 7.993205509294463
Zr 7.191362498130796 9.221728581200649 2.520471918260555
Zr 5.183094740400444 8.326448794464083 7.803173196667919
Zr 4.084443505865113 7.629005164552509 10.699928564135497
Zr 8.161821445537091 9.273752721426488 7.763355261096514
Zr 5.400982761050229 9.658323982565431 4.8463262149153685
Zr 8.340471813038791 10.44759822327699 4.808176402908678
Zr 6.399150721224584 9.568404894997398 10.203606193049987
Zr 3.5332918050310336 10.204849750197893 9.320529634529006
Zr 3.1146329878619423 10.124183979906167 6.549105145172894
Zr 5.760453417582338 11.128539380777475 7.49338393540408
