38
Energy = -274.37831667 eV
Zr 12.097707034878988 6.638494135546862 5.441865566006259
Zr 7.393644429514847 2.824532654861843 9.425720832081273
Zr 8.775003435896087 3.5981207746061736 6.801558145767651
Zr 12.87737240801448 9.174093425468842 5.276038903877427
Zr 9.809504998908501 3.9234090545020033 9.691025637733285
Zr 9.705415817642914 5.424751246646055 4.497697337371325
Zr 11.092638219729906 5.337088237102913 7.738547376794805
Zr 10.300835919697917 8.266340713694298 3.855929089647877
Zr 11.966441497174316 8.099879940913453 8.024953688242519
Zr 5.885083526912735 2.9926606062412904 7.065903460896665
Zr 7.135246249833792 4.25957600091306 4.0774671176666715
Zr 5.0404582114062 4.314939038668643 9.675838131472494
Zr 7.657659872732221 5.070429558156042 11.466286057239733
Zr 7.4544520458287735 7.201341455419552 3.627503594415128
Zr 7.565340324689437 5.881090600914784 8.797275924102143
Zr 10.643297837521505 10.148789420467 6.2908446015452615
Zr 9.114615453177748 7.393427964012803 6.637714317508575
Zr 10.176473940876887 6.7154852391536 10.249301874733176
Zr 4.51531296207222 3.1842355214580746 4.549863742831871
Zr 6.157813287814001 5.946914576807342 6.241259816644992
Zr 9.49003874394727 9.463395600046653 8.951189277875848
Zr 7.9764651712556445 9.855137580236965 5.082182582091124
Zr 2.2088531781477485 4.68611571489943 4.318152621931133
Zr 5.276974428204567 6.710432674372914 11.041961359272436
Zr 3.400175099323302 4.511514110156625 6.905303140595894
Zr 4.6763751786971355 5.957009224850896 3.6061598067212963
Zr 6.540297563859681 9.078258363085546 7.9419790636190335
Zr 7.688670258391143 8.190480522479975 10.98017560366924
Zr 8.027035004326802 11.749115572323984 7.45391228893236
Zr 4.113768934580037 7.045423302319406 8.406473492871674
Zr 5.214558390531266 8.673960657154627 5.024779627770512
Zr 7.326933149108749 11.014463019530355 10.34539639471254
Zr 4.764711765982525 9.408626987326059 10.291348448266369
Zr 2.8735785789468067 7.151529142276395 5.7383292266740185
Zr 5.56105609228932 11.355945679311683 5.984161447885962
Zr 3.5703735167941266 9.778064611866325 7.47571951789199
Zr 7.34781256538071 13.747822850790017 9.250614118092981
Zr 5.129950707838257 11.92649895834816 8.744271174348848
