36
Energy = -261.90914786 eV
Zr 11.760761351060044 11.279763355246326 9.136441351599018
Zr 12.4148598208056 9.465829476507823 7.268427276435681
Zr 9.92160577053497 10.995172568614223 6.9284355190097315
Zr 10.74772035747867 8.655732226831732 5.132252827537805
Zr 8.942654332352634 10.658314433531036 9.75538527200646
Zr 10.983779827953494 8.555911357086964 9.75443084272897
Zr 6.850830397842155 10.630826826260796 7.576180834563227
Zr 7.854729568571824 9.412073254313047 4.97960362880013
Zr 11.640674576812145 6.77875873569154 7.29642530618775
Zr 6.15743879651718 9.995764657564301 10.290874869462241
Zr 8.897381128958552 8.223572989362603 7.587829139053441
Zr 3.8898244312368164 9.993956349201136 8.639651837527637
Zr 4.838833487613122 9.949856476791405 5.377680780357919
Zr 9.175219515115645 6.225139277766965 5.521974596611938
Zr 9.77881596195059 5.7297613450995835 9.29186513998913
Zr 7.905352248484168 7.802846809525642 10.42610330164783
Zr 4.802652268441387 7.504861198208756 10.715732002491231
Zr 5.541692334010969 7.794021344807556 7.889794393177093
Zr 6.798862640111728 5.0471190416882115 10.675674027716532
Zr 9.973530066939162 3.850842010363744 6.96444902650924
Zr 2.666212287414603 8.6052194692469 6.4237254556778725
Zr 5.935949864468693 8.835013055948991 2.8836706343604104
Zr 6.059390703606405 6.774497610605652 5.192042341113935
Zr 2.6233733494483977 7.316362281222211 8.839768530949145
Zr 7.22391225241556 5.080397413046213 7.660813662008067
Zr 8.232936149260759 7.073707767656829 3.0214403450532847
Zr 8.695138042301316 3.043417348005595 9.368703456124585
Zr 7.327243202613528 4.213979477941152 4.4016320263907875
Zr 3.4901894952247456 7.4927541708564736 3.888953205960537
Zr 7.565229516187044 2.1741604248865825 6.806562294450175
Zr 3.040875413531799 5.73202167380486 6.368526664904277
Zr 4.209358727883934 4.922045807235586 9.030745242723063
Zr 5.668982299052947 6.077832498298105 2.277617414279708
Zr 4.270600468255118 4.577645637419293 3.9583679073921996
Zr 4.962667406818209 3.423875059230629 6.407441883412247
Zr 5.937088841716402 2.6892250650783738 9.110105239611949
