31
Energy = -226.30333494 eV
Zr 9.972028514553775 5.915073938725441 9.389428310816163
Zr 10.338268460940295 4.043824695258409 7.062449233821983
Zr 7.873443741250687 3.1952782398133746 8.827090527479097
Zr 7.512267023564749 5.695347422933402 10.623158410446706
Zr 10.757009809874512 8.63964140320189 8.722569933849059
Zr 8.639456921441509 8.506493173810352 10.898784006686729
Zr 10.67715548656605 6.945206175683142 6.474625893670761
Zr 8.076187970024602 2.8687179651173054 5.786349827735712
Zr 7.716043636347157 5.3487315662865145 7.333825405007257
Zr 9.337140054858711 5.187700974190004 4.433155308618921
Zr 5.1190280115209115 4.743765602034597 9.37193811417535
Zr 7.740270270059773 8.072023450771841 8.323656656353048
Zr 8.940751413375168 10.761689677601117 8.858215311279233
Zr 5.4190125120793615 7.654732060962371 10.421695144557345
Zr 5.359699442174585 3.3318678077626602 6.769635957649055
Zr 6.425422711239859 10.336646382761886 9.876368075036423
Zr 3.008122188317945 7.067746326221663 9.015161894960338
Zr 9.900322908488954 8.038532666660464 3.8385809806722153
Zr 7.410296632067276 7.726096302617537 5.3783480812228355
Zr 5.122153669995727 6.7330220445253435 6.848965564158617
Zr 2.8883016480123653 4.825520627723104 7.4329957972658995
Zr 9.615497084136555 9.860678830982188 6.112962586758497
Zr 6.3931476961436 4.651809630941378 4.131114851082895
Zr 4.332081416831301 9.50927488167912 8.119713309453982
Zr 3.6692896955412757 4.978149477327516 4.7538485192248965
Zr 6.854136824420521 10.734235473997357 6.76548780557683
Zr 7.627660574240325 6.872434500076501 2.5720074114163354
Zr 2.609328235033397 7.528514921167093 6.030622127390973
Zr 7.384980450707911 9.783672334545921 3.748227034789334
Zr 4.689873076351734 9.613315302295074 5.268972552512865
Zr 4.864129225991814 7.387681130098337 3.641225944432414
