39
Energy = -286.22514173 eV
Zr 9.955714558654254 6.2456664760779645 9.966771660991828
Zr 10.462197006512053 7.957696427127442 7.744467043818761
Zr 7.027025642403668 7.0527437220568014 11.202235249032176
Zr 8.468137369044097 8.974660694160935 9.466419655882417
Zr 11.891378284147544 5.380168537539645 7.606747727882155
Zr 6.026722358629673 10.036972601783399 11.588065573004727
Zr 7.611955497261597 4.010606706047382 10.037826228378224
Zr 4.091292611064253 7.789134336358621 11.629351702700939
Zr 10.29060760702029 3.4675713678673237 9.341751534722773
Zr 8.194393912325143 8.713037836502577 6.02955230092746
Zr 10.644573582749391 7.057855048601878 5.043356407209983
Zr 4.895687158770019 5.696003494641865 9.727741124457538
Zr 7.400693158576159 6.440230377874033 8.224921286037528
Zr 7.5668593804417075 11.241474932269835 7.544107700415701
Zr 11.492056294929503 4.376616404713131 4.799189292211501
Zr 3.2433628461686084 10.142245200557054 10.478125699036365
Zr 5.498653746692745 8.645882159371487 9.207943142273038
Zr 11.056522602256926 2.5396421395629467 6.834036211972314
Zr 5.1231359299107115 11.789874791764387 9.247111066486696
Zr 5.685874564743368 3.6561406536519154 7.990641176295396
Zr 9.179754055165644 4.794382970059782 6.792461401915639
Zr 8.208714027242237 2.0990725824616288 7.575179549922196
Zr 2.7002359109545893 7.755773430578629 8.63171628932811
Zr 5.0586018244268125 12.326090786357563 6.561505113626682
Zr 5.339347993495797 9.296295317598778 6.581478494065444
Zr 2.7723537726404652 10.602006236572208 7.57070459976532
Zr 6.781569620691465 10.953013509494 4.659035725577353
Zr 9.083731963887548 2.6207787511731175 4.584030162329119
Zr 4.677073142245012 6.214006869907235 6.606387773519035
Zr 8.550585939128617 8.096720353224462 3.14516239684986
Zr 9.483365722257133 5.208009865053182 2.8568719274678327
Zr 7.268746255218206 5.944904124312509 4.8419440009452295
Zr 6.226128860229346 3.0119879073395164 5.396732831867309
Zr 2.7844855881360746 8.192186628707265 5.630015220538385
Zr 3.685006901655136 10.69257830593143 4.652218215363791
Zr 5.4899246440037155 8.17972112308306 3.897746726859005
Zr 7.000354348742653 3.6387879938112997 2.7943002501645595
Zr 6.768279528022196 6.27722064182252 1.922716609141272
Zr 4.6640029678336585 5.18953696426631 3.718855337272323
