37
Energy = -269.11067625 eV
Zr 10.678912181438097 7.458394762434267 4.141526543943977
Zr 8.67778021389976 9.62169666943972 5.931519371699537
Zr 11.444965430436168 8.987980583277578 7.156223612902013
Zr 9.447937547139222 10.832341981755135 8.524484806610099
Zr 11.296830638701781 9.354824209436618 10.112486645622072
Zr 12.046963543715089 6.8964618693685065 9.140748801308739
Zr 6.283003273151644 11.347846593989035 6.593490686801497
Zr 8.638322123310777 9.621068440894776 11.152402006694663
Zr 6.7246240326717714 9.638636026573401 8.9366650512848
Zr 11.021797679694158 5.959817267680175 6.651354654876097
Zr 10.09330458192002 4.535547000355986 4.28068070859615
Zr 8.425889592257471 8.61866603987171 2.9942998780627113
Zr 6.118855704579246 9.812756261383818 3.885380191929356
Zr 3.916475459641787 11.071972531827145 5.189098154819937
Zr 8.137508140640936 6.651117521361903 5.399905535393101
Zr 10.04031560477878 6.929131103126302 11.342651603151095
Zr 9.126204854876788 7.787253795728752 8.626023938489299
Zr 5.8150580832252645 8.336924583908269 6.446198543439215
Zr 3.8272852205904675 10.02268637883273 7.981342478803648
Zr 10.16043893507026 4.652310461486336 9.242324568761466
Zr 3.5417442200882174 8.195845682288658 4.397846040328167
Zr 6.86300831880849 7.319204254708842 11.202971770502536
Zr 6.001401126373088 6.814382776807819 3.1689903268525836
Zr 8.644933406500298 5.885717447701873 2.439682230324727
Zr 8.863958554943911 3.63984952935043 6.699243095708423
Zr 5.145400283716345 9.734752471969554 11.20893385914839
Zr 6.945424183648469 5.687316948692065 8.251544797311764
Zr 1.6628163367109812 9.867509664968143 5.914694069501669
Zr 4.563047935242055 7.423892784536124 9.325268246350927
Zr 4.780635495505495 5.568306595838288 5.620352943346385
Zr 8.047434662967563 4.799512853661141 11.254537124934961
Zr 7.062120983850224 4.107444545368443 4.317006530115907
Zr 2.671208500515834 7.3169525164055855 6.981813077561359
Zr 7.808705347197136 2.8783109112905376 9.291605511768577
Zr 5.385466364066541 4.279886310120309 10.271369769870862
Zr 5.818937853130536 3.1269817130341933 7.271031265767086
Zr 3.7405641971459795 4.829436691410374 8.149904390959188
