38
Energy = -279.23028285 eV
Zr 10.482830759636274 11.376111091417657 8.384284259294791
Zr 11.083400082410357 8.722023829182625 9.55108640568453
Zr 11.644839385632695 9.468357785446408 6.725442904032368
Zr 11.060310227806845 6.6460216590744325 7.267373545037487
Zr 9.464583988009702 11.145859153639353 5.522306238451714
Zr 8.534766575789554 10.075863804541848 10.337211025131412
Zr 7.830772913696545 12.01502302546592 8.0304222371681
Zr 10.845568237100968 5.820418554456444 10.202446552500392
Zr 9.380668528365508 7.615247217453849 11.753707136038406
Zr 8.638006202090944 9.180584820134232 7.24234120409119
Zr 10.082512087207421 7.949997782561062 4.770012319124987
Zr 8.32514539992403 7.030266826672347 8.95965266159399
Zr 6.042130449439703 9.711494354918528 8.975671396387792
Zr 6.33242933871598 10.845643445389594 5.887434181567319
Zr 7.353347322733588 8.884231434006933 4.181630071654106
Zr 9.59210286652059 4.293625587322786 8.131425940144382
Zr 7.971805339089644 5.103358668863319 10.952409893045171
Zr 6.615823216274445 7.800369584995036 11.301772912618778
Zr 10.144730080259377 4.749165653364426 4.78265531869621
Zr 7.985214988884873 5.987953551762843 6.017135020947249
Zr 3.8143746028512573 10.487356887016155 7.137245375718236
Zr 8.443311409319138 6.432734842411624 2.987778116745809
Zr 3.4111577166419513 8.38673081594642 9.099218740476537
Zr 5.343334379569683 7.9696639487861445 6.702191408143399
Zr 5.383584038924779 6.031014100173681 9.26541900049521
Zr 4.207133258286849 9.147323331252764 4.318713988278782
Zr 8.381709401903052 2.7621141791141626 6.018863270359032
Zr 6.8893516467955855 3.414321509397066 8.360951078239422
Zr 5.575135959591558 6.562214985251427 3.217586381133077
Zr 5.155803468717966 5.19679019401912 6.166575871020238
Zr 2.216339906590418 8.33472544327573 6.402560064193307
Zr 7.24063095590302 3.9260120347693643 3.6595312874955126
Zr 2.6064708934298557 5.8430040221156165 7.751499268963125
Zr 2.8351461944582095 6.2756051120707435 4.560655346314127
Zr 4.146824026916556 3.388148609307409 8.336931664214312
Zr 5.5344623911696145 2.3390273192420774 5.761950857544945
Zr 4.368808561846473 3.9657785053586645 3.5272521325310437
Zr 2.737774398800184 3.561332586596723 5.827097457679027
