35
Energy = -252.40898583 eV
Zr 9.956187267699313 7.761026908932018 3.413628327217134
Zr 7.991765010140408 7.724069633346986 1.3868485628403562
Zr 8.460510997994795 5.077409114719326 2.7835327882844574
Zr 6.459198197659601 5.716506464850478 0.691194013525147
Zr 10.14451165453288 5.089321238622874 5.023857838628306
Zr 7.45858419620322 3.807866782563364 5.536837677269468
Zr 11.187026802085176 7.458835934552808 5.930872214311269
Zr 9.067830384299043 3.2898644522065634 7.883989153079776
Zr 7.462125346282321 9.59509510398371 3.4786241433981058
Zr 5.4448802847956514 7.422037980520663 2.8143623236882664
Zr 5.661970749227083 4.487810785324791 3.2871595296952876
Zr 7.575219375295094 6.883950254672604 5.050918000860403
Zr 6.14832263800423 2.660278209398197 8.187036619329042
Zr 9.242062734325645 6.255616354784853 7.69967990484603
Zr 8.016876412690737 2.1279659521515875 10.295945955868882
Zr 10.728370193818627 8.816948027755188 8.185412132317404
Zr 4.67928451408647 3.3554943833131508 5.837213568362147
Zr 6.177089024512918 5.687501995111433 7.93081697253059
Zr 9.049641349552909 9.571925893438312 5.910442473854195
Zr 4.31179505671727 6.081859228157778 5.3452336697224
Zr 8.284187900941173 4.855803859498328 10.160884521402913
Zr 5.448388356921985 4.134819110747465 10.558644649317658
Zr 5.363022984904275 8.968517226273107 5.401886068085869
Zr 9.113953421434209 8.067190950710602 10.273268872327664
Zr 3.513734548036489 4.4982509504454224 8.111036312175722
Zr 6.825771192215369 8.740396685785196 8.189430944823725
Zr 6.7865601011162875 11.354172618939351 6.527812592460342
Zr 6.417527418546205 7.01632471139179 11.100147922974045
Zr 3.800943328809236 6.429606370411844 10.154677066587976
Zr 3.4944332824144175 7.705394129338906 7.673857129026535
Zr 8.80975916440318 10.888228174588214 8.74609606733161
Zr 4.206522763386664 10.462603995324756 7.516787876403503
Zr 7.187797552393605 9.853430471006948 11.101897613621668
Zr 4.439351038593119 9.190502412355048 10.161587875840757
Zr 6.006543324491617 11.589254351649402 9.291000424376689
