31
Energy = -224.65787609 eV
Zr 9.887844376552042 10.61321591654241 8.061402944314787
Zr 11.293840990592992 8.917295580375555 6.354905360912583
Zr 9.958535160463844 9.62958696235724 10.827348811089566
Zr 6.9557845750747385 11.045066360037413 6.800785420396166
Zr 8.643319168662766 9.20446879230274 5.395838909744564
Zr 11.571938451793104 8.040699039162494 9.15497622837032
Zr 7.422795543212092 10.816987228643546 9.799497277010007
Zr 5.778683282076903 8.782568098022562 4.807322024419123
Zr 7.609823068570203 7.075247898533773 3.263590994971215
Zr 10.396496856284678 7.3046304396913735 4.062457286796897
Zr 4.092695669022914 10.391811991168215 6.24951459688919
Zr 8.740416653118665 7.92119421907983 8.569455329745061
Zr 11.088870358431834 6.1134626819856726 6.613273737770308
Zr 4.867923635658317 11.333693140541877 8.797052515382308
Zr 7.5109661030842485 8.605125166896917 11.649438019062867
Zr 7.9289738600574635 6.287600433660255 6.067726824614712
Zr 7.089809894919527 4.268265234983442 3.4960124588357675
Zr 9.69610573617211 4.543422132996624 4.389771699783705
Zr 5.798340461541342 8.404391682098055 7.946472829395958
Zr 9.466400153784408 6.64274583758318 11.158745043073703
Zr 2.8717462719137594 9.373053761827265 8.610150259656882
Zr 4.911353308228403 9.137481094363766 10.776655891829849
Zr 10.82589188072351 5.169083993097607 9.282561062298095
Zr 8.00216126563637 4.8108541815031804 8.837144742989725
Zr 5.232919006406553 5.862512274098648 4.7611330774845255
Zr 9.865638259607621 3.5529833081930384 7.0567700017966075
Zr 3.399083087154096 7.449354347312136 6.457530059410625
Zr 7.066034657402959 3.4874173506300123 6.18385556819528
Zr 6.206908370397363 6.363686256711002 10.523152883839053
Zr 5.239586708296722 5.229913868736499 7.762073795399731
Zr 3.6093563631010532 6.803976116872312 9.3987734766479
