30
Energy = -214.16001777 eV
Zr 5.114740672631352 5.933736813095357 3.7536315921420083
Zr 6.029316240592594 8.466674797100682 4.706795064429204
Zr 8.753006296922894 9.830976780923374 4.213211485035606
Zr 8.588400038966101 6.992916258254534 4.086978274828157
Zr 3.2113998550183127 7.801750712260551 3.9800034875434136
Zr 6.780028172448584 5.6548117859297635 6.18600108299195
Zr 11.022522334763483 8.371039283370175 5.922264286084867
Zr 12.303439048367816 5.573628095922663 6.257650755196247
Zr 6.643513197660269 11.094735921115644 6.043375500602891
Zr 8.363499261746925 8.477687416109493 6.726994702063021
Zr 3.7635052206812865 9.572994236766299 6.442118499068448
Zr 4.16499271812046 6.738489220586333 6.488111450565874
Zr 9.653381367560945 11.104323306159314 6.547002462912942
Zr 9.668133894115842 5.225558090532689 6.151669294094553
Zr 5.864947686704164 5.439545505319543 9.091266386533205
Zr 7.973844002989972 3.7326295338734212 8.058351768481561
Zr 10.745037014263161 4.066474102146827 8.579754772280367
Zr 4.676092782796459 11.1882565906319 8.445380788047002
Zr 7.687211240607323 11.296864406112581 8.721769403331933
Zr 3.666226446901471 8.443081210880182 9.352602462571237
Zr 10.339318128981164 9.566726607322579 8.929874822286756
Zr 11.725572909314769 7.0079398941559665 8.52831229100026
Zr 6.1330088176629785 8.562056887702578 8.238027137141732
Zr 8.715552924131739 6.582425368290273 8.971817063753177
Zr 6.470234295122824 7.2084151027988925 11.196298536490746
Zr 8.280180112962995 4.600857031917133 10.930723112291457
Zr 5.608052744503483 10.128122079704331 10.815821995168562
Zr 8.25700179238291 9.53595140980069 10.90218889695431
Zr 9.509638343563447 7.289879108572402 11.749253172002726
Zr 11.167259871324624 5.390509876454289 10.86180688791602
