36
Energy = -262.18480206 eV
Zr 11.702117159857478 12.467316956010007 8.450830920421344
Zr 10.815958582116506 10.29824679252998 10.085566001422958
Zr 11.799222377862623 9.845922050129637 7.322466753155877
Zr 9.06758324199142 7.715109935690338 11.744227729050756
Zr 10.81186801478354 7.608963398856465 9.118781278104079
Zr 10.50746196551429 5.3725845788986675 10.852365973412619
Zr 10.388077126464982 12.118152055364416 6.014818685177601
Zr 8.763323040944535 3.382913575814419 9.930591299048407
Zr 8.928600698848477 11.949822760533394 8.581871899598978
Zr 11.032612837726154 6.972509859123843 6.199353275976649
Zr 7.869842474236112 9.549203000981244 10.090109556565235
Zr 10.37296941392834 4.622254293575371 7.882811705694807
Zr 8.743939948811375 9.218952839777955 7.334713699618048
Zr 5.863146834248167 7.2869101114664225 11.281793569774607
Zr 10.151718140779547 9.54849093281404 4.696931631973564
Zr 8.075492508618447 6.318156055203443 9.180600697330096
Zr 9.382449885909766 4.420040146326782 4.95733854269408
Zr 7.849539991385313 5.109327590316449 11.990394782800962
Zr 6.172641579595876 11.357595770159794 7.83185319826589
Zr 9.912899763468156 6.995566498744815 3.6481376418767932
Zr 7.738005956386358 11.21163746965825 5.3664897778106635
Zr 5.758254239146868 8.040635833486718 8.245079200395711
Zr 7.817820243555005 6.649731548834337 6.0180377732557995
Zr 5.967411227174612 4.281170350127434 9.898255519981856
Zr 7.669369254629597 3.516036352005368 7.3121665597431225
Zr 5.189781420975774 10.30404768777284 10.433044106649005
Zr 3.580181440637547 10.27368252788043 7.976880208233129
Zr 5.186268618362504 9.561466443972543 5.631735639862402
Zr 7.495675480474162 5.897468906699982 3.04332948335473
Zr 3.738076807601052 5.895355702347948 9.432974778333069
Zr 4.9605855833206345 5.042423094431339 7.032475755321418
Zr 7.318981200972946 8.720421926966848 3.714824882765291
Zr 6.393706357657063 4.156810502410756 4.8040944779110255
Zr 3.131158637927051 7.5276489383681495 7.061088491530836
Zr 3.2065053702898973 8.392963770281876 10.029985295958836
Zr 5.093889323318622 6.816097177317197 4.56644291901851
