38
Energy = -276.58695694 eV
Zr 3.246673895857954 9.435053678819358 8.480727630749428
Zr 6.7518296943562435 7.27194937523274 12.329672724935353
Zr 4.810976997929329 8.293841766007015 10.517960456090968
Zr 5.924828044038987 10.505463039470355 8.701724819380246
Zr 8.403534684048841 11.779908743798433 9.33147130712591
Zr 8.131735109774384 9.096964048290276 10.693171520753586
Zr 10.861134522226319 10.248577227405919 9.734216076506854
Zr 4.22959920037372 10.68124544914406 6.025480887147798
Zr 7.496979648468164 11.527933690727526 6.384590731152489
Zr 7.274609703802671 4.571459086823257 12.589091539391829
Zr 10.296860543566012 11.780413654027543 7.216480318444962
Zr 9.00593044293102 6.000616348791878 10.883173220448906
Zr 10.816677419272171 7.322361859496821 8.938396780357817
Zr 3.409569672133107 6.471808684494755 8.5231133127257
Zr 5.115030781798799 5.315390739817642 10.838185181695955
Zr 2.4163623390434634 8.159111257199799 6.211804009751141
Zr 5.391286018009755 8.059524601252075 6.601174854487999
Zr 6.919863083763612 6.7561996737633425 8.903299927852533
Zr 8.764621891719012 9.21745072872317 7.822441769230174
Zr 8.073463961029725 7.497912211340635 5.8429598906258615
Zr 11.843094634692207 9.399694624324146 7.206624038507804
Zr 5.406674161571614 4.173460562711516 7.9768075603349615
Zr 9.254034687527572 5.029131793139407 7.762393375434588
Zr 3.9331875231987605 8.568095906295333 3.966970337978579
Zr 6.636732784454268 9.772787608028992 4.248586502235627
Zr 9.815533469753122 9.870726522552769 5.022584230267264
Zr 10.937326551679805 6.9764592693463765 5.948070869373782
Zr 4.001985595320513 5.6869226841717575 5.423572947027661
Zr 6.941637075225058 4.962962379079301 5.359659615706001
Zr 7.488524718817041 3.664632155674379 9.778062395339958
Zr 5.081632855746263 2.68513994222442 5.580351738230625
Zr 6.179859730635794 7.002546249088752 3.2937270968440964
Zr 9.221678805018767 6.91335703981473 3.4217095662120185
Zr 9.733545303571303 4.168564987180184 4.849265664247986
Zr 7.889853034929079 2.521511614539365 6.7415124792106536
Zr 7.946890943060012 4.6628845584159935 2.423641499188929
Zr 5.201015034960931 4.104365828907192 3.080633409432129
Zr 7.451588150048968 2.3479691227708446 3.907967034076365
