38
Energy = -275.07246509 eV
Zr 10.97305932952127 5.208065181115283 9.720310779465475
Zr 9.101946132686484 6.85604262357576 8.603555812753958
Zr 11.679494561566248 7.045250858525047 6.88206856134478
Zr 11.057136702960173 2.7407325983407946 8.660741772355767
Zr 10.19970971777488 4.66328869173698 6.610522437181432
Zr 10.952494647448088 9.59024298692763 8.016714190623857
Zr 11.392783794221444 9.182141611349639 5.048504161150007
Zr 6.439119881708508 8.02006011097834 9.318437916724635
Zr 8.332573612866577 3.74128477904649 8.930935897143328
Zr 7.2532088593902575 5.5016183371514025 6.517197020713035
Zr 9.735721328453577 11.233330410958958 5.88684395097622
Zr 10.09773365396169 6.692741100621568 4.238800369799418
Zr 8.976662763608951 8.86538297441232 10.759383706917307
Zr 8.962349299096761 1.966391377308126 6.54592803123293
Zr 6.633227317850227 8.440510832440477 12.429418257575946
Zr 8.34180802976355 3.7956477711155086 4.251881131706975
Zr 7.815272895875466 5.964631208402278 11.168395450283825
Zr 8.774294314951863 9.423279131229576 3.6152327185416624
Zr 8.762132546300629 8.398468649097685 6.304664327783128
Zr 8.167462503013631 10.599509513775324 8.37624452027482
Zr 4.2138037489791955 9.266817168455544 11.021215283327788
Zr 7.116221955025524 6.73446529292013 3.7901547898607313
Zr 6.888743001328445 1.3781735701024194 4.549731033652866
Zr 6.916646124446996 11.10502021264404 5.5349965120139295
Zr 4.854694379090468 6.478597784717871 11.441945487197227
Zr 6.160972049526911 2.7986720156294513 6.8497909102583305
Zr 5.556619719235767 5.006947674195063 9.186154273709608
Zr 5.665397687921627 8.363633332616473 6.205574030900125
Zr 6.6326564513969135 10.736260641066401 10.728136731475828
Zr 5.739005924582253 9.274013003294357 3.3128821465289144
Zr 5.530137560539565 4.054424449673489 4.283528979190322
Zr 4.162499706702433 5.559629103774018 6.567565709669455
Zr 4.857472338080702 10.334451356029206 8.268828100932314
Zr 3.5251976931533324 7.363500494700974 8.926214485246737
Zr 4.104326996648568 6.797476422841938 3.8639463930707447
Zr 4.132109979728966 10.931709948719233 5.543600181081876
Zr 2.7068650108304944 8.13147150519118 6.159085468982884
Zr 2.945631341605657 9.380042332858517 3.6883199764768193
