35
Energy = -256.26552007 eV
Zr 7.326671924409656 4.090555316188145 1.9778026061825007
Zr 8.766596044555541 6.526090786401576 1.8936355626092274
Zr 9.880651797186573 4.296221204569012 3.5892653090137028
Zr 5.897013701658319 6.493223140605916 2.0067706698424703
Zr 10.018566053360512 7.656011021802433 4.183337526845637
Zr 7.338574211939066 8.65356562580553 3.4350680137228924
Zr 7.326324120990227 2.632353254405995 4.273635015554129
Zr 4.891684199540405 4.32877317675256 3.762285926223104
Zr 7.559301430985019 5.695160906793961 4.647415546112777
Zr 8.973148123783274 3.2491306311735335 6.3039881148326655
Zr 4.687388644180365 7.235158832454612 4.404425803679281
Zr 8.079513921538297 8.108339947240566 6.54412733254118
Zr 11.035160921466797 8.724982653044629 6.813490659118149
Zr 8.96529157333421 10.437557466674402 5.606944997052924
Zr 5.800660381722236 3.802229323016132 6.5373323603499385
Zr 10.538835120772928 5.795313130237813 6.256359450236477
Zr 5.522981526683475 9.736110332799145 5.644674080285799
Zr 8.347728164894734 5.528991878165229 7.948747796327246
Zr 6.93564579089115 11.098294622848764 7.675305781098995
Zr 2.991534990477586 5.501036811042512 6.353216651888307
Zr 10.263587794064064 7.386893946984833 9.244073560179704
Zr 9.373279537872357 10.241429977727073 8.728594992474891
Zr 7.031587950473825 8.097587238395164 9.429204709492563
Zr 3.020693238886983 8.380114811903889 6.417870855039479
Zr 5.403570255323721 6.660775214524781 7.4422528169714335
Zr 3.8587524213087 4.414063049375218 8.854211011386145
Zr 6.610044788434882 4.132611275115757 9.403502807011822
Zr 4.439432350776226 9.927078946838497 8.434454319805692
Zr 8.266044198457568 5.970710257929979 11.156202500672109
Zr 6.830616996156381 10.638536426487683 10.655048436657774
Zr 3.0237180981237657 7.20141032925761 9.121711833267991
Zr 9.176415842782946 8.883327852837175 11.378394706658252
Zr 4.40090218402832 8.862785700261657 11.044760607086525
Zr 5.166108122745432 5.987044322198623 11.074121198156442
Zr 6.698951158611146 8.122979156120522 12.412938655796319
