38
Energy = -278.59558338 eV
Zr 7.530437837482307 12.024372201113236 6.931640730905163
Zr 4.639194817835834 12.568567311398056 7.213440734619137
Zr 5.903059080302507 11.037605736000101 9.473504469347121
Zr 8.544975529162185 9.773956320713621 8.557933007348286
Zr 5.672710054438774 11.856635578205246 4.659443929934392
Zr 2.9844710688299956 10.497851609818673 8.307295885519267
Zr 9.50729579211001 7.567275977164011 10.583363599848797
Zr 7.842867974905713 10.170961691000034 4.416636183035831
Zr 5.546570021790186 9.711796631057242 6.983796836587451
Zr 3.1558597307481175 10.722427681954654 5.43068562893944
Zr 6.808073451704397 7.880163256611453 9.501721955392863
Zr 11.394735210245551 8.62600419810353 8.886826976168097
Zr 10.165479759668337 9.521215850819402 6.243622501198186
Zr 9.257877247692363 6.9034211388796365 7.644058712070373
Zr 7.301208052928143 7.833662905941575 5.848233631695373
Zr 9.982504469897417 7.168869813327257 4.427372762167756
Zr 11.213945464615245 5.530911721008362 9.134459902661636
Zr 4.183400957564811 8.316889383224469 9.676540755273905
Zr 12.039949514058376 7.230115137525695 6.586654355338472
Zr 2.4864418002344095 6.236417420265369 8.96537391270936
Zr 5.134043408843837 8.965533711156784 3.9986210723237035
Zr 3.2071147740229375 7.9728719795930285 6.5531142243596525
Zr 8.137609606298485 5.098149675811918 10.028188851913674
Zr 5.017801618198072 5.380467762442873 10.536219506303695
Zr 5.3104566681212875 5.931501044024397 7.681249525918828
Zr 11.150339297022375 4.576140945785273 6.160558235466827
Zr 7.4772319180004185 6.373225359743661 3.2231843414419146
Zr 7.756643123744865 4.824127543348685 5.952156680323618
Zr 2.655689080682265 5.154156830906615 6.31829299399933
Zr 5.095417484800381 5.84969078281762 4.621072384809502
Zr 9.371798735256878 3.197529867971936 8.123731271800226
Zr 9.64833584606598 4.482819152307963 3.413266193702438
Zr 3.5366194692497537 3.614939501557168 8.645309823281812
Zr 6.355314889634983 3.1282195541685507 8.840178940966098
Zr 4.813281141525572 3.2536093097747787 5.9857612547931875
Zr 9.519037905070961 2.4408630098570416 5.234252238164916
Zr 6.960694711956224 3.227471168060137 3.753079723158049
Zr 7.225732623193394 1.7583185340586818 6.447861518979432
