36
Energy = -262.51533686 eV
Zr 7.737569664962058 5.4456862943395885 6.505612248008824
Zr 7.680684824346387 2.38321871737149 7.08766562309414
Zr 7.775363650307076 7.447855780818234 8.98912688998259
Zr 8.512933341338524 6.654916465067856 3.471020816818481
Zr 8.614470656207986 3.5932309210825 4.511970534319684
Zr 10.632915289518055 5.449292368977362 4.923798071175361
Zr 9.007507053406174 8.137502276156273 11.675550355564459
Zr 11.571893443466264 9.690847400552126 6.896369681971261
Zr 5.903943682299109 2.967563047590693 5.118290181280192
Zr 11.04114355941378 8.207191297183186 4.414177670009922
Zr 5.140304157992241 3.737707971085804 7.833111674225935
Zr 5.119092580226383 5.767389131835239 10.016177340766644
Zr 8.489368834034696 9.509339044926135 3.313623451630903
Zr 6.027113937494393 8.43800328175031 11.11026448572604
Zr 10.137720318321799 11.00039762974942 4.982537510642186
Zr 6.0676608684940945 8.53527222695583 4.607243235450486
Zr 5.7385505022977 5.595085610135876 4.054538750956716
Zr 8.739573919148786 8.541457461811834 6.23282426406136
Zr 3.2082556366415975 7.282743179944366 4.665952644729759
Zr 3.4549150761494145 4.426491596589438 5.532445950246236
Zr 0.941929456597595 5.986841895167293 5.814825775556956
Zr 9.123050512499143 11.148943891989655 7.767535333339931
Zr 7.2747772896282035 11.127811068475138 5.411188993520155
Zr 10.083380088679956 3.9633944164886015 7.37587171527885
Zr 3.959388312356501 9.729580460249533 6.31427023280751
Zr 11.2560887600394 6.796280263533592 7.319244311112021
Zr 5.149286469446427 7.00831349861482 7.007992521270536
Zr 1.7008113572275683 8.268238990627314 7.047677987763142
Zr 2.653037441790952 5.715282169236557 8.116404694153104
Zr 10.575185861894234 8.898880100037134 9.389482942391693
Zr 6.195864328706196 9.875743887399459 7.925711511667866
Zr 7.493642543762511 5.897360798117967 11.605046853570341
Zr 3.6454763166090345 8.336147967778096 9.189282377901428
Zr 7.623729267087975 4.051721166480407 9.441925934284852
Zr 10.056490899761453 5.829360309696689 9.932245571237065
Zr 8.044462634339991 10.29326550317437 10.215595041793689
