31
Energy = -224.50394318 eV
Zr 11.967145285023793 8.234958306339347 9.717003847992517
Zr 10.735158739855539 10.133827694181704 7.795443322871978
Zr 8.97005602025707 11.351966016348966 5.82955944381625
Zr 9.726370622860266 9.771043672857498 10.402728157605866
Zr 8.40991544500727 12.165165631001361 8.69246955691926
Zr 5.417224560487723 11.588658128261658 8.96363424250482
Zr 11.847318183736796 6.670372034217713 7.446646610688268
Zr 6.337197722661024 11.88369719963925 6.37974703120211
Zr 10.578063605172847 5.833470391648362 10.131921059158282
Zr 9.724580843637485 8.68767762813592 5.326808910962689
Zr 7.043968545768022 10.427528881576325 10.921307201038763
Zr 7.324850034467815 7.663711503563853 10.97090644847929
Zr 9.236130498727352 7.429419450423168 8.321079050988985
Zr 7.519475546674493 9.601503984965937 7.975892971727319
Zr 10.556978598398318 6.012561298335119 4.976098308553312
Zr 7.737760042251122 6.334233346079331 6.098385150735777
Zr 4.6594835929425455 8.9421408438848 9.863424664047084
Zr 6.836545806128182 9.338574463626092 4.910443057866472
Zr 7.606248794132911 4.923125161973248 9.676401148022231
Zr 9.884946258681378 4.3674212583919205 7.560226251673923
Zr 4.893199292023495 6.155799220462873 10.666601489301941
Zr 5.92789946036365 6.898852554466244 8.014808802750618
Zr 4.51997640154293 9.558675284217786 6.869429306812561
Zr 7.010321650974735 3.4497347878395206 7.019047806269765
Zr 8.834310103030063 3.9471697657110445 4.709125924468899
Zr 4.783084381188314 4.149549159641371 8.843416410098058
Zr 7.958059574645416 6.674547160461218 3.4089309144169944
Zr 3.2376643871031456 6.721706877869083 8.022682493211786
Zr 6.161831091438637 4.473514829936576 4.221068481011886
Zr 4.878863645450613 7.116424830970125 4.924941569578374
Zr 4.346387190455386 4.649682042935715 6.219136959414245
