38
Energy = -279.02223121 eV
Zr 11.309290046913254 5.871143512967241 8.879374361399442
Zr 9.136169893680943 10.001757170856932 10.479056364866736
Zr 9.423194446616066 7.065194311541209 10.736098103290235
Zr 8.906777341914946 4.424238817655045 9.481208121742721
Zr 7.093590467787512 8.688897896783251 11.794674605856713
Zr 10.689029030211444 8.706672107712231 8.457482870611976
Zr 10.706194036872052 4.0882616051845435 6.6629353704528915
Zr 11.907645712127715 6.915672619573804 6.42201901216687
Zr 6.41797622862928 10.854595400952004 9.772912560912374
Zr 6.662446721349835 5.850940466952024 11.291223773506346
Zr 6.286763661009818 3.194648347255668 9.961074167928496
Zr 8.88846179445827 6.314232053400777 6.785051581293732
Zr 7.688118749041283 2.970974372018085 7.250389305060438
Zr 7.339773834065132 8.248955787740591 8.774775877081497
Zr 4.713316625374553 8.105476874797448 10.405615647656909
Zr 9.878318003884141 8.930210999349256 5.49294588246873
Zr 10.63369619721459 6.063711363728528 4.246938429625837
Zr 3.9136838918803925 5.036447764246534 9.860822841691967
Zr 8.676089822130333 10.862673618081658 7.68414105241402
Zr 6.176440427186732 5.59651617453105 8.389513411453853
Zr 4.640897215618767 2.904770769849323 7.608626147045723
Zr 8.440781851598544 4.071964504986132 4.533164175905057
Zr 8.256049979387807 11.366899398372793 4.95315749701815
Zr 6.036527976099486 2.5869748099219168 4.97485677956309
Zr 4.203283265930169 9.979896434951767 8.186498543113885
Zr 6.672902022682651 8.777051877330464 5.796729514959971
Zr 5.866600897265741 11.612397343218133 6.593027885947845
Zr 5.7729846536034986 5.649505179217468 5.652049431208753
Zr 3.800921983722583 7.434712633909339 7.578553240427335
Zr 2.7823429594904585 5.022516899603758 7.083253615982704
Zr 7.905789084891352 6.639467851885551 3.599792345247439
Zr 8.124032627664997 9.365152807795678 3.021029806887021
Zr 3.8047505564271766 9.536221690377646 5.329168064607412
Zr 3.523064787011311 3.648051882380166 4.83082480325797
Zr 5.45309764665847 4.816507411498255 2.981910980205361
Zr 5.766005431026038 10.852266820819716 3.7109750579062486
Zr 3.1790481452486583 6.54388445989169 4.511425905318314
Zr 5.40233543888375 7.969292797846786 3.09701098480465
