36
Energy = -261.49060179 eV
Zr 3.0729243102813357 7.8845160630227165 5.302387803149989
Zr 3.3221023620067975 4.994353436099386 6.068520418091848
Zr 4.034330071036758 10.627269465590247 4.705824186956552
Zr 4.647708435791998 2.420886956565224 6.6956797765250124
Zr 4.849565984765994 8.766290458174396 2.9469935529620828
Zr 4.888453272774181 6.096637389782997 3.5753741905843883
Zr 4.896234456567533 3.3600771174274198 3.982807649068999
Zr 3.2653271663491834 6.974409599009471 8.300813780291271
Zr 4.961799222882434 0.47568172958736626 4.4704339397760195
Zr 4.453468760606135 4.353612874685187 8.866454411808007
Zr 3.70240711750065 9.81065119412149 7.51304485019734
Zr 5.967579393972262 8.470557232008805 5.867289409118586
Zr 6.302376859546143 5.093234722574983 6.270257048399503
Zr 4.781215570479735 6.4294216403558835 10.995775227742817
Zr 5.856260595545626 11.622728793441496 6.409877977987987
Zr 7.0470394144877355 2.8543655745986016 8.214963186987362
Zr 7.472585225447929 7.559848368236722 3.139377696711298
Zr 4.364055361830906 9.03345617938534 10.15144732563169
Zr 6.406169921805272 7.145724266424075 8.718764108248351
Zr 6.998184195642465 10.535352470542234 3.9488887466443217
Zr 8.843140008016817 6.698085417088485 10.725046493674608
Zr 8.753189650408146 7.052064757039116 6.784901047381872
Zr 7.1991808654351885 2.226108591052018 5.254026646181579
Zr 6.46890721892306 10.497224735888944 8.821307394243844
Zr 9.154888106486755 9.26956673192516 9.226482765184203
Zr 6.993986914054538 4.5645197153227155 10.397266877321293
Zr 7.702311454674154 4.665086283423443 3.603974779685095
Zr 6.9404110499222105 8.760416151626368 11.20008020623573
Zr 9.49350560518531 9.136741792531156 4.292460895153348
Zr 9.415749335515743 3.9293023873632085 5.855530290197093
Zr 11.110855124862114 8.659134316754661 6.58471291207821
Zr 9.473450935968774 4.59173165907039 8.757164151332438
Zr 10.23520329425033 6.413773635793173 4.292121255809589
Zr 8.559146875119495 10.511352445192337 6.588049560084768
Zr 11.47163574065922 5.665316748768568 6.788081624910854
Zr 10.993868474419333 7.1324611729121825 9.053479286161503
