37
Energy = -271.86192294 eV
Zr 7.812908119869549 3.350780902692777 5.746587969125379
Zr 6.290426437360063 6.147796369638856 4.985700054407478
Zr 8.228775430588925 11.104677015377218 5.6905641903618385
Zr 3.134020560445422 3.872393814773491 7.452437732731579
Zr 6.627395823224161 6.572661893199482 2.045923059317402
Zr 9.080660754682086 6.289948414885098 3.8571486393921974
Zr 10.31725951233167 4.53830632323561 5.884144462761855
Zr 2.7869914075637556 5.68797169585067 5.258675139098923
Zr 10.957328658166235 10.237443989773153 6.477234718545513
Zr 4.335707099424343 5.0399739454791845 2.8667304112975196
Zr 4.222598720043302 7.839281069306661 3.57035535140368
Zr 6.819324284483956 5.049299289077828 10.427285493494576
Zr 6.991429252378892 3.9513540839710006 3.0549042353062847
Zr 2.933237016469303 8.414997316965652 6.12812453728687
Zr 8.219657310161507 5.856948894061387 7.722011664991145
Zr 6.574320605807559 10.279162204247585 10.715240893547525
Zr 7.275242594464822 7.538129192831616 11.757030798925982
Zr 9.344240293847765 9.208975036576394 10.968743063427503
Zr 2.261156931953893 6.554483343480373 8.300377265996413
Zr 6.336869842901137 11.302307723870397 7.940750932890983
Zr 10.880388151109345 8.399522462497591 8.701248612186467
Zr 11.288035821609245 5.645764656315575 8.20909783612067
Zr 8.647753171849367 8.267857469801848 6.216636099048595
Zr 9.136539277806971 3.613059266549356 8.716433204854432
Zr 4.697359137963098 7.438589151405303 10.521335416909693
Zr 9.11419147204841 10.930906280355444 8.652659296647647
Zr 4.243495941790415 9.335620130828845 8.54869467106651
Zr 4.9641100414258705 6.426889377059014 7.569076971165792
Zr 9.60673810115213 6.257232937811732 10.524423875371957
Zr 7.222209216191336 8.425897720392648 8.805584462797547
Zr 10.056830560475689 9.258604867530652 3.9319729938287873
Zr 7.221164039192731 8.88958274507349 3.58859226309983
Zr 4.874442874421755 3.400056368738882 5.2160052065075195
Zr 6.014705382420366 3.362224702799133 8.077531067945491
Zr 5.632693102868311 9.375055241795604 5.878868065668214
Zr 4.009331152946303 4.701673139707068 9.892610143598752
Zr 11.436832562320951 7.35871576294322 5.775946127483797
