32
Energy = -231.23513431 eV
Zr 9.331873838556023 4.896748532033492 9.994012316762767
Zr 10.64727989536903 7.555370397205437 10.494589216615642
Zr 8.420586287285644 7.05890866435928 11.984109169087613
Zr 11.018425736658893 6.413818059215161 8.029004538039283
Zr 6.34535783616492 5.390136536119791 10.835904129081806
Zr 6.908578246281303 4.071879668281487 8.229356314754838
Zr 9.00101412804831 5.136730819328245 6.672304309430396
Zr 6.059505177176309 8.326132059361562 11.19741786226451
Zr 10.563105189212061 9.292698263387345 8.1412646224035
Zr 7.971600579847021 7.199941846217056 8.961109023215798
Zr 4.2169122999012485 4.575062914661191 8.843333163479704
Zr 8.591144791549556 9.724596766420559 10.518071535294247
Zr 4.493534080350267 3.283044647534629 6.414062323446152
Zr 10.243541143801439 7.732352497300319 5.4965635232212815
Zr 4.658579433964651 7.259905908186661 8.983749798927654
Zr 7.018885476697152 3.353448827424666 5.123097757914131
Zr 5.8283591585914225 6.091602035179923 5.968164231607947
Zr 7.452278264851863 8.52713396706535 6.50430630968528
Zr 2.9240680865594384 6.055724983802717 6.718974614975967
Zr 5.947820661860824 10.103208221749565 8.92468541637935
Zr 5.140926018129574 2.098563801875818 3.4927184097163324
Zr 8.13325133005627 8.827283486789128 3.6031686608221944
Zr 8.493544960780875 5.914050933807255 3.949293808392955
Zr 9.530382423812798 10.508639456745145 5.5880899633606544
Zr 8.393348516165883 11.183339457225081 8.046640059035687
Zr 4.03540900625759 4.736196179373855 3.927942933140143
Zr 4.170294534747514 9.038670654104054 6.690872476411783
Zr 5.881808889919129 6.969072100596182 2.7894512632328587
Zr 6.5279790756721745 4.215472184630078 2.405009217798576
Zr 6.462246344816975 11.144061402463285 5.995318190373242
Zr 3.4400566758559017 7.484892952694622 4.326075862031857
Zr 5.30137430601723 9.432388727521545 4.087583351422509
