35
Energy = -253.34941705 eV
Zr 11.6883007441172 7.1897314524087905 7.055489670032437
Zr 10.462471805590893 4.625625136416927 7.123268232365408
Zr 10.830080242312107 6.3721432227841 9.693223821289548
Zr 9.472263260126466 3.690430415050977 9.696895969993038
Zr 10.73693880809778 6.409628188973997 4.4397455807876485
Zr 10.654190815103988 9.465819404732454 5.722990746176484
Zr 8.618939369461945 4.13979329900622 4.844089940717965
Zr 8.976337633168239 8.283350811984123 11.216101290495114
Zr 10.498590033279237 9.250136966289261 8.7626092642671
Zr 8.988477156332177 5.374115849849717 11.784600775606082
Zr 8.66934950614647 7.042959688698157 6.10845338401433
Zr 7.677195203237665 3.41839135633383 7.574253027468682
Zr 8.942784414240212 11.561149493841956 7.42379293942246
Zr 7.829774995941308 6.2804339206001325 9.074618038764681
Zr 9.134473966579582 8.568130661130922 3.344639598221998
Zr 7.36106762133467 6.198875754185717 3.387702957163852
Zr 6.567455370187414 4.073078908112001 10.535878314066998
Zr 5.673996026787968 4.280359757084093 5.491196190650193
Zr 6.588300499076793 6.658870063408518 11.94197385097533
Zr 6.007058798449024 3.8677186918927506 2.8362187290244214
Zr 4.911229919286646 4.1228398789490095 8.168308020926373
Zr 8.40681256866315 10.833898970223881 10.139434889502803
Zr 7.407338201279923 9.134222200410907 7.8729714315730615
Zr 8.204608698482053 10.62766533510788 4.848027200995239
Zr 6.071842653212109 9.094443742618527 10.7229647369424
Zr 5.7321408157488625 7.038656255294017 6.5992820564942
Zr 4.672940994787991 6.447919779400784 9.757376210373138
Zr 6.186235969277356 8.765200857979725 3.9507410855014213
Zr 4.3854916715878565 6.3612388796700285 3.9436423107218124
Zr 3.1968041837699865 6.051047095618811 6.842907182878955
Zr 5.916898777000823 11.486223346327279 8.814061164512824
Zr 5.546075715880091 10.814840421726725 6.035783364916757
Zr 4.119921150296176 9.060082118460514 8.405617879480095
Zr 3.5337464170790294 8.829733121458347 5.455814355465795
Zr 3.066987202523228 11.243661719248363 7.269609029362182
