32
Energy = -233.50128637 eV
Zr 9.440289842761748 10.612086845025756 4.406433329981203
Zr 3.1919938639078405 6.568664897988023 4.740655571401307
Zr 4.529872358557566 9.278358619031845 4.102710839360311
Zr 6.623620493647227 11.299537510294789 4.111150241614757
Zr 4.337529905987042 6.525480041471446 10.591605620227496
Zr 7.401491399872929 2.9126877240428573 10.148335513374876
Zr 10.03845642058014 10.334801555114817 7.2786759728688
Zr 7.43734433878647 8.676020547032826 3.1446834107948476
Zr 8.851586715904704 8.028265886096138 8.730300092671689
Zr 8.084969423165743 5.710348387997329 6.644552253600583
Zr 6.244560058291962 2.8989795590767575 7.467283468650551
Zr 8.096133266082237 3.1105278624349153 5.212512831427506
Zr 6.472292660445694 4.931234073727724 11.861667126549278
Zr 7.5598780521162725 9.292609831399618 6.184438532397954
Zr 6.570082392230481 5.582742536738735 8.989911770178082
Zr 5.44921743610172 4.366416986712745 4.7976271376084085
Zr 8.059660204310443 5.6286251913989185 3.656174727008498
Zr 7.088869639785229 7.649765728467185 11.085304616378195
Zr 7.481079668513893 10.688833393878387 8.826496020540603
Zr 9.945591752183152 7.6959262544428055 5.4638809632032475
Zr 7.938345110652293 12.210887088657898 6.405294092117114
Zr 10.784820839127649 6.006613924569187 7.93916797514531
Zr 5.495884969159225 8.495238717008707 8.69944306152285
Zr 5.12797216838464 10.91174119357806 6.707611812944706
Zr 5.371789777138046 6.626863946100862 2.894945176337408
Zr 10.470878324432519 4.6747729043653115 5.453888614840803
Zr 9.291553462230475 3.3426566358587606 7.982617558142779
Zr 3.981837908223387 5.5833155693110985 7.537831526877883
Zr 3.3061630120794963 8.531613223896656 6.793053072281248
Zr 5.788141662733202 7.165245838983428 5.784486065496714
Zr 4.600337085189551 3.6657179205454593 9.933951369004701
Zr 9.177540667075629 5.349597583028708 10.383422227778723
