31
Energy = -222.05995938 eV
Zr 10.722133663737315 7.29171175718376 4.839543880875995
Zr 9.791577629841393 4.482278954320831 5.33404059374111
Zr 7.962392647022965 5.690765456433985 3.7681768301514746
Zr 7.091073453335133 3.1076615517159802 5.452062425700744
Zr 8.706430964308797 8.593397985615901 3.247425830837184
Zr 8.435144307413154 7.915735763979899 6.382739364470964
Zr 6.106335367159528 7.7963834637495975 3.6374436663264222
Zr 10.827008313101386 5.828289535497681 7.576345802520019
Zr 9.407627172764773 3.1469524465666394 7.708249629276279
Zr 5.010995215617926 5.469729076146514 4.7173194088917025
Zr 3.8519658993610046 8.760960944531776 5.017383332850003
Zr 6.735490462228513 2.8417016300320963 8.595134337102143
Zr 7.232463422751678 5.376055793634895 7.100132784939423
Zr 9.811745045493725 10.23302949790414 5.234050545394738
Zr 6.787822071055708 10.285706871084551 4.82333922028472
Zr 4.623846336420779 3.74946434112386 6.992538259829385
Zr 8.21658813631638 4.997837210108569 10.028930818402868
Zr 10.791201404474561 4.345115370806111 10.052609869352242
Zr 5.763203031208969 8.128191230084953 6.968888689833538
Zr 3.423827232606356 6.288109280411678 7.319208846640406
Zr 10.92974571059223 8.902056995022162 7.524487498298836
Zr 10.253342541613044 7.33615831949879 9.996893082543675
Zr 7.774911245455367 10.756489672597642 7.4404428685503
Zr 2.4952334236899505 8.990383731425437 7.536248937548685
Zr 4.658769060622085 10.922579747594007 7.128441223676859
Zr 5.187573679086472 5.219522278042151 9.481100810216788
Zr 7.338387301899862 7.716960567709556 9.550328656832384
Zr 4.34610956919725 8.087269240398955 9.717305192775372
Zr 9.224894894795248 9.957655343938233 9.786204391559364
Zr 6.143844544294687 10.389851598071484 9.77479632516807
Zr 3.211101367018408 10.689598700308373 9.579821094431413
