37
Energy = -270.99451104 eV
Zr 6.067127046570071 6.921406501499015 12.476256028696973
Zr 7.628886834880003 9.398743460781915 11.406156398947234
Zr 4.726977235018387 8.661604071588238 10.745894144346256
Zr 8.843177094482787 6.600909734575044 12.211554549313684
Zr 4.1975471139634895 5.660202220527901 10.536120151505406
Zr 7.006871084899417 4.420791573799799 11.07435527025081
Zr 3.257361276179777 7.736451319846443 8.441525758364836
Zr 10.176765989225071 8.091737546544913 10.122574952368508
Zr 7.311728590250383 7.052715680205865 9.801377290471455
Zr 8.859678827388057 10.012025808547815 8.474942421558897
Zr 2.9620133700255495 4.88335616225139 7.875878548229263
Zr 5.1145220949985735 3.26343447874436 8.901339066318862
Zr 6.150093779987814 8.654065082536455 7.556308558799254
Zr 5.602563546299553 5.937572259234954 7.748087107471381
Zr 5.974387981526542 10.86051685129307 9.268100463968842
Zr 9.802109325126477 5.27215527911008 9.764913385090122
Zr 4.3503985412545605 10.045499301075454 5.903015765685666
Zr 3.776645705468933 6.9504144826478464 5.603454789564445
Zr 7.831614670318897 4.001069938426881 8.04258723949473
Zr 5.003578494770947 3.8421581429469898 5.792375863297241
Zr 8.773293569692378 6.9967598625273935 7.32854098131239
Zr 6.999455518200878 11.268339567923004 6.522397726071146
Zr 7.380906904240445 5.402270828194999 5.181717883900909
Zr 4.005573597748747 8.861476577847993 3.319650885534311
Zr 6.5256389636644645 8.050057781823629 4.617962898185318
Zr 11.118223618182405 7.931583592192507 7.138883061042899
Zr 7.899784883850198 2.5352684958676894 5.541075930165047
Zr 10.167283490577132 4.497280672543064 6.302982193936523
Zr 4.940467387283253 5.949673324714357 2.925534039103286
Zr 9.206557030252602 9.700419781165076 5.376249140172256
Zr 6.533746202888119 10.664640674297548 3.647512468978782
Zr 6.5879978953476535 3.4706000040420366 3.143635579673804
Zr 10.058179590656954 6.813601528949258 4.3835071549378455
Zr 6.194948723615771 8.38883231751615 1.657756534924033
Zr 9.421108333020369 3.9416879659036246 3.5103358018309567
Zr 7.866424761223115 6.007334070251965 2.150611290154667
Zr 8.777985329108022 8.81873105753522 2.718221083677301
