34
Energy = -244.68627748 eV
Zr 7.090300762787456 11.005551043905742 10.613897410143368
Zr 5.1107313405359545 9.144156494371915 9.761874269458625
Zr 3.1098954055990777 7.216975141065252 8.69500112297689
Zr 7.302348595422965 8.214862916014313 11.782169987062602
Zr 5.325648621352615 6.238421670744643 10.667134096786757
Zr 3.7913794572021953 4.368508596103306 9.132243542265478
Zr 1.9549758682898477 4.670210298112071 7.2450345438619905
Zr 9.575188357925368 10.955789367522192 9.011588059323405
Zr 8.37198274302256 5.4675057930696545 10.56978268957743
Zr 9.404995476480531 10.173630022954194 11.663986700894256
Zr 6.7634963304018365 11.02070136034344 7.780534763896726
Zr 4.920967835135212 8.873144410740101 6.6045702009234715
Zr 6.594700600330713 3.674319106295041 9.076010340149066
Zr 3.476807103905861 6.3169409673692805 5.867360998611571
Zr 10.179569103257839 7.71525301661269 10.683569755995904
Zr 5.883571742730182 6.2996054818010085 7.802385589717932
Zr 7.900319893825531 8.46805029934093 8.887234866043945
Zr 11.176568164511849 5.632603986956131 9.201317250383683
Zr 4.854296491864601 3.669022584692458 6.484365640891478
Zr 8.800188777890453 6.083910051705005 7.438905709932363
Zr 7.708035038116407 8.292135323667445 5.74214289567466
Zr 7.692154561929402 3.5261249002907067 6.203034098189359
Zr 6.17183040365562 5.826929170406786 4.7723513818474075
Zr 9.564391613534623 3.502361543551775 8.471987667372725
Zr 6.628694602581598 10.994610746117392 4.811235347595509
Zr 5.442338359781277 8.51067505185631 3.668532085799402
Zr 9.40576977645203 10.633303852172148 6.191106705674042
Zr 11.029087634531608 8.322297123455632 7.68199363570628
Zr 9.148134151741385 5.197239696214885 4.43303933639991
Zr 9.004527148829387 9.930085950108875 3.4012548624795564
Zr 11.32477443220893 5.441913513812787 6.398201932721101
Zr 10.496822387676527 7.876059930222832 4.74712033579367
Zr 8.079840023379603 7.232409024304719 2.833221323814197
Zr 6.801430511593163 9.940558638576766 1.8920515203301123
