38
Energy = -277.07533405 eV
Zr 7.237935070836136 12.336285980430139 5.810165342303912
Zr 9.691533382480888 12.11868329057841 7.753703522052925
Zr 6.725857742102353 12.149457377299203 8.478781412377982
Zr 11.17548512248828 9.869349806581495 6.314958351726399
Zr 8.474257458361414 10.592358048695012 10.1705627006917
Zr 5.070710352649522 10.123886600701127 6.461484724906025
Zr 9.620265513974298 11.242617493494715 4.824132361348969
Zr 7.13731068536716 9.869118934105176 4.121608466423985
Zr 5.747750042231403 9.716671611235311 9.594419655735063
Zr 4.619849325609592 8.99768841305056 3.45543059057386
Zr 8.073241048893037 9.798189251589768 7.121371274941005
Zr 6.864959570637593 7.575658614302905 11.464297613549576
Zr 8.591989495907008 7.729577825948977 8.972489857998143
Zr 3.10571466479898 8.381585939122996 8.196142755696867
Zr 10.89955216296852 9.581633588369618 9.072234672235854
Zr 8.878949228647494 7.675735169894469 5.108202758554724
Zr 5.754177252966596 6.9001522870162955 8.732193355365181
Zr 7.954880514300655 5.021351702687575 10.200394867641123
Zr 4.005997923497133 7.749460054692651 10.973398632718043
Zr 11.072243640212264 7.176640657148581 7.081531571166478
Zr 10.803485851874983 5.884274406629954 9.59288571013066
Zr 5.783311661986703 7.189651198642166 5.703225979268473
Zr 3.0018113175186683 5.621935437007298 9.33072490870239
Zr 10.207669362200123 3.081964301123546 9.136254674505935
Zr 6.895143204554829 7.210619578092412 2.8625699452005917
Zr 8.539576045106903 5.118885933204303 7.295849722407503
Zr 5.1772719672212695 5.060478212854052 11.019360002775189
Zr 10.287567453549547 5.226909596635096 4.774741179182014
Zr 2.851541196482884 8.224272165748715 5.279353271212673
Zr 11.617239446517285 4.373679480330575 7.152900083232264
Zr 7.347033869036989 4.773885593023725 4.4832337120710495
Zr 4.197110620067405 6.101978788193463 3.5055164627875506
Zr 3.037633309519614 5.763185681162256 6.479578208331692
Zr 5.383342204891924 4.13805824650624 7.939478853144854
Zr 9.553676110153152 2.537844138475601 6.197942247830232
Zr 7.684258221586834 2.358448578069243 8.66813153230311
Zr 6.727464367821181 2.3031601839045326 6.127449575230216
Zr 4.653579658289341 3.83313643515897 5.128191818783585
