34
Energy = -249.23947623 eV
Zr 11.763651237451903 7.969575809767643 6.537767934715865
Zr 10.459849967373474 7.5818759457625164 9.565409231414073
Zr 9.955468457651186 10.046491035209234 5.379211654452955
Zr 10.10048630685501 10.001442481640197 8.079128423369891
Zr 10.91751287658051 5.380387848983059 5.207624919280715
Zr 11.150188000442403 5.378716648253868 7.902031801194914
Zr 7.892830484218655 9.364940925196764 9.770568172834544
Zr 8.358669468507115 7.079916573059029 11.487034245149802
Zr 9.184906488747435 4.684511158341788 9.865846261105139
Zr 7.616986228551854 9.744758998154955 3.782512426984719
Zr 9.071790935851771 7.38927180787377 6.718274326834166
Zr 9.977775067684684 7.67317012767523 3.748256490340568
Zr 7.405049111977795 10.296691014825182 6.786934513292204
Zr 7.192575529050124 6.54649170795709 8.742592941378657
Zr 5.2116581117565275 9.519090970860711 8.490014830974088
Zr 5.496540812560776 7.697848860093847 10.919108329064258
Zr 8.790526863697698 4.042565557007222 6.862742925821806
Zr 6.5764069178991775 4.932892725683245 11.243531769488854
Zr 4.887988353900294 9.77678082025958 5.337598639401966
Zr 6.658487326576787 7.246247376386167 5.10963306790676
Zr 7.594617772914553 7.198981659659155 2.2195560393522453
Zr 8.405974521449842 4.983004629596102 3.901811064853729
Zr 3.069001850328956 7.791956423683109 9.418050080021967
Zr 6.491733901583384 3.5218643978925 8.728513791681811
Zr 2.7202668106800325 8.838101830955974 6.9375202987127365
Zr 4.761813204956116 6.494230874109379 7.1517302144929715
Zr 5.146982722431552 8.451688183353076 2.7691223711097406
Zr 4.063305151119967 5.121483947341497 9.868781316732393
Zr 6.235355747858987 3.8408016199950983 5.634112226569455
Zr 5.388151796080031 5.474262159086746 3.1300097810855263
Zr 3.173475387776194 7.314155212575694 4.540433094864616
Zr 2.0703506578491186 5.901785691142976 7.339804666319374
Zr 3.9119775006783795 3.5051786986263345 7.500980103573498
Zr 3.4766680601100526 4.553916713921214 5.051976509723008
