37
Energy = -271.61166564 eV
Zr 11.47192193205642 8.36299411463222 7.420562026989581
Zr 9.961357888867724 5.764753600952432 9.29564609653132
Zr 10.87249218697004 5.161849546512561 6.416608712852875
Zr 9.160661455154132 8.722564695914706 9.947334709358822
Zr 8.263642078872344 6.389571640545714 11.644074703926183
Zr 9.62069283440476 3.1011171372111943 8.166417796614773
Zr 11.083924084807789 7.376869984932448 4.531161999533338
Zr 7.544603926255745 3.834031654468285 10.055654329988727
Zr 10.178546739006913 9.894446753323095 5.055485553138333
Zr 9.191365817663748 10.795049672248984 7.614416618660227
Zr 9.215485419860354 2.864888375143684 5.420551937212662
Zr 9.066596713595274 7.632531749200362 6.8469032135827765
Zr 7.204493840660978 10.902636342485144 9.88466755229797
Zr 6.853063335591912 6.596987776883331 9.145232843008284
Zr 6.159024200957958 8.544357845672891 11.178503926620557
Zr 6.871033325729428 2.224237093326646 7.203201860994136
Zr 7.52030928763242 4.863441444688242 6.9619847673508986
Zr 5.494401047304616 5.562354843560555 11.449050342616337
Zr 7.019075621120143 6.953167117399284 5.016224194313379
Zr 9.250070049032514 5.2529407193883895 3.8019526371485113
Zr 8.607084483001927 8.275051928284416 3.0283138870634736
Zr 6.286272777417658 11.831884601588365 7.353252101762207
Zr 4.774306767461329 4.266343468571309 8.817855690754213
Zr 6.648806737982248 3.628045373038629 4.195884996552513
Zr 7.382932545807863 10.472111551800518 4.923710494613889
Zr 4.409054203063056 10.01582770886735 9.002466585276917
Zr 4.81338958850162 6.983279981876937 6.753831525763588
Zr 6.785597676445027 9.040974826606986 7.604291191799868
Zr 3.736274107686575 7.110153006459227 9.68719320831768
Zr 4.504187364546929 3.631570279367416 6.081799107859613
Zr 6.72152281479259 6.023064899797323 2.339179946698033
Zr 5.3217720957999015 8.514774193908988 3.372015461936179
Zr 4.38140387325714 10.150833882176281 5.819260323829304
Zr 2.457847179190787 5.6503735606476 6.7923028278128195
Zr 2.4019288306632784 8.57627501015334 7.4215262695683375
Zr 4.240280996596112 5.566430743777085 3.9617996130645876
Zr 2.761372093462657 7.903828543158015 4.733399204296776
