34
Energy = -249.31297848 eV
Zr 11.238085459086028 8.849806662412973 8.298068852116987
Zr 11.641324898931162 6.105144221046309 7.830773117651793
Zr 10.533768863403866 6.9567794712872315 10.248847172918579
Zr 10.70948981568073 7.850306109302266 5.5947108370075815
Zr 9.251425723003234 10.214076085835982 6.962545012256125
Zr 10.074124893137643 4.808331753444326 5.951165612689316
Zr 9.479683577719424 4.462990547539383 8.934517425501028
Zr 8.72004003440647 9.215790018857787 9.93252687993512
Zr 8.731732296300317 9.774421976540776 4.00885831772301
Zr 8.797893188736115 7.137940656739133 7.775293383654392
Zr 8.014056549553448 2.700220734585992 6.741958240125365
Zr 6.81083844365681 8.385787306404275 5.675042748105666
Zr 6.603334586541854 10.524893655525222 8.344675789400782
Zr 7.875628704261263 6.4600065376434435 10.81311574794004
Zr 8.864539208923658 6.543269281580767 3.8114229278039287
Zr 7.004277478389585 11.457635863501613 5.739044420424112
Zr 8.259695376355435 3.778481778257149 3.9865984695334746
Zr 6.86500069045322 8.032497844995515 2.612784503583677
Zr 6.597902521184202 4.088528577002973 9.321937224001896
Zr 5.806551529009643 8.630750570961002 10.985479012218274
Zr 5.791274038255028 2.9359565857341985 4.69293536530089
Zr 5.769960362961317 10.276023899959446 3.637107198496262
Zr 5.7316483571564065 7.2937551974872905 8.425445910010728
Zr 4.035034712221913 9.801529924344585 8.934709134660494
Zr 6.782859054814856 5.271322634474082 6.235483565407642
Zr 5.895677870895751 5.478217716054812 3.3259827828734045
Zr 5.080900163507944 5.778264288081637 11.01492484374698
Zr 5.143856355156384 2.880658329439494 7.299081126726218
Zr 4.353806398902784 10.118257288133805 6.152484410208219
Zr 4.235299712924077 7.819659939368475 4.220825461403484
Zr 3.7424558758113653 4.9926853647475555 8.517387863633852
Zr 3.2250654523341806 7.4729206736321 10.006822752265279
Zr 3.876193073558075 5.038333594453801 5.511339152837563
Zr 3.070767628470663 7.583760845692872 7.035609050308564
