32
Energy = -231.30072368 eV
Zr 4.1702082156815905 13.146555220155502 10.156478882872998
Zr 10.931338702850857 12.174896780063545 7.523757447082996
Zr 13.723964433074022 8.881591204866481 12.709324603408618
Zr 11.123133692286954 12.692445299732515 13.06582332361126
Zr 7.9081750225076215 7.66303018369952 6.197237624276146
Zr 11.42548558965763 13.436174491321482 10.231893242866663
Zr 8.707506060870607 11.118523227773768 13.297726891302778
Zr 6.578988294678571 14.597646302906531 10.331580296663729
Zr 8.856048591359436 13.598038017020402 11.656768942602858
Zr 10.842380500969632 10.25945881662652 10.958394672348001
Zr 8.914067876631822 14.238593753755021 8.59819169894568
Zr 7.190038599145523 9.16885402368865 11.484789941486175
Zr 11.58141059899672 7.346394464841979 12.007181583771104
Zr 10.720893059518907 7.244470026532859 6.307399670398272
Zr 8.973208309889555 5.867185986256326 8.126870978061403
Zr 6.7071086837376575 7.702034036469561 8.865774012782753
Zr 6.682692616801956 10.096854516351948 6.880435879788485
Zr 9.613626559380553 10.027865435616858 5.790833553800715
Zr 8.296006776741487 12.48877585972743 6.430372183124121
Zr 13.217761152636902 11.597794870410398 8.993823404620311
Zr 11.663915068054628 6.842978461065545 9.071502096140964
Zr 8.979190962898327 6.793676705079962 10.806604553746396
Zr 13.590961111446914 8.991241251136174 9.963973119447397
Zr 6.201029160266067 11.999467306099469 11.684637053574688
Zr 9.464157651999214 8.837187490293342 8.537056801640741
Zr 5.234193076095805 10.348805089635242 9.44744788696672
Zr 9.210508044543827 8.345509792021598 13.24288350757006
Zr 11.431526524641185 9.965747827514578 13.912847408883955
Zr 6.016804705213768 12.876481077428329 8.046415625821757
Zr 8.249885248705441 11.471623243642547 9.455080458176342
Zr 12.284830466077363 9.373661577896604 7.355999762994853
Zr 13.425244390787169 11.571313003149218 11.780644361843834
