31
Energy = -224.31124947 eV
Zr 6.018036269533923 11.382292356793469 7.584809899682518
Zr 8.08698339130038 10.204330523880339 3.098830536120125
Zr 8.334440670363957 9.16296043530556 11.238058272047303
Zr 11.900796931461498 7.759335667773864 6.741254667081186
Zr 8.267852075309237 7.257020363327818 3.5412415836402933
Zr 5.960899991836407 11.24556279785197 4.670021262415786
Zr 6.959134505544104 8.529075302391199 8.529092996558122
Zr 10.411962411279518 9.320378847310224 4.452265909353533
Zr 10.666118676362132 10.184940969711468 7.109071794257282
Zr 4.505600300620649 9.180581753642452 6.134399367057856
Zr 5.739393821685404 8.648577647036388 3.492608635710013
Zr 8.753582292672618 11.727561141621305 5.604876885166731
Zr 9.524541195161452 6.654449665681773 6.297836694928009
Zr 5.8781532702287365 6.4824886283010095 5.408169876828185
Zr 6.080464672751941 10.522495356298613 10.488566342447482
Zr 7.884682255946152 4.5969792164164245 5.247067065214508
Zr 7.693335143886516 9.079322858471622 5.906166388889388
Zr 8.586388531685504 11.046959852244665 8.88948435050853
Zr 8.846262652255568 3.173429433307948 7.433970513578299
Zr 5.721839183408413 3.768724870273569 6.971647952609622
Zr 4.104443616163121 9.384295545556116 9.000544923949114
Zr 10.63966187752108 5.424545697418802 8.76627816959088
Zr 5.712261611520563 7.377302637985926 10.904423530949266
Zr 7.476988532246537 5.576948968734226 8.536119179882755
Zr 10.15375281765708 8.234441738815635 9.141056322579638
Zr 8.913056588728056 6.428811023485556 11.190003512631396
Zr 4.379682840657911 6.7225413411855754 7.911762805028426
Zr 6.698190037656876 2.6542724391360304 9.429574811261052
Zr 6.780653437197897 4.596596028543485 11.54766491879903
Zr 9.172261278800145 3.6231269261317296 10.307812709397757
Zr 4.708825804471819 4.722326389113238 9.681990259458752
