34
Energy = -242.33357403 eV
Zr 11.32331507642213 10.512206321859699 8.614393538329297
Zr 11.074156743772674 8.303187261375276 10.07380005510074
Zr 11.260046905028776 8.008502319758982 7.11844186799652
Zr 10.78508342006184 5.630418043252357 9.019694254203147
Zr 10.534523381834477 5.221055812708521 6.008643500691258
Zr 8.578485752176626 9.743670504211845 9.298576672757907
Zr 9.535360905394242 3.368973442100517 8.114529057269058
Zr 9.319603710094352 2.682363907400259 5.283637550383529
Zr 8.577777269180245 7.118426968911553 10.924177084774742
Zr 9.443848057351222 10.22298897945252 6.494117334271006
Zr 7.585324838350239 4.81184575683848 9.730388589720173
Zr 8.479827614369775 6.982022546605428 7.77134159213329
Zr 9.133483172747432 7.7797407258780975 4.886531373473931
Zr 7.267730997432119 4.336324349415544 6.53844391159637
Zr 6.801670218768667 8.94368049587476 12.245056414465898
Zr 8.521215670425203 5.0782885440082035 3.7374088827910468
Zr 5.661158181369627 6.3095332109234255 11.728712663009881
Zr 4.201043666819368 8.895614922308798 11.505118000138577
Zr 6.806141600425818 2.6965730753036246 4.178015169180513
Zr 4.342573460548169 4.122481760546019 5.671787442755205
Zr 5.078685456622798 5.678172436949843 8.060142022009222
Zr 5.478154569449653 5.060655497983173 3.1747365198313293
Zr 6.093863851813469 6.993313591054325 5.384780949430394
Zr 6.999168881966131 7.5107287843982355 2.5303606440176853
Zr 7.265592766651773 9.9581412727316 4.170998008415759
Zr 6.620244501834513 9.534767508574898 6.948272102151234
Zr 6.092257648197745 8.076069279031657 9.461241963348389
Zr 2.335989940719406 5.677862723505734 7.5194694254507235
Zr 3.2619362168702297 6.636904483454746 10.144622832277316
Zr 5.389048533776901 9.88142231318963 1.9676236312682365
Zr 3.0894681122004344 6.828792035686778 5.1092513392146515
Zr 4.100831290806921 7.520165865047085 2.424886439021689
Zr 3.5968158602767564 8.378244820829627 7.673518428435287
Zr 4.404247038608979 9.409803744156726 4.670031643849298
