31
Energy = -224.98287732 eV
Zr 7.719862642859593 6.289774006181601 3.440016192350224
Zr 9.904376823242785 8.041718523382237 4.241964694718542
Zr 6.899244267798809 3.8875200217938013 4.613826589514802
Zr 9.695365836897002 5.294207442482737 5.244764049246611
Zr 8.93813609648486 10.869784838044094 4.460226808832413
Zr 6.875686186925558 8.869072092029887 4.021846129086798
Zr 4.945916300080105 6.4969784869092075 4.454392164885087
Zr 11.57433217578668 7.6012276140704795 6.782432230519217
Zr 8.847498534893601 3.404847515885306 6.969786402522958
Zr 4.247996186840835 4.209170428982444 6.036878172732916
Zr 8.59795140434513 8.810745085659043 6.892212091126225
Zr 6.246683193269667 2.809979968115386 7.351095967971329
Zr 11.224121457521173 10.214683087607657 5.7263510232771395
Zr 6.615622006105356 11.150052222533287 5.865349519107004
Zr 6.7893942862201415 5.88040553235515 6.6405435026199084
Zr 9.42987101269465 6.028471402319517 8.295329890712855
Zr 7.553817590675977 4.393987998698163 9.541291786163644
Zr 9.045194068333176 11.675349210067118 7.441836029112195
Zr 11.204680062958678 10.074270151882837 8.440488750006274
Zr 4.63461336806515 4.5501667223928735 8.99818599055797
Zr 4.826235743427633 9.023699467381912 6.2069668686112385
Zr 3.5477975108584463 6.744676970684232 7.3483231765686154
Zr 6.291508856356863 7.392000512210846 8.891452170530972
Zr 8.434621364392585 6.914510098727381 11.138686996607747
Zr 10.938546308488297 7.792727278765434 9.751354104178683
Zr 8.635345304418669 9.624365978837224 9.948885067265572
Zr 3.8949894207600226 9.276315915384739 8.96696199429858
Zr 3.6411411065604367 6.946091477822688 10.403876400839877
Zr 6.378889998126567 10.602020495885537 8.660762938318213
Zr 5.8991740668242 8.749856783356764 11.305665479255865
Zr 5.857650096694724 5.726626818010269 11.494637514406072
