35
Energy = -256.88050857 eV
Zr 3.825050544661367 8.938452043055726 4.33655268574707
Zr 6.5963501530735105 9.603108805356058 3.4885452450445364
Zr 5.6769451609830135 6.715042277362166 3.7564600627714
Zr 6.983279593816793 4.177724912386054 3.2287349231298426
Zr 8.517707690930878 6.560234369607857 2.729168963950585
Zr 4.979288085285592 11.309685521490799 5.293396283259227
Zr 3.483360209109856 9.616195820572337 7.211159933762479
Zr 5.262350746043367 4.179766980590101 5.556472070605395
Zr 3.57518584221733 6.725666340393843 6.272794384153898
Zr 7.900285245544786 11.235423503052562 5.779403648476862
Zr 9.733485440546895 4.015681477907424 3.637950090548292
Zr 6.047315387461657 8.570470335631047 6.195390122800319
Zr 9.06561065430532 8.67075337832802 4.807262444614981
Zr 8.13364506809519 5.776243997467886 5.736857497865125
Zr 7.937227183770778 2.6863775796570835 5.51010287799524
Zr 10.857891055985604 6.44657142858123 4.433947969994334
Zr 3.2686118883034414 4.1972849858177925 7.657446141371332
Zr 10.529288821192129 4.217106153430564 6.507072142141202
Zr 10.566045064438947 10.144521010074788 6.901155581280732
Zr 5.968906760093137 11.244131677201741 8.088192765624095
Zr 5.676452486070433 2.6972736091131875 8.203562573317374
Zr 3.0576602467062806 6.586331966476802 9.250542526971044
Zr 5.944021394650176 5.788257853654409 8.349753614844767
Zr 8.058117853207733 8.768886696608323 7.889421082551691
Zr 8.459562413937592 3.1940425884565187 8.241289071892313
Zr 8.895576761392869 11.647825041159408 8.570446603506072
Zr 10.657442913278356 7.256609567178754 7.196270011056337
Zr 4.150289138223953 4.0391189668261385 10.293319271407729
Zr 5.211875609816313 8.687471254120736 9.421085831188217
Zr 9.528149601306161 5.5218124711459975 9.134019945713353
Zr 7.542836110380529 10.161673931552519 10.524032579875133
Zr 5.1413630146080544 6.469704857659492 11.260500453306566
Zr 10.217784958738603 9.184473271786043 9.689835764058351
Zr 7.11351113060185 4.228735671754374 10.577416892540732
Zr 7.833460096448291 7.268132711156516 10.578136336266665
