39
Energy = -287.17088696 eV
Zr 11.073469005537305 6.322363364369204 7.616779142435847
Zr 11.266429888550084 9.132306872987822 6.3670198542507705
Zr 10.417626430367783 3.8017348077788995 9.019321837255275
Zr 10.511896767634619 8.573496461276928 9.215283534907773
Zr 10.30189112671896 6.557968920716075 4.641692201818921
Zr 9.932828252097144 3.923957944277484 6.102902120188577
Zr 9.776253505227203 6.326431058620122 10.69106791647324
Zr 9.854412292204536 9.33472914369658 3.8042912508431335
Zr 9.203000933409948 10.833832322052212 8.537294420685594
Zr 9.28364900167286 11.340847489993807 5.718475305434873
Zr 8.530130241032438 8.450911335906088 6.332545861138946
Zr 7.775936039654458 2.6162393976110248 8.218263058964167
Zr 8.168368632707143 5.578894355582748 8.310402739985541
Zr 8.211013063292551 3.879002059156626 10.821755218068756
Zr 8.245875975876505 4.479886083631305 3.2015859920849365
Zr 7.212586429209455 8.38080547266934 8.900715000664952
Zr 7.814728211223862 7.574079671794446 3.040126918551543
Zr 7.0503906745032365 10.404501479272394 4.0158060533840985
Zr 7.684236690371342 2.3997157346300755 5.324663256724589
Zr 8.398223604473545 9.210067547960858 11.27684558977052
Zr 5.345735461157914 6.255626977362271 7.835231368954355
Zr 6.562504820744611 11.047316341590914 6.8427002665666725
Zr 7.121812162645195 5.369991186638691 5.479500481463096
Zr 5.090320471333311 8.851127539146129 2.73182316523126
Zr 5.327623270212604 5.953619301624144 2.8996119479044262
Zr 6.744119417022035 6.3618451610955455 11.262563993567957
Zr 5.145605737813576 3.1145395660426964 6.918608320643666
Zr 5.624563651503 8.045284052585131 5.593578751017969
Zr 5.519723954826098 3.3168172091025983 3.9576182527729133
Zr 5.439011935172032 4.029272717218715 9.828968287226001
Zr 6.552606353638822 11.136057020401738 9.739452492122567
Zr 5.436251613043847 9.039304606945342 11.179461010622775
Zr 4.346323149061463 9.541965178106087 8.346192542485804
Zr 3.5514900383673584 5.086093797971436 5.267366648487027
Zr 4.002424323352633 10.217408198174606 5.185035390689496
Zr 3.894376218442099 6.91833843047437 10.04423756613372
Zr 3.0267623757704136 7.571260339034072 4.080212291572395
Zr 2.955856551661983 4.728573526747583 8.12958716571853
Zr 2.721986285550335 7.526418031955177 7.004309467152182
