35
Energy = -251.93694086 eV
Zr 1.4805496815286312 7.047575283820472 10.423491213312545
Zr 1.6324145730842985 6.854786372838307 7.693225028445663
Zr 2.9824787102504424 9.075787839863374 9.057732641225027
Zr 4.226413294313813 7.634272774814387 11.35218004012072
Zr 3.167825877307869 8.581304708803094 5.991246540640795
Zr 3.574467956872185 5.477422013629206 9.465872450222168
Zr 3.6352302223795543 5.399635011527194 6.306247982664021
Zr 8.139465280381394 8.984974006507397 2.8968716813637627
Zr 4.170532216187954 5.292778445555345 3.565356199499005
Zr 4.7493453911285926 10.573448373582814 7.5328149383108265
Zr 5.893006099907132 9.57681870941846 10.05783108897631
Zr 7.173976499033526 6.0407482270454995 2.811399069858402
Zr 5.522171760235615 7.401257564714219 4.677976769504707
Zr 5.391248878135355 7.499846005917249 7.774040735546798
Zr 6.488382160986838 5.914315418675302 10.459888238975347
Zr 6.074880884927079 4.334160041953439 8.21792475301006
Zr 6.179183596928307 9.948141353094554 5.120389900217765
Zr 7.244441569931626 7.994900302661221 12.18743353987159
Zr 7.623323302234077 10.022480360756981 7.628604596889262
Zr 8.768865822141178 7.367307928121659 5.2699858301911755
Zr 8.883797602180996 10.622063738726414 5.181461905645397
Zr 6.4719669316429815 4.707056925684168 5.3464325793887175
Zr 8.35404554035904 6.462191594813365 8.025739691739055
Zr 8.90233610553915 8.89723862109479 10.008691949810034
Zr 9.878881799480856 6.769431024590423 2.45118616589689
Zr 9.262558220909654 4.182232039678596 9.450490000322004
Zr 10.479009937896905 9.47548549360903 7.288471523675238
Zr 9.29307611633758 6.345574852455678 11.327389705944213
Zr 8.420080120948858 3.404085773896004 6.861628228781682
Zr 11.021717861061324 8.939131196690978 4.172416302781876
Zr 9.301766317963734 4.374022868668183 4.287353462219194
Zr 11.058254121443847 6.83272892209442 9.169607804871571
Zr 12.007222236455005 7.415137294227031 6.5498660356700125
Zr 10.932720858666464 4.739105037176186 6.924480884642995
Zr 11.643533851389414 6.008717123111591 4.329820046341736
