35
Energy = -256.24716656 eV
Zr 3.6237179358414453 6.346594665392843 9.701680619749359
Zr 5.200937775735084 5.713126936954602 4.574318397717564
Zr 11.216404487525416 6.069844768091423 8.502018430870935
Zr 10.326890896227543 8.105721003082227 4.331894221686449
Zr 5.609145273537698 7.870903020927877 2.811875305958666
Zr 7.03688996508073 11.549149219510735 5.456565407423706
Zr 6.329128062684119 8.554643512862508 5.719639584292655
Zr 6.138626767002842 7.885666852278189 10.018060530328146
Zr 3.4975259078281855 8.310050498350002 4.873902074303118
Zr 5.882024646499559 4.87676707859485 10.71827792716581
Zr 3.8923481548445773 8.502666602028242 7.861490071914592
Zr 5.999899968545896 5.862388134148009 7.78366773326662
Zr 9.987681426491312 10.918876615668117 9.057885469709527
Zr 12.093915854571534 8.725251804152608 9.846602665417771
Zr 11.411802679807801 8.42703973169046 7.0426893078079935
Zr 8.74791831739699 6.954030120250886 6.722685813236782
Zr 4.027654374154787 3.720708817429576 8.830224044456287
Zr 8.028943469709665 6.417603303233126 3.6255490644590926
Zr 5.146764533432363 10.477977109951507 3.6254687942476607
Zr 4.406365305325083 10.80967918664807 6.333005020717361
Zr 9.567762399082136 3.925580225690422 7.568304455706747
Zr 9.357385404116895 10.181556597281944 6.13708641558597
Zr 8.023978711237692 9.509307071588923 3.418804203524647
Zr 7.650728826049097 4.074027200367296 5.482950005985452
Zr 6.851360380775612 10.274695986562394 8.161551842420849
Zr 8.09775001528351 7.602150164778784 12.105748076937598
Zr 9.14323349645051 8.284559125500241 9.27199248285668
Zr 4.907427178930678 3.426596709604852 6.226292854148773
Zr 8.528384449612972 5.361436959400238 9.912154434040568
Zr 6.922118674725951 3.107575272649471 8.417796593888182
Zr 10.262481782646773 9.59389458255738 11.768592470919657
Zr 7.67415941520409 10.313865637194793 10.958372717726707
Zr 3.129544234536469 5.753956239583045 6.821467894809276
Zr 10.55101246779889 5.386170043635227 5.29695801593821
Zr 10.750786912504521 6.741905908795268 11.45215573211084
