39
Energy = -286.7958753 eV
Zr 3.473142820368782 7.6996195605065765 2.7491402766146824
Zr 6.27305095098458 6.528546055605656 2.409246231518892
Zr 3.7737247975579167 5.0078257341909165 3.0489430124357173
Zr 5.723924845023214 9.371590447562163 3.5781748134907514
Zr 2.1607528464842995 6.407308219362375 5.215136022486103
Zr 3.468976146473721 3.650401001469414 5.6684123738124645
Zr 3.2586733790636835 9.212216862661105 5.138610649599107
Zr 5.223093679092748 6.818881800802323 5.022407026769502
Zr 8.132853983563184 8.316948132571884 4.700923597562403
Zr 6.183191527165388 3.9173931520429317 4.13100080139475
Zr 8.904145639892858 5.21343852786212 3.6004245710849063
Zr 7.694305291150946 10.997429119446087 5.86518492709163
Zr 1.9766293093191862 5.2257646470985355 7.829378479799141
Zr 4.904359130493889 5.547230912628737 7.4945306191358965
Zr 3.769419521611455 3.1919187881845166 8.68847561280509
Zr 3.0352709721573707 7.947418204681179 7.784213223483238
Zr 8.527327650249873 2.8017058184404373 5.312740824617165
Zr 7.009680544054911 10.904393623272636 8.87861881154635
Zr 5.777587081561751 9.129991019548296 6.771779679760893
Zr 10.632062898753926 7.171607760356497 5.259714989590506
Zr 10.692064282587936 4.349453290585391 5.915945469027056
Zr 6.193208554777223 2.7787164181763213 6.997193142744985
Zr 9.22874158166471 8.984046538762017 7.690291470735417
Zr 8.008885933443825 5.648203920996653 6.331654481921894
Zr 10.70975055471574 10.255652406063819 5.5591697854668505
Zr 7.102114993357822 7.066644275730797 8.68359965192932
Zr 6.312719858023205 4.024651605256686 9.85664604871908
Zr 9.451747130801786 12.094628122387144 7.65073116877592
Zr 3.734097266720539 5.873299239297896 10.132710742289841
Zr 9.591255599946255 10.939926249583653 10.218499394669031
Zr 4.984737485908252 8.693360797243104 9.998180569741352
Zr 12.221690792221837 8.208813463600482 7.347250171759083
Zr 10.731029341062921 5.9551432783805085 8.24220682343783
Zr 8.904410500084293 3.5501335352780594 8.25152938300734
Zr 11.730883897604432 10.6428759942888 8.428852888315548
Zr 6.262072765394579 6.476257602724 11.470832867086392
Zr 10.857675768581515 8.278346093439179 10.146683879875365
Zr 7.8906675969587505 8.798055537020547 10.966265181056315
Zr 8.94947383713902 5.826822260711474 10.556935308609392
