33
Energy = -241.44512314 eV
Zr 7.446069201813251 5.034943848140188 2.443616713349949
Zr 7.597282755775064 3.955151197482509 5.219311258276699
Zr 4.8737258613569905 5.404585592058963 3.912952666956895
Zr 7.14373729815506 2.6085173964112367 7.866977505030981
Zr 4.750020836693564 4.034437106423026 6.620913389226289
Zr 9.910218317346484 5.699741994937068 3.8974539953153107
Zr 5.865776941819011 7.438815730924566 2.0508896115515376
Zr 8.672025075242042 7.6173707922166765 2.0153970128976453
Zr 9.59440113016696 4.0410633590475316 7.53870753855901
Zr 7.344734934371969 7.018908542115968 4.663043543855346
Zr 8.152021196642147 4.187628819225096 10.261311650266176
Zr 5.2236997262007 3.7493533976573135 9.62027118165686
Zr 3.0950007817227245 6.387544639899656 5.954636985226573
Zr 6.975333772550704 5.49283554030474 7.883465771288601
Zr 9.672323584102875 6.819944988074721 6.623525672578689
Zr 4.22713264201021 8.45356855353626 4.198082088016841
Zr 5.628478632724445 7.8720179632692755 6.898282576670697
Zr 10.383339379073654 6.15485539208363 9.540558067365305
Zr 9.898176889226697 8.649146221055414 4.3246993100103
Zr 7.867475585160982 7.962649698781455 9.105953946740144
Zr 5.387922645474261 10.667622262194714 5.766464303259665
Zr 8.577535793103959 6.611236174716672 11.82044061686909
Zr 3.7249188209357516 6.083865086533556 8.74232595052384
Zr 5.839525575474818 6.241145077441815 11.025751715339476
Zr 3.2610044848917066 9.11408323819599 7.216803226780446
Zr 7.07139655886947 9.738514374296196 3.585729092392068
Zr 10.648136601563113 8.980631987346767 8.22485254324956
Zr 8.23732593794916 9.814699282855761 6.545153196154017
Zr 4.541389475303434 8.55245809086937 9.932410012411662
Zr 5.932020211576011 10.493675574462673 8.591101988777675
Zr 10.03475853713582 8.796343137468847 11.020267830939444
Zr 7.053353104359359 9.18417932620701 11.497377268971148
Zr 8.738188303765755 10.790351512961141 9.409909726398178
