30
Energy = -214.61947408 eV
Zr 7.637440912448095 11.088202327344124 4.588126910261601
Zr 8.252439766008994 11.118231810191325 7.6404069484438715
Zr 7.374345970637325 8.377956540611551 6.110896799990568
Zr 5.584816783087928 6.505885894421338 4.14653971761488
Zr 7.246912953987835 6.823544585134077 10.077193644166421
Zr 5.407648061701214 9.52018881165858 3.9856637290715202
Zr 6.06735591182291 9.319957785827103 8.789569288949656
Zr 3.767477703841949 4.971773291706751 6.634992586999005
Zr 8.33265791053335 9.756039182870497 10.49144955787049
Zr 9.806467790879696 5.064000983866266 10.804707863870748
Zr 8.32231338736576 3.1527931182227538 6.545947082868878
Zr 6.473578160885326 5.700126982560658 7.166432017790511
Zr 4.8854979901170745 4.628818487828753 9.493005661257934
Zr 8.300973418839233 8.387546051835315 3.4117136209236167
Zr 10.297397140925876 7.2762972542042474 5.436958495786733
Zr 11.805041123883775 6.297136630596359 9.126502589243389
Zr 9.338312639911866 5.747393146383876 7.711034934053241
Zr 8.263513205271398 5.490470490027275 4.531191666026177
Zr 5.947328170315161 3.746033123950358 4.897437215936024
Zr 4.177453444905721 7.114305265112371 8.828291235115973
Zr 10.092141514990008 7.75191911153085 11.055375641684307
Zr 4.076803292868413 8.09321303645009 6.145871182217738
Zr 5.393349436822279 10.974465646004852 6.596267114221406
Zr 7.719442945694901 3.7450013241311235 9.380661298846306
Zr 9.691235757516342 8.644673939160699 8.237776855803512
Zr 9.953813231832708 9.952911651776963 5.541202266847467
Zr 2.793084567670526 10.640368776703106 5.501569072032965
Zr 5.576134207844328 2.783186868125298 7.511635780324828
Zr 3.059899592414026 10.005706921307869 8.116487469762019
Zr 10.800170582681147 3.611140568749597 8.616576958205991
