31
Energy = -224.33114267 eV
Zr 9.943493408209932 6.1451836689530595 12.262937815809781
Zr 7.2820812399255805 7.116872317755679 12.167372350779397
Zr 9.574157383994125 8.711712679595122 11.13754273742879
Zr 8.438809073735603 5.147516561242851 10.256860426517514
Zr 10.95522267314679 6.64742463941508 9.401780294031727
Zr 10.777216447678336 9.325328008740591 8.372363514792749
Zr 5.385156558230128 6.192686570789744 10.131116505540357
Zr 6.586906588128326 9.52737435824814 10.868302370279904
Zr 7.843529212237502 7.789058567437416 8.827432063445034
Zr 6.843768431614134 4.3963667150741355 7.912166978639868
Zr 8.545813728498496 10.88527260614256 9.478360996465874
Zr 9.620944748784753 5.3119949487726155 7.273152810309935
Zr 3.9918014225515694 4.361330789201131 8.192955810632172
Zr 4.209292167974356 8.936632828842587 9.376668607261639
Zr 11.825217891460678 7.297800147501857 6.288347170007419
Zr 11.195240081187219 10.142389126488682 5.658387082944372
Zr 8.627103907166264 11.024888188396664 6.668837029638184
Zr 8.960850360381084 8.081309871582759 5.950385786561711
Zr 10.164448712180418 5.738476975451598 4.403803402251835
Zr 5.451435677820125 6.944371537096855 7.126226375251335
Zr 2.7622669512306763 5.944413415548132 5.998137766534274
Zr 7.395432785503825 5.466413296717395 5.018402494145383
Zr 6.036922807759235 10.315276640247177 7.866948403160227
Zr 2.7559101184110686 6.881340925634556 8.62892850281684
Zr 10.926584575707725 8.258065780935993 3.569956512968717
Zr 4.9759542436613176 4.267665381158897 5.519210815544192
Zr 8.88136973173808 10.258586302802765 3.8457572452632216
Zr 8.046625488609338 7.575423645834267 3.119443243850522
Zr 6.316232147450873 9.353480735469448 4.991679755889702
Zr 3.5105161673076224 8.84688053703775 6.340228845919206
Zr 4.830581414007046 6.947140344645483 4.201068440611625
