38
Energy = -278.38631674 eV
Zr 6.00361607537055 10.151901828869066 11.720467609016717
Zr 8.935778075083345 9.628663564087077 10.972707994722201
Zr 7.019640607906375 7.548033119283783 12.369973526266834
Zr 9.902964824462934 6.888358143077771 11.492712843252388
Zr 7.202182049947301 11.758109575514672 9.648523004978344
Zr 4.3967329796200465 7.849298476972365 10.610751892710825
Zr 4.461754674495979 10.736858776066335 9.359154083056785
Zr 10.238083391322926 7.9475627165164635 8.787958371261203
Zr 7.696363528358662 6.302166433869034 9.561088631855396
Zr 5.4251259436172035 5.228048769399913 11.356385358159253
Zr 6.69856157095119 8.914457377515935 9.124602534066636
Zr 9.09930915526786 10.402547305540114 7.904134765186949
Zr 8.158785919809716 4.739369515075379 12.03655288525264
Zr 9.817634918318248 4.4314251176330535 9.528275678697623
Zr 6.322053823525651 10.778505689293574 6.862328923170985
Zr 2.8358523560028495 5.995202313216262 6.826399839691681
Zr 5.155762581194301 5.604678258479299 8.321698930866932
Zr 4.132770886852091 8.610739150875126 7.438750386715818
Zr 6.961414167259392 3.4170106546157646 9.707013003727331
Zr 2.730950531229143 8.171238031938318 4.888907467220249
Zr 7.830102359007578 8.01927394534461 6.735130564929608
Zr 7.814180092654566 4.342283630603895 7.080868074825526
Zr 5.330002814196635 6.6841932269645685 5.2758993973851505
Zr 10.465286546532873 5.775215131239522 6.7960392913106045
Zr 5.320472393915592 9.497141781283029 4.11007780942215
Zr 4.820961796589397 3.8569266391184955 5.823841651324053
Zr 2.8757353758921336 5.338183450845963 4.063462114581402
Zr 8.293886493504875 6.204812140516687 4.674912948135732
Zr 10.546602832123563 8.270724154387626 5.362775330386876
Zr 9.798496142638076 3.5687015539730322 4.807154574172865
Zr 7.1949069249455135 3.2224042036405462 4.2843070064961735
Zr 8.184793472446298 9.5159567084793 4.190604844180876
Zr 4.07288891938171 7.404076953216338 2.5332186430928285
Zr 5.54964982859736 4.866020563203411 2.7086443723480724
Zr 11.151871528756056 5.799858415975624 3.8604160184770655
Zr 6.874371789048213 7.580378396343427 2.192015188437822
Zr 8.677162007118145 4.899046264044408 2.2035735462001655
Zr 9.740879755229896 7.775572134991362 2.4978368362885237
