38
Energy = -277.29037879 eV
Zr 11.03190628619518 4.363731482359072 9.286905509073778
Zr 10.18923179628471 3.0508022519317013 6.962970827967951
Zr 10.733989839974324 7.187734256859365 9.169105771101144
Zr 11.439369646703327 5.76154009365663 6.611680259442947
Zr 12.447125991421878 9.65455297566353 9.106808830737572
Zr 8.513055377260132 2.897894868384697 9.249696253495697
Zr 9.407628997566972 4.6017765088707385 4.8551836957582974
Zr 8.8770399364952 5.495009567012532 10.954265965635273
Zr 12.07375143213934 11.41052006376973 6.976271751718679
Zr 11.905554444144403 8.680501529250028 6.220409528173873
Zr 10.345803553720229 9.32729191546339 11.026117217102087
Zr 8.390615965740624 5.549068974210673 7.862353479526149
Zr 7.248041191233392 3.338624664306341 6.423443207194662
Zr 9.933752082182947 7.316166479398741 4.031187321511737
Zr 7.9046089430539155 8.19103399414678 12.456813733003214
Zr 9.470921466784825 10.188534014430125 8.144656630467473
Zr 10.789191501649618 12.181975320387068 9.663494283173508
Zr 6.091818828499874 4.256241443798967 9.205739058241454
Zr 5.997477753059056 6.291178979390069 11.551088333167563
Zr 7.69963593995777 8.054195957835578 9.622823612221179
Zr 9.022119482297283 7.897381723391215 6.442514999790063
Zr 7.021712158980363 6.05026730765835 4.653371010401679
Zr 4.845024085742775 5.293514789646892 6.569168845311919
Zr 9.835349675280815 12.906636621896332 6.779896200567113
Zr 6.093957961372976 8.229720664763235 7.102302015478293
Zr 9.937360241394671 10.462000085772619 4.984090903348212
Zr 8.082622635969834 10.94987023345771 10.976974211877472
Zr 4.387373394288987 6.579771355721614 9.138221573613476
Zr 8.034965117534814 12.962433278000425 8.765504500296354
Zr 7.352837439023205 11.250358117482552 6.210760786684123
Zr 7.062876663368268 9.032145069016401 4.245018935088389
Zr 5.365013132598642 9.228165839024014 11.131853188789297
Zr 4.5754691054677235 7.487257987327491 4.528517604136722
Zr 4.502847419444914 10.173936657072437 5.791693016468319
Zr 6.0498521261370195 10.989095032230704 8.791579606651833
Zr 3.0202528804482145 7.732226175815453 6.829423371608039
Zr 3.01656649867167 7.697694958119277 11.046997120644699
Zr 3.6305158888348275 9.63089986086789 8.766909333162998
