30
Energy = -217.76268388 eV
Zr 2.837979401775467 4.360890256777459 6.153662030517609
Zr 3.4988801880027958 4.773070861572438 8.984645023356165
Zr 2.801326506301914 7.101765549205732 7.255492494484351
Zr 5.186402222692621 7.22119852512985 9.434017581985675
Zr 4.941813443755415 2.7623618225893996 7.412310701654188
Zr 7.141975287450328 9.005215607070303 10.76147153265202
Zr 5.0476656988437005 10.19827109321198 8.986542703402307
Zr 8.13308579513172 6.2912477537888245 7.963997734077542
Zr 3.9653691456622586 6.5651609295155176 4.396834817095348
Zr 8.817508876547834 6.579669021157463 10.66079102475931
Zr 5.402115012805567 3.7719431225837265 4.614413362909186
Zr 6.481713845515062 4.346614295518105 9.514006547602248
Zr 5.336690415048488 5.69400814768044 6.980164004709235
Zr 7.748374587200921 11.392372276662567 9.451105299567734
Zr 4.9286959965951365 8.879054568147994 6.129061705718814
Zr 6.465832067883927 11.56141233090859 6.797135232495186
Zr 6.345685203023371 5.815203222493614 2.680664173080315
Zr 9.604153564299503 4.131975589787082 8.921937474767045
Zr 7.39864522850433 8.979685613291455 7.743014066004279
Zr 9.897740414330205 9.140420083081153 9.414798951091988
Zr 7.7398679029034 3.4417246040117035 6.695565846053956
Zr 11.01291012939257 6.62332787309093 8.589172842638778
Zr 9.406537931291856 11.081144619874015 7.1275504073421585
Zr 6.0613864966528475 8.538140482381428 3.341997050736401
Zr 9.045605913807094 7.135594664114233 3.315056648315966
Zr 7.398578480898154 6.767860504065562 5.323573506729691
Zr 8.307744245838457 4.21241979709122 3.9654667763906115
Zr 10.212423032729658 5.291616228556246 5.998752140753985
Zr 10.234567462644186 8.326605544357328 6.270118132550845
Zr 8.108123702827555 9.827072766804791 4.859304946318953
