31
Energy = -222.78973899 eV
Zr 14.121798202323262 8.447430044606905 9.644025586685782
Zr 10.131872066053566 6.475811461840824 8.033632232794794
Zr 12.177127067488039 10.17667758187326 13.596755741904921
Zr 12.600219113854742 5.915475529549658 9.831752283167932
Zr 13.910082704789167 11.450433830605093 9.163578169049071
Zr 5.188491273117663 11.349256037126644 6.551675506123317
Zr 8.824439190929306 13.87718342727816 8.11834814715208
Zr 11.721555129514977 10.43077619526505 10.589363087507273
Zr 10.77085909023963 7.79148784733361 10.892069066647139
Zr 9.543493437293597 8.486177331699109 5.7857288826246505
Zr 9.036197718974012 9.284605670993097 8.470597124493178
Zr 8.872933536011807 11.655166824830781 10.126359531168024
Zr 7.860324400099885 7.5002323116726615 10.296409849588601
Zr 8.79023347233669 6.533687584694583 12.811463230154649
Zr 6.422396947002734 13.86031059105898 6.573859054895507
Zr 8.148012816635205 11.50575224066748 6.591610695291496
Zr 6.648939243339468 9.05173573288441 5.731428975820484
Zr 13.501238288835841 7.566965968628458 12.41330067853034
Zr 11.531244564625595 5.37891464999242 12.600619300335394
Zr 6.376256436340281 12.444484560524664 8.971291559824305
Zr 14.61795715121334 10.138692591465507 11.75961357174785
Zr 11.998544008038476 8.616452235198635 7.876039930499247
Zr 9.233220799606874 9.668270302017435 12.709934222962113
Zr 11.534865703112766 13.302669114541256 9.894995987432612
Zr 9.674264289838844 5.046378079935214 10.472563024157196
Zr 13.361528017949277 12.52752562353279 11.990824098839159
Zr 10.9811792678348 7.703494151830139 14.082025809321056
Zr 5.987433192251233 9.475283509430048 8.574938375285631
Zr 10.52355482662847 12.406239536422547 12.50093620474835
Zr 7.373936521532571 7.017575083904838 7.439912069379804
Zr 10.911035179471083 11.5181915368431 7.718647984637114
