36
Energy = -261.00395557 eV
Zr 8.946799869431382 11.312363111509862 5.058141068043864
Zr 9.193084899681178 9.231336924553563 3.178114541250161
Zr 10.042057454451847 10.501310909288515 7.695550146856276
Zr 12.67674758216154 9.181290765413635 8.186034998949959
Zr 6.672063051517869 11.324278272948304 6.748517835457716
Zr 10.911321055516387 7.393223893751559 7.126826214653821
Zr 11.113654702868828 9.36751323678008 5.255958819555722
Zr 7.309024824258083 7.431170684802595 3.0143731406194507
Zr 10.488110546594553 8.965230161418752 10.091404417333749
Zr 7.790147647864969 9.864660972766043 9.669814867108174
Zr 8.012609511570705 8.634995695445648 6.012209776308137
Zr 6.37682603431579 10.079764353843599 4.012216393587347
Zr 5.980351046524925 11.118553231425148 11.709153726999375
Zr 11.24585253420237 6.251898203346479 9.809273910928964
Zr 7.907183432776339 9.628043319206796 12.614398887270578
Zr 6.887125984924146 4.675626050384384 3.586688798126799
Zr 5.093723841772811 10.58721573648998 8.952014407137684
Zr 10.26957046039554 4.427179278579786 7.544364799545166
Zr 8.53875519878001 6.773186539715815 8.58905156819724
Zr 4.246646975348213 9.518402312820594 6.27766873834052
Zr 9.520238702805672 6.238978167069291 4.594680918186101
Zr 8.651149417505778 7.079933769737402 11.46203089035254
Zr 3.1274926400984784 8.691230004981946 9.085846073638635
Zr 4.910589009079246 7.329555837743424 4.403574706406273
Zr 9.2122027113637 4.328615877873301 10.311562525861465
Zr 7.6300209338546665 3.2028985958378913 8.20970713087117
Zr 5.698070938895344 8.169654177228589 11.033749270993749
Zr 5.725272413370378 7.676946775845377 8.159238382350322
Zr 8.778948524152447 3.361198685063007 5.416816970629464
Zr 3.245397255570358 6.6382001914537785 6.832813042467023
Zr 6.398677466531389 5.126116234522451 10.211354002173463
Zr 6.896724680427683 5.607984841533161 6.282259864877687
Zr 3.6932178502414863 6.087377270571491 9.759852488232738
Zr 4.221780353450113 4.598372825568059 5.023219569118678
Zr 4.698902559128687 4.095947017952221 7.953864215548469
Zr 6.119381923187303 2.713408871811856 5.697701511206454
