38
Energy = -279.03025998 eV
Zr 7.16060068072171 3.820767260151592 11.145814351832735
Zr 4.3719701243760225 4.5112057992291605 10.337390902827847
Zr 5.860512367700833 2.3015663362179994 9.091826821260625
Zr 4.312092268365632 7.265524219814198 9.139492749437823
Zr 6.496875300756431 6.8041942824244055 11.139965268066582
Zr 8.726981809446437 3.075705437126164 8.642185618389899
Zr 1.949243387138668 6.203290446477284 7.5726279373813465
Zr 8.918654473824688 8.932642554157278 10.362889916020452
Zr 5.97381427849359 9.665745677664406 9.989524691656573
Zr 4.096614532402158 3.9757132145816305 7.244227644140643
Zr 9.141494570569611 5.820219174144659 10.270026865023418
Zr 6.599499064845183 5.096680151027004 8.59247910745927
Zr 2.6753501777509308 9.067334669014295 7.284678364675561
Zr 6.795810139006018 2.549934447770207 6.30169132009174
Zr 5.562926690488232 9.79570474336624 7.010744610376504
Zr 4.505274970167381 6.9428998901976104 6.14044634664584
Zr 7.222994620193491 7.729701782960592 8.312564802889607
Zr 1.7686204563967294 7.635968154358658 4.976660537331465
Zr 7.864303425250843 11.241014787279564 8.390946766414404
Zr 2.430889167330257 4.964100591065059 4.9977341087586185
Zr 9.51226290383968 3.637679581432032 5.821095225569005
Zr 7.524212809692115 11.110035875544284 5.253289616531972
Zr 7.157545054108212 5.648356721033279 5.7448172139806015
Zr 10.618704982444305 10.76804509613476 8.87744990911049
Zr 9.175120252898319 8.922196702108874 6.684071908661307
Zr 9.892373979092971 5.823517357897906 7.495406099607938
Zr 3.936882474805758 9.522850568441509 4.619299651216457
Zr 7.928797448862256 3.693633310248384 3.6453787112561846
Zr 9.94451381413439 11.850462744316854 6.272036904589857
Zr 5.004069856433593 4.017525753760476 4.198683027047484
Zr 11.406508904258226 8.00745231805248 8.677952300275646
Zr 4.108328920490474 6.812141422228958 3.2285535653601833
Zr 6.847537732377756 8.501514433950131 4.320845413891876
Zr 9.378415391205651 6.5048278410112355 4.362853832353419
Zr 10.063545733165293 9.707153470478179 4.12221812668045
Zr 12.038620675154402 10.00828600053583 6.535598994771032
Zr 6.754318291893784 6.030335973302101 2.759958155378041
Zr 11.676023915103297 7.386628978839558 5.758569727011108
