33
Energy = -238.20123443 eV
Zr 4.238305349045673 2.383085428641207 8.430364581838568
Zr 2.978268949791513 4.578908592119233 7.132976417182685
Zr 4.310586236408795 4.771618120181776 9.828250567428217
Zr 5.734484733191255 3.6680495750676787 6.55379144700224
Zr 4.5040702413993845 7.458580626172653 10.481937079570862
Zr 3.1874441916925256 7.241183047049806 8.022699566347796
Zr 6.963207169879136 3.4018709589648424 9.226632860104623
Zr 4.416020148717923 6.427063006996186 5.413422271694961
Zr 6.968957137801786 5.733098393586702 10.91037006724993
Zr 6.103351769371835 6.392370478952358 7.948037289666637
Zr 7.185476421776312 5.530443056893754 4.804835008498107
Zr 4.611845595952824 9.364101526978917 5.6257875802669375
Zr 8.626785298123226 4.753411577729269 7.213416896813184
Zr 6.996672393801373 8.804684401711947 11.067161264490522
Zr 5.548627566093661 9.290100613207565 8.501623749644708
Zr 9.785959291250526 5.1433677146786385 9.934841355229832
Zr 8.020355237958581 10.991603440549232 9.172451497641566
Zr 6.3759514763128475 11.315745011847508 6.801811068674059
Zr 8.966166645265856 7.939374695047459 8.659061136977844
Zr 5.7744368855557795 7.946258199722702 3.321865528544766
Zr 7.568363305108276 8.433702477630108 5.84659439215652
Zr 9.795306920058605 9.761079021779885 11.14590614742694
Zr 9.265872452384784 7.165475133579948 11.75459455572301
Zr 11.273238153405263 5.902287888033221 7.719731331044433
Zr 10.870724774959498 10.503575673367138 8.799002644689406
Zr 10.14970863141393 6.575857094441231 5.239383373074674
Zr 8.539320643651418 7.106584887116679 3.0231193306478352
Zr 11.616182961664506 7.749973430523253 9.885270122003528
Zr 9.35694848443525 11.038532000067597 6.476779095240251
Zr 7.257209266168634 11.038086710308981 4.300009742521807
Zr 11.431060512252117 8.682096333063692 6.807170262636679
Zr 7.8041482239278945 9.563879361038197 2.203464394831337
Zr 10.04415584191443 9.369976240593989 4.150783003637981
