38
Energy = -274.74520062 eV
Zr 11.125931002958476 10.61445783387806 8.20122232425845
Zr 8.027154206060864 11.565400958621659 9.068000802468399
Zr 5.296731607615983 12.10181471403763 9.777963269920654
Zr 12.174974638010902 8.703287218370146 10.29193037325962
Zr 5.778058188242209 11.873355017148087 6.851723499277622
Zr 8.707091959732509 11.095161890934225 6.27524361957493
Zr 9.307690464328635 9.027882389291475 10.055478912716053
Zr 11.358003488043567 9.816710656760096 5.4826954080063155
Zr 3.2164209034430327 12.031230935660854 7.965602471176859
Zr 10.496878873752141 7.243276531469213 12.3219417554804
Zr 6.393848212887043 9.711624504002707 10.904396579308662
Zr 12.21920861853953 7.9326671077183235 7.574771488758444
Zr 9.27775286974184 8.185931346320414 6.99556121869173
Zr 8.946093016963273 9.123819248695417 4.02266016941203
Zr 6.2591719547900855 9.566760290702163 4.913175416818395
Zr 6.44697383012755 9.158436981261126 8.002210159173051
Zr 3.768520265836657 9.60832898156325 9.315792925619203
Zr 10.684767130877496 6.177580212155494 9.58206410567682
Zr 3.6921330639129506 9.702064474932586 6.26856923147217
Zr 7.76954390311997 7.247202909507335 11.772849949031205
Zr 7.668143888487601 6.410190508041038 8.887737204122077
Zr 9.528376227735091 4.517117120432383 11.485795094476945
Zr 6.9418426205906165 7.483144124783871 2.8696025162615393
Zr 5.039284354647408 6.991509748838885 10.245983083544171
Zr 11.318014663348709 6.950558823053589 4.927057426211799
Zr 8.214383409768608 5.394069861809739 13.686911052187007
Zr 6.844548084425007 6.6831420665430255 5.912139266303877
Zr 9.975209614756238 5.121124220848148 6.8768695154738415
Zr 4.069833468734594 7.066667761690979 7.4329927365594735
Zr 10.099852345114655 7.345703752898636 2.3373158034840835
Zr 4.3613631477911925 7.113893029865503 4.329092822597733
Zr 6.696221481943633 4.468537734287275 11.157119854270897
Zr 8.376494700234614 3.5602571970807175 8.926645254336288
Zr 9.043067130421335 5.416198940621491 4.180521398193322
Zr 7.326029391262111 3.690770558993638 6.13661912834689
Zr 5.424395398210469 4.455808797350611 8.441839263290953
Zr 6.214370316024468 4.8427576211297305 3.578070866846875
Zr 4.498207305545328 4.657692850573142 5.763230733617487
