35
Energy = -253.89766523 eV
Zr 11.207818658528383 7.975162344221227 7.938404492941775
Zr 9.463437518668458 10.089977418314978 8.884256202457312
Zr 10.316612625775994 7.976224752294865 10.835188058501306
Zr 11.035709708194872 5.52788027145024 8.978713808566981
Zr 9.278899931881554 9.12578043551696 6.270801872937215
Zr 9.595451354426896 5.796739182959024 6.230414255355721
Zr 7.935796303210847 11.8544674173686 6.239020874525028
Zr 8.919650686864092 10.371047081278014 3.87666781825724
Zr 7.531009626195679 9.520562801615613 10.781329417992493
Zr 8.29507857990125 7.132951548822541 8.879030898535616
Zr 9.458814586223273 5.206752131044726 11.212626479487673
Zr 9.202571023399557 7.332393296475859 3.3519844964015166
Zr 8.816981053547442 3.4848701620840505 9.057827220624992
Zr 6.570922304076393 9.594342383210595 7.9875811517792
Zr 6.811940915934836 12.079997490207425 3.468395444749579
Zr 7.580232796597901 7.092561235526329 11.953366491881287
Zr 5.985171230995499 10.088366362138032 5.237654640519099
Zr 6.859632044125206 9.157045755416918 2.445104954229825
Zr 6.723010857352622 4.964583898806342 7.323972769477194
Zr 7.097489326508215 7.3907272469070335 5.156937232612589
Zr 8.483459900546102 2.8341711343866534 6.393356753132132
Zr 6.642067789154447 4.650831496685262 10.666531490834366
Zr 7.858232406184003 4.541728329363748 4.119037600405637
Zr 5.332965930664867 7.500959208154868 10.02129681284052
Zr 6.436073099591606 6.389865860913967 2.4155724280750195
Zr 3.341904611698042 9.220318015434426 6.497486212666769
Zr 4.891639336253071 6.955170957832199 6.968660240326468
Zr 4.23802082644279 8.063617961187608 3.795557331222643
Zr 5.931659790965535 2.5714608141886792 8.331823525652329
Zr 5.778003939843693 2.7819708407795347 5.372198436849907
Zr 4.173093291080583 4.824983608501748 9.470216832865285
Zr 4.681348721700096 5.0825237484115835 4.194159219206229
Zr 2.4900571564084104 6.837504623566056 8.284382869062021
Zr 2.3608484122764084 6.613584176100296 5.438484063081944
Zr 3.4894424365664785 4.181272627901556 6.845959542726642
