33
Energy = -240.58648709 eV
Zr 11.137054810665331 6.701553608875757 8.040032509684073
Zr 9.379430963041436 9.309253328591002 9.14746234394279
Zr 9.385992607575101 8.71512069075625 6.182919278405017
Zr 10.150096252958253 6.006148127702652 5.0348663337571145
Zr 10.081048817187613 6.964657128123119 10.73541617592875
Zr 8.646246089625174 8.156818219633568 3.3235647799639447
Zr 7.710868655039017 10.689789041171958 4.696482286943225
Zr 9.765047273255215 4.379749962924759 9.81210104863813
Zr 6.014875514084331 9.633695447732 2.74253838794256
Zr 8.572383558406942 5.3785676268362765 2.5443763839247353
Zr 9.377424739815723 3.8433185522163473 7.005473983155951
Zr 7.9922160967392255 8.419532900575271 11.596410261406758
Zr 8.44343420069291 6.4567708388525125 8.096910847596872
Zr 6.919732583288393 10.291171370936654 7.458864952102295
Zr 6.368164343543116 8.088537670534208 5.328373792169017
Zr 8.786913346928973 3.259303600267533 4.308568627893771
Zr 5.973970586770273 6.711709266746166 2.450959921460993
Zr 6.664643459896202 10.377910101891496 10.314454398690936
Zr 6.249478449912354 3.825231090833958 3.0653213547271188
Zr 7.2468226124549044 5.497038166383559 5.440223959103425
Zr 4.771349106449352 10.518001527029412 5.333209594280491
Zr 7.471223024862406 5.624674750611277 11.353655632780217
Zr 6.135194103341974 7.643575309404883 8.921317485473919
Zr 4.221564585564103 9.911571866477763 9.020828364872717
Zr 6.183466190443047 2.92506994014207 5.8774719586471225
Zr 3.7882882270711646 8.19852847209336 3.7576685423251113
Zr 6.993876741173813 3.874008441970774 8.856903880355333
Zr 5.10005547204139 7.984450268430141 11.55941560965226
Zr 4.276052445013471 5.355206315980943 4.6096510665765225
Zr 3.696480162171047 8.040134416844872 6.70350466206394
Zr 4.848795886185603 5.198627664205237 10.352797847432157
Zr 4.715974467002696 5.235470628415735 7.444606469951471
Zr 3.212494274864814 7.1981608568335345 9.384820266115135
