31
Energy = -225.37768299 eV
Zr 10.690651205730067 9.249437072651691 10.674156152187326
Zr 8.205149766041085 9.596113440540398 11.936789275482287
Zr 11.289803788182304 7.032963006126867 8.92293181413391
Zr 9.032026317907134 11.642467017998657 9.929113972984439
Zr 6.006117566860563 10.63056311133224 10.51305831964348
Zr 8.988167862620854 6.91910492614469 11.042419576150968
Zr 11.058367759590357 9.970292076998438 7.9646241508852045
Zr 11.845679510824542 7.760410422404414 6.208920252697236
Zr 6.036204763496721 7.8649270281618975 10.949131128641346
Zr 10.80451843276053 4.987101822447497 6.3614226481467915
Zr 8.098199547247841 9.087126789820426 8.8796935196568
Zr 9.521120140097258 4.835446266585464 9.0910018450508
Zr 6.487987051715807 11.71280615919463 8.155591834917335
Zr 5.115126482357992 8.852112174687482 8.069356033855682
Zr 8.989356865242451 11.636903605500219 7.0115989748897025
Zr 6.768721531916196 5.661712087945775 9.479666211017598
Zr 3.8417431094033687 6.136156508300077 8.898818224647343
Zr 8.868720891350474 7.028433403314724 6.836148248787507
Zr 9.878263373079141 9.558716942664386 5.145838432034704
Zr 6.9959542788619435 9.974463908987216 5.873829705915607
Zr 7.963193536036142 3.7780142924925726 7.100256899783476
Zr 5.9077969895937645 6.323711445969322 6.607037891644546
Zr 4.610049268785357 8.787742502779366 4.903825375733979
Zr 5.188123652947295 3.6076319774428836 8.263809477031456
Zr 2.9724908232736684 7.289758636727618 6.359819818852871
Zr 10.206263803496476 6.867319380301797 4.103064070962871
Zr 7.987890170055808 5.046520192235625 4.547507953771073
Zr 3.25701614809805 4.570571009017809 6.428230227430158
Zr 5.64139020750433 3.482271798239472 5.415666223684656
Zr 7.335664145276898 7.772269756119453 4.135887666746922
Zr 4.590883478094405 5.941539785605127 4.092478473108903
