38
Energy = -277.19944574 eV
Zr 5.945828357364549 5.275918987511091 12.111948993302136
Zr 7.461486155353925 7.645326718980901 11.092057866233821
Zr 8.44180676349232 4.988161801924047 10.707443391516165
Zr 7.287574121924415 10.25378136695784 9.941214380717511
Zr 4.325172127613536 7.638654630690171 11.127482018484326
Zr 6.045562646727456 3.0523396752863263 10.040782405939042
Zr 3.5367492299131267 4.661839485702391 10.761800727103749
Zr 9.692346034932083 8.974444007857416 9.134639466650864
Zr 8.180734262255617 6.716962787853008 8.171205355232896
Zr 5.74922893734433 5.8051496774217215 9.21451035652711
Zr 5.081457250541771 8.605798699546433 8.364970305073099
Zr 8.713193916362657 11.477659085279942 7.573668988649737
Zr 9.081362037312234 3.5052793761341103 8.298262245019584
Zr 11.025323474745846 5.863938027937199 7.883632690463799
Zr 2.7559537207118017 9.906999977003082 8.79331458345678
Zr 7.23814422495499 9.253330445464403 6.863506674347846
Zr 5.745250371379085 11.772368476377133 8.309340516976542
Zr 2.78143066729162 6.7368809408158405 8.741047913227787
Zr 3.8338154869878904 3.883399979439527 8.003974019103644
Zr 3.885292197210024 10.9562246465046 6.3414760567240025
Zr 6.473786903239656 3.7046995880094733 6.991434248486074
Zr 10.11780410441109 8.36142042250894 6.219156834052865
Zr 11.149979087476488 3.4819221227553907 5.983006205270718
Zr 8.876385464136293 5.268951850062627 5.914268600792738
Zr 2.8801188734616883 8.321827216848503 6.234530493182312
Zr 5.080345107657598 6.209237169107521 6.137129000460978
Zr 11.624522825933393 6.060180901298953 4.956150050350343
Zr 6.493452909199551 11.861358272028951 5.505245675290384
Zr 8.582206577120397 2.3950677334435158 5.419194356116633
Zr 7.399287787654262 7.149993893407761 4.582528868110796
Zr 5.280590304019848 9.203023692704567 4.4452701853222445
Zr 8.391032368926252 10.017932698420774 4.294928983906398
Zr 6.560083551281879 4.030086446930457 3.9546690226291368
Zr 9.729821511077887 4.285220738150049 3.31477613207036
Zr 9.864065768829615 7.398041000674348 3.036856948458425
Zr 5.054750111559858 6.499461558126683 2.9849292708532786
Zr 7.069260561299729 8.503819592073915 2.058557233244651
Zr 7.65435679571973 5.73747907898866 1.8841739067841758
