37
Energy = -271.5633064 eV
Zr 5.673521473820238 8.65615115452443 2.283118447855291
Zr 6.262663922751827 10.820176174245844 3.9668830118219867
Zr 8.60477394806739 9.321073945369807 2.975600970156209
Zr 4.04663795953337 8.966902341071503 4.749825717206499
Zr 7.480086356396096 6.591850262534371 2.2657366972790594
Zr 4.934345960043404 6.0634061465003395 3.711548635145456
Zr 5.479767592555864 10.917439969403674 6.687413532829378
Zr 8.522618905318804 10.757662510271926 5.7859482687946215
Zr 6.883087425654151 7.948176438746209 4.933885899895114
Zr 3.2342664320506005 9.155067794951657 7.503769309979328
Zr 10.811881122568794 9.334713053262364 4.7689370088143574
Zr 3.524592036666262 6.451226662601286 6.307854190629834
Zr 9.904314341864398 6.6609569654636225 3.9068189290489572
Zr 7.661246697805165 4.617135960666379 4.288766804427838
Zr 4.993946983952718 9.973333165625595 9.771722231418376
Zr 3.708500317255882 7.114587152450522 9.466683693015831
Zr 5.125308261482244 3.6124969874333734 5.706837512554775
Zr 8.066587105893575 10.500817707297731 8.643829608567383
Zr 9.01983115449818 7.781679221685582 6.935451853527349
Zr 6.613657102530061 5.520742802147251 7.2007209729516015
Zr 11.0345940178165 9.649605689888002 7.663980985444779
Zr 11.861778552986173 7.21766175739418 6.103541647969683
Zr 3.828716093370678 4.436807913904761 8.241285217310297
Zr 7.498477127434572 10.026021266434462 11.268189683071299
Zr 10.001193494451947 4.888285695978172 6.3732476411978505
Zr 7.9650143183060385 2.9049700072974765 6.570323125408134
Zr 6.015049565348255 8.24716770886143 7.851141844868762
Zr 10.287278697341092 9.08452001447917 10.507291037091413
Zr 8.013374194368915 7.326457567208912 9.853311207715043
Zr 11.178901549233972 6.70984518962986 8.780039973741395
Zr 5.678060684978493 5.10710563760711 10.301788664679545
Zr 8.743580312805866 4.463992214027345 9.20592704959694
Zr 6.112550498046037 2.8099099549083673 8.493822376513522
Zr 8.58512280029504 7.980679138230896 12.771997744818838
Zr 5.699018613668889 7.691546142926988 11.791090894497598
Zr 10.322119044395015 6.185921726502691 11.407795691711167
Zr 7.766203141379045 5.287552242925681 12.109027717714143
