34
Energy = -248.76599024 eV
Zr 4.170079166738032 9.72829789064047 8.596531498960319
Zr 6.41741631743428 8.19253504361245 9.696019540608297
Zr 3.723571789276712 6.798297989998061 9.460504090310222
Zr 6.865209325595637 10.332609706992537 7.330035699415075
Zr 2.3139032304763196 8.086649311463177 7.214680999804711
Zr 8.341216690307569 10.386049597480126 10.033379750793285
Zr 4.013900144307758 9.82535321376257 5.504975170226887
Zr 5.386407028414004 7.7352253271548 6.837330269282832
Zr 6.355379474536257 5.325939250039032 9.938863067351974
Zr 9.17443530703191 7.6147315393408554 10.974718187111277
Zr 3.9403634667002763 3.8784235700742684 9.476602990677687
Zr 2.349812789408131 5.154760635794986 7.189896828303934
Zr 6.8203880212767105 10.036605748163382 4.409754193688843
Zr 9.844965725843503 11.070965204595332 7.6528328322667605
Zr 8.997746252331918 8.200655732195912 8.129022114485272
Zr 11.115827703332316 9.568629004026224 9.752015932645605
Zr 3.1218745890684874 6.871355526787002 4.809429449515714
Zr 3.6326159878173114 3.971878779410793 4.690972339631472
Zr 3.713277407536253 2.4038223025406764 7.102002006391314
Zr 5.31564633395389 4.937319615434061 7.019408748695248
Zr 9.57486146006419 9.933697717325542 4.951248021446316
Zr 8.289254765055627 7.892324422309463 2.8980331698806805
Zr 8.142031585428157 7.211499349626612 5.646386817962498
Zr 6.420437013295254 2.6408005393198763 8.419247234120936
Zr 5.323239505902813 8.013805901954925 3.488361633305355
Zr 9.102542028654641 5.218353294661062 9.033950288568356
Zr 11.442689010938173 6.834306879568849 9.23448874045044
Zr 6.340388490452123 5.330135551825742 4.094344433322915
Zr 6.063640280124092 2.5589318450401923 5.3980733953025455
Zr 11.632585327079239 8.737641284925816 6.843408457671705
Zr 8.205303403159505 4.254734539027329 6.474195964299573
Zr 9.37738280781312 5.192095453364648 3.9398159440370453
Zr 10.911986886939818 7.555769785530761 4.263199881697972
Zr 10.86144841492332 5.730619462880602 6.584554353857096
