36
Energy = -263.9237176 eV
Zr 6.5284724813474675 3.164824878036045 4.073678087001909
Zr 5.238124994943512 5.6929593985924765 5.260095790902897
Zr 6.260074862276867 6.139367617189595 7.757041802497785
Zr 8.523618818907476 8.57580705999924 2.635942176968161
Zr 3.1440259069357537 7.259951197034036 7.098549832673324
Zr 9.180714026879716 7.634260487993916 7.395494370597255
Zr 6.3644522886887 3.2286840930554512 7.039796687080107
Zr 6.889127623892342 10.460912940247898 3.932442333192622
Zr 4.567065327257305 9.330939792588591 5.360788430738936
Zr 11.221792878134274 6.2873423307361636 9.373526736022527
Zr 6.419377223714541 6.865183772790817 12.382964644704952
Zr 7.95471480454834 10.68938219231977 9.94052374696953
Zr 8.905978678454435 4.565717293780141 8.778758448968546
Zr 4.262571810955663 4.812616367450898 2.844136432260536
Zr 7.292383703240444 10.536765136303076 6.875564438597358
Zr 7.344850315703647 7.860068559657014 5.25957394638756
Zr 9.670133261426047 9.822429373859709 5.110805259188772
Zr 5.589774339969138 7.913650547135154 2.796376366369582
Zr 9.229909027426316 6.187149045073879 11.462589401290607
Zr 4.0377401535196675 2.8770515795359843 5.234939112078015
Zr 7.499521746583475 7.725522268422909 9.732682015108997
Zr 10.279879035530874 7.037326640086076 4.5106233344639906
Zr 6.503996450932444 4.849067108095447 10.344463045008318
Zr 7.491351585933128 5.753179708795693 3.0276897856143505
Zr 11.062314597727962 5.373197042900623 6.799880073867031
Zr 10.492822494990765 8.928852309724276 10.22069458341194
Zr 5.656844694007536 9.448814603664184 11.344876208118686
Zr 11.820665369509477 8.365289979699817 7.313658726470747
Zr 9.969935941820504 10.626048597366058 7.911509908906809
Zr 8.390554159412197 8.97315663039384 12.269010358231805
Zr 5.18189970514506 9.224891931159593 8.324110203633309
Zr 3.8019839721539594 4.466590158868353 7.822517793516089
Zr 4.4732677828369924 6.972644019261618 10.037634321874332
Zr 2.3076073413703084 5.032328987449838 5.280250977398663
Zr 8.529405842325032 4.715519564063985 5.658276382651265
Zr 2.9962210029854948 7.375865886725835 4.031215250026278
