40
Energy = -294.24340417 eV
Zr 5.479504212028028 6.073667721232773 11.3064790799691
Zr 9.271312491248265 3.587584590499021 7.7226571699368165
Zr 7.896291323153075 6.269578114939436 4.306094306983062
Zr 10.495433909413139 8.522628140143313 8.270573666801782
Zr 6.717809310574101 6.345045210230026 1.6826818600569688
Zr 5.119883134134356 6.845068525136943 6.978106998672053
Zr 10.962038364802497 6.609825359030068 3.9250562028126894
Zr 9.986787215503428 5.74986312723912 9.5102735132063
Zr 6.643517595400727 2.2127077693384742 8.344990531165541
Zr 3.2914194555296787 5.676518291844586 9.1385633129398
Zr 7.181677149082465 3.758517441520415 2.962340751007845
Zr 3.564878294682116 8.48261854819545 5.022433526490077
Zr 4.452470777175127 8.480987852982727 9.848042394607504
Zr 2.5902709251159184 5.7984727617374645 6.098821826546889
Zr 4.808241068379693 3.4093314842192357 10.15725004110089
Zr 9.442420872457403 5.228044284098599 1.948051079315291
Zr 4.015667826795176 10.36288259977759 7.467468443415092
Zr 4.253371419942965 3.6488649108087343 7.173475971976071
Zr 11.285549598467956 5.73578531922574 6.654622602921246
Zr 9.048062182243962 10.510694453775429 10.21163165209285
Zr 6.294351455499205 12.244089028434109 6.838648615786479
Zr 4.94797187797426 11.00179508310482 4.733264529772446
Zr 4.987222386320044 5.5477059159921795 4.251550917743292
Zr 8.216869872307056 6.220430430460656 11.956403604771296
Zr 6.988806028698419 8.961926655635153 11.861799311456744
Zr 7.60914994273365 7.973499823112663 9.363653812745223
Zr 9.022302856373452 8.145644582187256 2.289411817339067
Zr 7.85179448876484 11.14706283131215 4.571897135874067
Zr 9.772640733299232 3.9082218367820514 4.646200688846543
Zr 6.757191822793089 9.249950199689776 6.549137277823751
Zr 9.528948354636245 8.869253848765672 5.244593668577619
Zr 9.933875060903127 8.180189933440166 11.260578571781968
Zr 6.6616638604625535 5.130418374126715 8.613442333425619
Zr 8.92322724437383 11.099581933683533 7.428825569480871
Zr 6.364014089275583 8.728289979331802 3.549769784979913
Zr 2.385317034042181 8.062185085163888 7.6888577734766015
Zr 6.92249122901325 3.624995670230258 5.810179322213864
Zr 8.61812954377006 6.4870714816384245 6.898120241481133
Zr 6.291911293317316 10.86989543416695 9.409508239311277
Zr 7.744621494870515 3.6719654848803236 10.702309673587749
