44
Energy = -322.195271 eV
Zr 11.281668975636135 8.944482477918775 10.343267513443005
Zr 9.04838024492741 10.362493111627092 11.416764418180007
Zr 3.8100633063536113 7.754759604948389 11.861721482008027
Zr 6.228821345046157 9.23061363575837 11.852245290193995
Zr 3.814091443827918 5.450031148182784 10.182192595349946
Zr 8.451833861776704 7.873244673490163 10.153935840647607
Zr 11.488476991531101 6.338677902210378 9.304600024994485
Zr 6.380580894038806 6.249208196664169 11.484876587609323
Zr 8.77049221589509 4.841789618646907 9.866177374810722
Zr 6.035666963442456 3.7922526269778354 9.987873308494114
Zr 10.468285744510748 4.006259069945722 7.603950367577726
Zr 7.510937786446065 3.010208788753391 7.769700267905257
Zr 3.7468386987199986 10.42315135875583 10.415511447859094
Zr 1.976125561071773 7.798114975988192 9.723827009243628
Zr 11.828766020726537 8.93323793294607 7.542415175804687
Zr 6.7421636270685115 11.353076858076676 9.91295032174979
Zr 9.898015005432937 10.942313344369577 8.745179797608042
Zr 1.6355037376252208 4.877230308757233 8.69143244649949
Zr 5.0432052035841 8.30405007760107 9.086543781433656
Zr 7.375068704539645 9.425049913672675 7.66103631525305
Zr 4.441197765318196 4.012893826193057 7.4787052920483985
Zr 9.514652332563895 7.3448062093460535 7.423732843166335
Zr 6.631851832399838 5.988507867732547 7.87246813082721
Zr 7.751048846790539 12.305810926596365 7.26662558666329
Zr 2.927140713722186 6.725746821351346 7.086751312678045
Zr 9.120218755998577 2.1851771355605067 5.6601267792274115
Zr 12.097719148726368 6.173432379172668 6.420529452463968
Zr 2.5780627227978363 9.582098888807149 7.704541805822235
Zr 6.335680256310304 3.360365497224244 4.977865361950082
Zr 8.68989455544532 5.218187619298732 5.393485118595132
Zr 4.909265920306699 11.296755077039775 7.5973026837635995
Zr 9.601302006434969 10.441374570738242 5.775975790610385
Zr 8.627143042231442 3.14639953641856 3.132914190510168
Zr 6.63362602731619 10.849278958456408 5.006391301039405
Zr 5.092268936044021 6.075405544774 5.106614670445803
Zr 7.593744488526795 7.877633564870743 4.936950260343314
Zr 4.645117565748806 8.923009092530672 5.775084826583825
Zr 11.164368087823803 3.9280614324884864 4.622736965058087
Zr 6.781092620250319 5.431576636175475 2.749908182810199
Zr 10.551755182402468 7.8335936844041685 4.3942985546289295
Zr 9.889983987768998 5.496182726654855 2.4949425473711324
Zr 8.577814148638645 10.05298068934929 3.08979179605506
Zr 5.846940063447915 8.47997683151457 2.889217575183858
Zr 8.507297536227888 7.68982873775429 1.9304944701112254
