45
Energy = -332.66541745 eV
Zr 12.56258177241548 8.520990443876569 8.704800338365894
Zr 10.450915782531647 9.352118670118008 10.470000802666176
Zr 12.126419674997859 9.386454605773391 6.106075054825988
Zr 10.188389657282517 7.221438526091212 12.479243263960345
Zr 12.401530839236777 6.430081407333231 6.714279704762814
Zr 10.268535175059894 10.711039697535837 7.929842094926801
Zr 8.464649373708944 9.71169166467911 12.410682361571936
Zr 11.797583827795492 7.736583362507715 3.862105067980893
Zr 10.83411586546065 6.038816963757993 9.636305254180241
Zr 8.910355710324888 4.835267016815715 11.880843495445287
Zr 7.504490153232147 10.200221956532475 9.469285792559571
Zr 9.823179576653079 7.929259359993967 7.586280777234886
Zr 10.416114093142745 4.196109940723312 7.00036394867327
Zr 8.169303900263314 7.2500157083279975 10.301739040301602
Zr 7.144365694925023 6.922338500524148 13.03755852489605
Zr 8.350524176439302 3.9684953342039266 9.244437466369176
Zr 9.125584121261339 12.45702476551509 10.032029140783052
Zr 9.290211032514703 9.790945877227259 5.092406625133977
Zr 11.836562836226936 4.811455117721863 4.490505828819933
Zr 5.515466775521143 9.41715413164319 12.22445783015489
Zr 10.421545509263469 5.621087192992641 2.2513757977112907
Zr 6.661952736448849 12.025306598842809 11.66676876852722
Zr 9.097753282542094 8.241411835339528 2.4764983817207695
Zr 9.329566151245396 6.528723113313893 4.907732498621381
Zr 4.323777315922632 6.704114020452075 12.056154224489951
Zr 6.425080354463617 13.126044328666362 9.13525593900445
Zr 5.522733945626634 7.655880481109962 9.381933090910595
Zr 9.123446006172035 3.654453388736232 4.174696666924417
Zr 6.063976062532743 4.844146273316063 10.905670152515958
Zr 7.721454174026822 3.0851061712330266 6.611002277425915
Zr 7.524241104607694 6.0921053329213635 7.246282532009409
Zr 8.016560877839243 12.294888375270796 6.941300162799523
Zr 4.411527132625085 11.09880824067015 9.881351134115953
Zr 7.647451691383059 5.710639004093294 2.4522817570622224
Zr 3.0208961502016467 8.749607707612002 10.729269755853906
Zr 6.696069693547844 9.197381618278136 6.9016919337141704
Zr 6.659612038022849 11.011155640431042 4.555118308762499
Zr 3.238462474743679 6.172529563519068 9.294637292585724
Zr 6.276134785452961 4.717625181920672 4.7842154797720555
Zr 5.017711347830974 11.755029606971927 6.961190769007554
Zr 5.451304488121356 4.307757762410339 7.952212074565168
Zr 3.413942310157939 9.193345075452244 7.800789052220546
Zr 6.697177103707319 7.949433628356668 4.217168235996514
Zr 4.644838998904106 6.873521877128529 6.474260319637672
Zr 4.310894792646729 9.54071217924173 5.047695132665428
