40
Energy = -292.64918998 eV
Zr 11.832408419581474 7.732187851144961 7.010592750911608
Zr 10.796396117448365 10.555188900146502 7.445043695124705
Zr 10.513514488445542 9.109394116258224 5.040461549690566
Zr 10.841115975410297 5.606519173100114 8.511727109000242
Zr 11.350485543252871 8.35303446975766 9.899439336618478
Zr 9.922626223796716 10.75050136510833 10.114172275719419
Zr 8.305537440854808 8.657400232146712 3.396014696572982
Zr 8.570011227968301 11.229445801932885 5.227298130056048
Zr 9.554699081957537 6.387673428201368 5.438692765519801
Zr 9.11316589477798 8.154947903065429 8.33588780132665
Zr 7.677132641660525 5.729127314370806 2.5571494607095
Zr 8.115595386297302 11.909954666084692 8.141691212023204
Zr 10.444109138690743 3.736201848541763 6.427901005832935
Zr 9.129333403789225 3.7569978163281834 3.9817716334303945
Zr 9.314613405838408 5.919317297146658 10.822391389151866
Zr 6.1125699447397706 10.547004571908067 3.8141173940107613
Zr 8.45862658556192 8.750778916824808 11.603453771249974
Zr 7.124312089518106 8.82941545085902 6.133973474454248
Zr 5.418863356929435 7.8540118769584994 3.068561021706262
Zr 7.459412914409948 11.457505229345063 11.003948723680498
Zr 4.8290698996525165 5.11997285066534 2.715171562176389
Zr 9.184212683302539 3.2544307164554627 9.193540484196852
Zr 6.332112675329924 3.252960828910934 3.853467771165072
Zr 6.551808407773379 5.972446821785316 5.246924947565476
Zr 7.691269626945788 3.064379208139937 6.42694943148986
Zr 7.34082850148379 5.5539698568073295 8.308482900475402
Zr 6.333406776007098 6.75816396032013 11.34168717924914
Zr 5.3298725079737155 11.93363400766368 9.352953584057815
Zr 6.487839930697572 9.147603432899851 9.053791795647257
Zr 5.689750272974732 11.503976835884455 6.5183654326985385
Zr 4.052498770409196 9.191804388871986 5.411452164051646
Zr 4.904299717417542 4.092277346785087 6.8058065755696
Zr 3.525342688592494 6.352493217408917 4.897179953175798
Zr 7.1235273007221 4.052513403198526 11.127078287793044
Zr 6.376384273322162 2.5977337812460326 8.896923714347233
Zr 5.234693320585968 9.708264903887653 11.499907519360189
Zr 4.641454692675531 4.7710424792437225 9.80916046187082
Zr 3.6950021425424726 9.84328443612438 8.366572365869608
Zr 4.434466530310855 6.898663703443869 7.565699006322975
Zr 3.845417031032119 7.569044863909389 10.19090658196032
