40
Energy = -294.02329614 eV
Zr 3.9158790376753236 9.43809993673151 8.800223006807554
Zr 9.082260911074666 7.424452270090777 11.270947844453067
Zr 6.437176773772538 8.15397426156888 10.099184780668171
Zr 1.5479932653605275 7.73830723864968 9.360700709622048
Zr 3.9595245274853874 6.64848333042136 10.456987396264289
Zr 8.889035543528319 9.781564979453023 9.556166589348772
Zr 1.610695578698991 9.261805238809252 6.879051702113794
Zr 6.969809406376831 5.363077837873067 10.81229986495918
Zr 4.135870483037094 9.718761716767865 5.751088412936107
Zr 6.536447349813377 8.973322297355287 7.291807426294425
Zr 8.367392658348177 11.323389137711391 7.033929863543768
Zr 10.052227436903861 4.898341049951212 10.002507261687013
Zr 11.279442393007656 7.924818112786225 9.313358948140277
Zr 3.482608341860533 6.972472414761608 7.135802291644664
Zr 4.642367920629337 3.8696548624932974 9.96708857697972
Zr 8.543158950409065 6.494970128871251 8.475616163376825
Zr 11.104945848855687 10.64556447802568 7.993343526516887
Zr 0.5381086427411229 6.625907965265952 6.9059789427498925
Zr 2.1228688373736238 4.82264346334246 8.81379224839107
Zr 5.842579004525978 5.7844269599843505 7.905074396851141
Zr 11.638507481295573 5.848582107878461 7.575307558958858
Zr 12.283136723671104 8.484713426455048 6.194835316687123
Zr 10.53894078919033 10.83539854233166 5.185267082026905
Zr 9.544435525290842 8.527876696647521 6.682431564306795
Zr 7.363284651166044 3.349493609777135 8.7309996661062
Zr 2.411767553325046 7.344630013717192 4.5575796028372535
Zr 4.211277998041898 3.2273386471511905 7.1988172969914554
Zr 1.9729470786471275 4.545630303115347 5.818593383206477
Zr 7.723353318808708 9.875318043720373 4.521830697375681
Zr 4.474545387699366 4.853866582204103 4.764754720770055
Zr 5.674632894632145 7.437141726002106 4.753661194228285
Zr 8.351380314884091 6.340827548544395 5.07905455083688
Zr 9.708368619719987 3.9396922589982935 6.836416479990405
Zr 10.392556435546222 8.503209429355202 3.587412567970694
Zr 11.345245103264636 5.85933971861065 4.75054067164801
Zr 6.901713640466349 3.6685283510303095 5.701458527087795
Zr 7.643802887663846 7.861772660560634 2.476521943149609
Zr 9.259758720134167 3.68133284426535 3.9630637995937645
Zr 6.925492393938367 5.064966017910959 2.8388085699170373
Zr 9.692497398640576 5.932129996265928 2.3297160838813347
