45
Energy = -328.47487412 eV
Zr 4.292522010932463 2.4346900164841405 6.696844710889616
Zr 5.880552399178621 3.0176560243892734 4.405411159931167
Zr 5.552461960656094 2.7441143919253763 9.3824398697454
Zr 7.063199457887282 1.7352464545681674 6.837946637961656
Zr 3.6768628911651335 4.7378304140664085 4.916954213534353
Zr 5.807475945059656 5.624755701822384 2.5041930136904353
Zr 8.041956522904568 4.944047902713787 4.579161292154889
Zr 6.258901884932471 7.858665033519429 0.5324487754111367
Zr 3.540057293519034 4.875104094469229 8.176496922368292
Zr 3.5788856663508852 7.3217490457866 3.3246486690776464
Zr 5.810750622895521 6.860102594198845 5.184012822493601
Zr 3.2185694247511965 7.326700648275517 6.463393109045687
Zr 7.725334912809072 3.749934048382098 11.643989803720919
Zr 8.389360833714184 7.069071521707868 2.3622698735928953
Zr 8.32584321991313 8.393972042439596 5.033879220325123
Zr 9.707706808981088 3.661351691526087 6.732551019097175
Zr 7.623120052096384 5.7722140540919415 9.75453067932576
Zr 3.085109703531687 7.821221463358068 9.611987398091607
Zr 6.37512994907014 4.5544757878609765 7.110802076231278
Zr 3.882156715746924 10.08649964834257 4.918720237017229
Zr 5.814236831976346 9.02210207133039 2.9599166951126525
Zr 4.561368134327936 12.05672130668413 7.427835984674853
Zr 8.459328395859202 2.55088293421869 9.077335627357753
Zr 10.838180243348267 9.01479135774694 3.656294585540013
Zr 8.867652379435462 6.534317826128382 7.340221294607121
Zr 5.758779635330352 7.429853750598383 8.411410846221276
Zr 10.593196862183538 6.18743650750621 4.791535810454539
Zr 6.527290565687615 11.530164943715144 4.357201920715949
Zr 5.151840562302531 8.24684376318328 11.471386644156409
Zr 9.282043972853305 11.099529745033973 5.312802511633063
Zr 3.307221060339897 10.860688551837994 10.210558013701668
Zr 4.798520753878146 5.305805956348878 10.804918848481227
Zr 10.406040121534225 4.502576300245866 9.719972612057523
Zr 13.01811174983545 7.595596032752639 5.305227109343016
Zr 2.9172137150006976 9.851235687917896 7.624743961466716
Zr 8.3807823324531 10.110463825041494 2.5348979875262203
Zr 6.907522362421566 6.404424832285453 12.630147467065932
Zr 5.804349125130032 10.235877122226274 9.474022207792549
Zr 6.1997149323248575 9.776510956364719 6.635426986901039
Zr 10.896224806459184 8.759966425862652 6.693353822335668
Zr 8.658320861943897 9.568257074529058 8.229107458017813
Zr 11.837999678609487 5.840386584835008 7.449670266043238
Zr 10.652212483974866 7.538978320636343 9.660529326461624
Zr 9.60056385643238 6.185181179985201 11.974692108518171
Zr 8.160491920831905 8.598411454885927 10.976129045205461
