45
Energy = -332.52863063 eV
Zr 10.50463754022322 4.009905293563678 9.522094938057712
Zr 8.771968748918246 3.7524584590976198 6.83400405855784
Zr 8.708253019228499 1.7363556741837598 9.163506043823071
Zr 8.821256995008184 3.0324859926278274 11.790413087400825
Zr 6.223668926679619 3.3122968961501744 4.812258614279633
Zr 9.596286910076152 6.617221010120037 8.573864870293134
Zr 6.268276019819274 2.0893136931549225 10.814159843686934
Zr 9.142213197379354 5.966622418129462 11.685522828732296
Zr 8.911486553481787 4.54478538167973 3.8873931508885904
Zr 8.467349960401306 7.153245804983445 5.8976149419296195
Zr 6.080843959165326 2.457652350835688 7.749512909699766
Zr 4.207761620358233 6.497112030143645 11.563998660284497
Zr 7.008232088604984 10.264353832371764 10.289961820471664
Zr 3.672438216497989 6.701160381432093 8.595955015666286
Zr 3.7003686230043433 4.032952012393385 6.706503409187006
Zr 4.484040406459242 4.127254740474298 9.903458223460225
Zr 3.952614911339384 4.747234717514148 3.9235870534140913
Zr 8.717457654865273 9.66838110166554 7.813586665764573
Zr 3.930964863620482 7.271040100749303 2.526095178594815
Zr 6.447283117024066 4.8037593766677045 12.32849407689036
Zr 4.5229705859485465 9.082162875441075 10.249010429263496
Zr 6.100728411349911 5.505476207417727 6.89600647185364
Zr 5.971536820368649 8.471076055000255 7.69705920108073
Zr 6.20624076538594 4.634452254989955 2.0317636497522407
Zr 3.1464413906352426 9.600485727450408 4.0245028927714595
Zr 3.6332710347711754 7.10686794887476 5.610840891844714
Zr 6.27097975342701 7.547619565191289 0.9168710267656147
Zr 5.369040435514598 10.052696994408784 2.2113225041673408
Zr 3.4609377256806924 9.850104569021813 6.810236051781774
Zr 7.580470179090651 4.36196133585222 9.473714857539838
Zr 6.701781276894201 6.977019214971534 9.887600383926523
Zr 8.614367316187952 6.264681197556493 1.618243867376968
Zr 6.729896154886897 7.993033837930187 12.431205955702302
Zr 6.53814900543655 6.760808821725185 3.836475070770094
Zr 6.1485600551725454 9.452861734720024 5.081245041268246
Zr 4.830623114689426 11.942738009155459 4.826341344002883
Zr 10.92464580274298 5.449839191988009 5.992518473433253
Zr 5.488858965281901 11.33015624718648 7.924861567819949
Zr 8.309199751397074 9.123610293701889 2.325355329610741
Zr 7.434088173983278 11.676066222714521 3.4513447037810927
Zr 9.217081581847047 8.705394886370126 10.673580125361418
Zr 11.138040826494814 8.219521627485749 6.53183657321387
Zr 10.40114421711082 7.2763489163382715 3.672415549852028
Zr 9.491130870778392 10.049015149493396 4.852322264062342
Zr 7.614969079535232 11.931214470392048 6.233991942392158
