44
Energy = -324.75032366 eV
Zr 9.68996575883455 9.120546910723714 10.57799241850933
Zr 6.5957220548160045 4.709771058664139 11.135667574754523
Zr 9.356227544073134 6.1949677364787075 10.858610665680944
Zr 8.971511271238198 3.3195556785719162 10.711604236215608
Zr 11.314510819681988 7.276790884410137 8.975474796488205
Zr 6.958228088216592 7.82715899925099 11.34518569349161
Zr 11.312028632834364 4.272896082092816 9.155499261713372
Zr 7.136744688112756 10.606281237577686 9.858850325762779
Zr 9.301193349001732 11.098530602003772 7.923591170714813
Zr 4.254074521920077 6.519290538574687 10.897465127419048
Zr 6.654435769722885 2.64221156287298 8.826285470768205
Zr 11.371182004329263 5.864098190944624 6.374805958460637
Zr 8.335700176321728 8.253110096566214 8.246322157722698
Zr 9.46633400653375 1.9004152690827 8.486809756855141
Zr 4.744500938683795 9.018938678544146 9.385798518891663
Zr 8.768252856507953 4.8604871418865985 7.962179320568333
Zr 6.202960357573355 6.357154510854947 8.788747684611897
Zr 10.966242428646865 8.698559628241373 6.5291310341032025
Zr 4.494754117038695 11.754534423816521 8.664876055400812
Zr 6.868602160832403 13.050544532868399 8.21089799372757
Zr 10.852493085340114 3.0550149816168872 6.466409533874193
Zr 4.158769477075146 4.101394373377512 9.122660289033826
Zr 7.8929382800843175 2.405834793774963 6.061410940757288
Zr 8.053002268543239 12.81660605415717 5.747487273143815
Zr 8.104155953876976 6.92639862918232 5.55534415724084
Zr 5.35502737812815 7.908041135334021 6.182452144722174
Zr 6.49465629285447 10.40400754737101 6.704905323011606
Zr 9.48329638418137 4.418962983018491 4.420359031560812
Zr 4.812006510863092 2.4199077193551757 6.262357862920192
Zr 10.317033466054065 7.334788806388842 3.8696108493759915
Zr 2.663434421034764 4.420753378147256 6.7036060347821245
Zr 9.055707950134625 10.02939549766038 5.076158757665799
Zr 5.696376639276982 5.06040766637659 6.170454248010962
Zr 4.951600056781159 12.678643256486723 5.835609460638805
Zr 3.1539203727682565 6.901866173532476 8.112992304994634
Zr 3.311019633991279 9.954852135042426 6.764379256981995
Zr 6.749708060649386 11.645035815380947 3.7109329850401194
Zr 7.142303376074803 8.791421399576619 3.316336914925266
Zr 6.5143547206519825 3.6940724257870037 3.6843581295027032
Zr 7.937084656674826 6.048769070669898 2.6087229033364863
Zr 4.5062751824164415 9.91177092543988 4.1487776825080145
Zr 3.6951853785937447 4.164094865409318 4.087090801473827
Zr 2.9684129853292074 6.847737635944112 5.098718215083256
Zr 5.2250286430648725 6.528459276630832 3.2456091972574868
