42
Energy = -309.00937358 eV
Zr 10.193688180848127 3.4728461312688057 7.15377857157637
Zr 10.955463290563 4.513892307480273 4.158077088123975
Zr 8.62325039509836 2.9228381003776445 9.555036852777665
Zr 10.399758267277596 5.446317565033305 9.712911588806254
Zr 11.110023359451562 6.183036335727862 6.886799573366503
Zr 8.666197038396376 2.510118341040437 4.926502235329818
Zr 9.818653160388484 7.284632496173646 11.828414719644039
Zr 6.785895504123415 2.695285911421064 7.115427222298965
Zr 10.361935770232359 8.653174367488441 9.150218800785192
Zr 7.8887912352563125 4.989767542532007 11.490164079891908
Zr 10.784849878907133 7.6322495179588 4.544386776455473
Zr 8.371719254198432 3.8392403369825376 2.5732336023554945
Zr 7.951847693582284 5.256497085946544 7.95406510726267
Zr 8.499728308126402 5.543280693722133 5.00063538431318
Zr 8.648392615201582 8.109327870997149 6.711744911618784
Zr 5.709425507224134 3.778379462805562 9.525398546344706
Zr 7.721903404323789 7.542155501828669 9.78776731674414
Zr 9.52861900613802 6.4134946678304825 2.26627450177269
Zr 5.903808558781521 3.8583021443862875 4.479452740911771
Zr 8.587115213084628 9.846124490270027 11.381141774230965
Zr 7.056248413270247 7.641883268361867 12.634406458244689
Zr 5.026659833966509 6.425502101390392 10.725134716280834
Zr 6.546695701080859 6.079001624342689 2.4153652164798887
Zr 5.585643120683826 9.4455883316028 10.818849440015802
Zr 5.497074585679521 8.343357172389428 8.125318826028298
Zr 9.093653679839274 10.840210678423727 5.69658679001595
Zr 5.080581368195921 5.675290374761684 7.189774901685302
Zr 8.175093153654407 8.735011039417934 3.5704178498491084
Zr 7.635287068591647 10.425400885575618 8.516142466284908
Zr 3.527768502848699 3.487367601283199 6.658441265845684
Zr 3.6004075179598334 5.7610917408829145 4.355013793036756
Zr 2.9204771817481348 4.9764538958623685 9.175737335848103
Zr 5.986807679835531 7.126469216488047 4.964217410307867
Zr 6.343769919147136 9.798910521256294 5.795950177829927
Zr 2.8835670999222858 7.905893063915559 8.933424976554026
Zr 6.990963609153047 11.588798053234475 3.635422955179042
Zr 6.706677919275173 12.593694694610726 6.394237716557611
Zr 4.488191504790049 11.018692463099402 7.824733613904133
Zr 2.0980866271507304 6.1386357463054875 6.732154876499378
Zr 5.000802741409424 9.258628331444772 3.18532273551901
Zr 3.41204648891007 8.744805986409862 5.811948322504306
Zr 4.318061075166968 11.639200065673808 4.890528730210742
