44
Energy = -324.40807556 eV
Zr 10.397715935506017 7.721005160878038 2.7154722613406057
Zr 11.855975423919785 6.230269812183387 5.3297226465263945
Zr 11.560261563176908 9.248705343701642 5.0872086300503785
Zr 10.326499109368985 4.867919948639636 3.413567201966461
Zr 7.184910824944622 8.779377213383746 2.5768804084588823
Zr 7.550690101504782 5.780399442537574 2.8490309716008055
Zr 9.355723538640554 10.362755520537515 3.726799384010135
Zr 8.280180931283313 3.156119009637752 3.9390011213336744
Zr 4.668695804002298 6.67623282460824 3.3822443188684446
Zr 9.049146995136294 7.729054456541234 5.044204711606524
Zr 5.286989548979707 3.6220349686694835 3.9875321237177523
Zr 10.98106662958449 8.007697440888158 7.663842008484345
Zr 10.7175025330761 3.1597639720842188 6.005724510076778
Zr 11.41347451700735 5.249575550155099 8.17969726755711
Zr 9.075104817311573 5.183644249618978 6.334190059760768
Zr 9.124044528512108 10.259671695733187 6.8428201752673585
Zr 6.220473723653371 8.269747483517893 5.353623260611636
Zr 4.56215827570496 9.753600335109907 3.555720695557958
Zr 7.505559174582439 2.512645311157494 6.50616914144794
Zr 6.904926926107318 11.100469191923711 4.8766285902253985
Zr 9.205136929884425 3.4253103424220512 8.997021488814623
Zr 6.328822005392422 5.3118881823891 5.7027480321954425
Zr 4.611912534224412 2.8020875946001884 7.042834254775871
Zr 8.039675025063438 7.358201820415672 7.9285146836702
Zr 3.156647528357767 8.298349016135496 5.71526923275827
Zr 3.239006585847709 5.237422265869601 5.74746915447907
Zr 6.763206921158029 1.9131951862712004 9.242360687922384
Zr 4.358156323590047 11.10974496923592 6.26247087143891
Zr 6.409101147689139 4.822719636493291 8.686857615178427
Zr 7.04456662509378 12.030071852868438 8.278122066090596
Zr 4.653505988424187 7.0066016483801485 8.07661569791667
Zr 6.103672672729188 9.490643741626293 8.18015215484141
Zr 9.3259393611628 6.108125370016596 10.130778656870449
Zr 8.738466761159412 9.642819179069077 9.709927325345781
Zr 2.7995829700319605 4.463038149020604 8.56778250436591
Zr 2.6637183023453797 9.819808555373138 8.159033435622499
Zr 4.460783677212045 2.9589416028822706 10.167274942811222
Zr 2.028421890812644 7.17411905945036 8.842511413736691
Zr 7.019860500160256 4.205335908138556 11.275823028010365
Zr 4.364462887934005 11.647244234496835 9.340877053185816
Zr 6.649529013936705 7.4945609296755284 10.787215761899821
Zr 4.139599389345361 5.777448993822901 10.86370947361681
Zr 6.416779808174609 10.576684224847831 10.938968765879624
Zr 3.952577524881654 8.897376943551537 10.60372401657144
