47
Energy = -346.98738031 eV
Zr 1.849263713360233 7.0256409543171054 8.370264023256908
Zr 1.9320537890791372 7.415807079441568 5.459977340640502
Zr 1.9100578609311625 4.684551656140945 6.337129780324597
Zr 4.103102275164813 8.647263581308943 9.90442570076038
Zr 5.542718127573772 11.089823346493334 8.856005397012032
Zr 3.9094218187031724 9.457459573780389 6.813645644018246
Zr 4.613266053474646 11.032859680414985 4.107408053246239
Zr 3.4381891142924803 3.798553473002357 8.66769920610386
Zr 6.265223913514349 12.333568155285066 6.364522886901488
Zr 3.871060245095865 5.848263331401658 10.428767101630857
Zr 3.466666382312327 5.338217481426056 3.8471657938826542
Zr 7.397208254909666 9.871260231925982 10.58173533694065
Zr 4.187607955868967 6.387307850837688 7.097346693994517
Zr 6.412106809137377 6.8297637772665984 11.453503600816138
Zr 3.9620931231095486 8.28199668436519 3.591772113312071
Zr 4.639588815507083 3.4028424190647653 5.922358927736654
Zr 6.371596539003138 8.005983708833234 8.377803620060737
Zr 8.301195314612581 12.316126089734771 8.756512937180585
Zr 7.279614847671829 11.76897959952554 3.632548728211125
Zr 6.703894069053844 9.090935372120684 2.512573844585335
Zr 5.916535288868086 3.6871763355294775 11.07838648788575
Zr 9.150733360041267 12.110156110863436 5.665965698569623
Zr 6.572211388136181 9.390512299433352 5.405565291529227
Zr 6.280979254290372 5.023961750079175 8.737815086569366
Zr 5.675389849554677 6.457270864518356 2.0907231687113126
Zr 8.213803309586845 10.022416937118704 7.564972475274318
Zr 6.051695421268625 6.460200735296796 4.995395631403011
Zr 6.319143118160137 2.018664806007051 7.981341045535891
Zr 9.143113204699507 7.87013005422311 11.875079250396919
Zr 8.782648903283555 6.74430851890262 9.156193673473215
Zr 9.402336473357355 9.601100219194038 3.905553512221776
Zr 7.001654630972761 1.7052568725257353 5.172056603753848
Zr 6.304253409984377 3.934011977714818 3.3882642587098224
Zr 7.77352059986011 4.377249324442976 6.402694537394162
Zr 8.904777863350816 4.948685222586792 11.414515519415696
Zr 8.960979897733873 7.358843867697157 6.33588418808457
Zr 10.406789331806205 9.400554125723328 9.56281801269504
Zr 8.396682017578646 2.8409579847969275 9.522755988712818
Zr 8.604702324418087 6.396464925260099 3.54417720433494
Zr 11.066846326727957 9.94902708469109 6.342809567468272
Zr 9.102024209412244 3.290051152080895 3.9901473541474104
Zr 11.309459017517332 6.649867254478327 10.515957230596813
Zr 9.415400615904261 2.0860434786468676 6.77759399864595
Zr 10.590946912224478 4.430742712959531 8.57865489842801
Zr 11.35059395423052 7.578062410017928 4.657231087796112
Zr 11.67929302191891 7.3168769052050395 7.669362856301898
Zr 10.729383345250449 4.95403106735505 5.692710986139299
