41
Energy = -301.58530242 eV
Zr 4.83040464560686 10.545495219646167 7.550425578710401
Zr 3.8120214566502972 4.7106886280181275 6.2380184701160655
Zr 7.98140858495994 6.64666272009193 8.460949841817621
Zr 1.9986784318365005 6.3185590856848375 8.125355565500318
Zr 8.115017690526287 10.665400573197703 5.050470083466787
Zr 4.836772198948646 3.786938369263636 11.010858438839627
Zr 6.584174023035914 2.760799096974983 5.355955595080417
Zr 10.743272410675031 6.260680558939249 8.3777937403706
Zr 9.771540505461564 9.059296772458865 6.9478934467108004
Zr 3.0020496400591634 6.2330572825187085 11.013098284303844
Zr 8.603217651301344 5.415208944963011 1.7791713654619468
Zr 12.023248503780442 7.405422992190122 5.8880289436846045
Zr 3.8381894976672863 7.95249465765972 6.580001608159897
Zr 9.329786507621384 6.2777401372192685 5.806757025224202
Zr 8.772138930826694 3.662248570237976 7.267509149721477
Zr 5.603520999590867 9.682896128463778 3.8659159992443284
Zr 6.010201980252534 6.299448857133852 12.00338247095461
Zr 9.55640650906236 8.911800120585607 9.863945715092916
Zr 11.50795646682043 4.529419088157818 5.872117122657049
Zr 7.531119932654306 10.73738672420928 8.853682955670719
Zr 9.106842668532593 3.7938324910239114 4.159691233009245
Zr 7.85305150170923 7.678809775379908 3.880598151678332
Zr 4.682849977379026 7.009180158133262 3.867236706266671
Zr 10.583556891468062 9.165981425117483 3.9215363256993383
Zr 5.732678414921052 3.0982439572968565 8.118959547051094
Zr 4.9479513683783365 10.940324744110844 10.435994417969265
Zr 6.536963542678365 7.67991094295359 1.4380274482148554
Zr 7.539475183659716 4.2692117932765745 10.238975147948917
Zr 4.88233754547018 5.817741158408971 8.810696050156828
Zr 2.810509487941331 3.809248822154376 9.044427876990556
Zr 6.255073511551162 4.868561581903645 3.1924218979033867
Zr 11.083498143410036 6.17947315689769 3.3003698505999957
Zr 8.812786154464247 6.71949443833256 11.299285475276484
Zr 9.597347564941185 7.975299669127226 1.407302624271658
Zr 6.745403643698411 8.612562680052624 6.534563878938359
Zr 6.465360665875488 5.5316621999418345 6.159200313114491
Zr 2.8396562079368204 8.917345788358213 9.40618598001207
Zr 8.123211038063822 10.189304691273811 2.2709903691446316
Zr 7.219242853194195 9.355973025062783 11.755380125499817
Zr 5.808546326101561 8.376716258652284 9.463019012708743
Zr 4.302448192629093 8.676377240084575 12.026849846650435
