40
Energy = -293.55923307 eV
Zr 9.090811059549774 5.2211692496526165 2.1081507153642014
Zr 9.588062413275395 8.168171306732514 2.9634145309796502
Zr 7.018232107279485 6.960504398952578 1.9529759849596966
Zr 11.040889694624436 5.74856720827561 4.058912967557439
Zr 6.801610078443659 9.387824168642405 3.3540400880435204
Zr 9.329082723919996 10.829146247920555 4.8702624903932445
Zr 10.976197151651595 7.976490270812437 5.805909408250753
Zr 9.220287432367627 3.4873155429389233 4.406574018035315
Zr 6.430273110844535 4.313694364547455 3.2753411266398498
Zr 8.09029479973602 6.221724915622192 4.793823868294847
Zr 4.56140750767162 7.017659568618973 3.41949576408261
Zr 6.1899977537631194 11.222263321494198 5.725022470129012
Zr 10.280154860340504 5.116816201045582 6.840686340621536
Zr 4.049720138661343 9.679819675926979 4.498220799245761
Zr 8.302968778443862 8.909641898222842 6.069138753676913
Zr 10.064451469679696 9.998659577758623 8.464506182727732
Zr 8.323475912979843 11.924289424188594 7.624358136948118
Zr 5.726175149326976 7.720125740296186 6.069877041860117
Zr 7.007505814171342 3.5286660139960033 6.184266842498883
Zr 4.315918698988831 4.983852224901266 5.724378119614245
Zr 6.503592474411335 1.918265329452219 8.845081108195641
Zr 11.134765475760886 7.362693348669785 8.676765927897547
Zr 8.741573617129577 3.3596536487320017 8.668807107582628
Zr 6.7805117845522425 9.256797421220918 8.520967266212198
Zr 4.219857677657821 2.5769735841549037 7.271512589150754
Zr 5.780981434515101 4.887986772068106 8.503346803968041
Zr 2.854791037717531 7.431745867121622 6.009390898369067
Zr 3.8522756901983155 10.07105868977827 7.434462132954731
Zr 5.718030474249365 12.033055407376175 8.61339391361656
Zr 9.50805872486617 5.4451965509717235 10.36332634516524
Zr 7.810960256393699 10.943877413218399 10.449556943418472
Zr 9.321500374903907 8.311146269185514 10.678918710173608
Zr 8.214095711163106 6.745076043786088 8.144221922779831
Zr 6.860307785501727 3.9748375518488697 11.08754668826994
Zr 4.219847985302345 2.8655052279902806 10.191723395425576
Zr 4.807398285863639 9.889003782760659 10.426214560046585
Zr 4.181189089957876 7.467505183149054 8.759942969230405
Zr 2.735802372653994 4.768398340614024 8.46953969771785
Zr 6.598990695979513 7.2271839175822885 10.835377145703687
Zr 4.188123813272785 5.576467495843867 10.97504326310979
