49
Energy = -363.36841575 eV
Zr 6.99931902236213 4.007361429202255 2.769048413549269
Zr 4.9800006396952154 6.068898707027722 2.4223591775882785
Zr 6.256550397643682 2.4891632560300443 5.2985798831782
Zr 4.167004589905629 3.9863483428173487 4.348758694004685
Zr 3.447537699836388 6.917251721039275 4.714557866759839
Zr 9.643608537210293 5.267832381291668 3.45760335975442
Zr 2.293850180816513 4.910970876489403 6.504578579379104
Zr 7.8174519216938485 7.0557315990210006 2.3489687589845967
Zr 8.92500631917486 3.3516906205011914 5.4372754968630925
Zr 6.8146398977698714 5.705859368708644 4.924292760875788
Zr 5.713162238831341 8.614249155154294 3.6767910680105707
Zr 4.195570664662793 2.797029015822929 7.413615480425976
Zr 7.291803348552611 2.8466627667626394 7.955103282799792
Zr 5.143103132259793 5.3639385604030085 7.143631759965929
Zr 3.6715325765279774 9.986957536992936 5.758218765275105
Zr 2.791361368108128 7.635030399900851 7.544648939086027
Zr 6.241087851422283 11.053513623778967 4.851402269574298
Zr 10.8072355571198 5.734807376243392 6.075468254152363
Zr 3.1360941291999747 5.176196520943459 9.352508969050893
Zr 10.671894776945237 8.016591336175665 3.6842711541786937
Zr 8.580575373577906 10.120528509727283 3.445367413712863
Zr 8.169554909926577 5.963580856377882 8.070124555652184
Zr 10.175474549295783 3.4885404014158183 7.939449062465189
Zr 8.349586195741896 8.076570396156397 5.375370992132914
Zr 5.759836349124776 8.46907208403283 6.834950977858744
Zr 5.698596023540603 4.201611598649447 10.042892581433346
Zr 12.867345318565343 8.102028105923514 5.388041870579186
Zr 13.146662794336159 7.005869397627485 7.922265186788494
Zr 11.196165443371944 10.50438214073108 5.3688869823122
Zr 5.514676576380522 7.520869380626333 9.659969594205219
Zr 2.4642352981290356 7.818064848634643 10.319488816410326
Zr 3.6469391614526394 10.14255689075411 8.945404805190414
Zr 5.783781205998232 11.667955036556467 7.583965658455679
Zr 4.463058562220339 6.440011800134083 12.081488511003
Zr 8.581819112042439 11.419117678415548 6.3253633692837425
Zr 7.23138839747245 5.789011841340626 11.941190256899292
Zr 8.70257530318356 4.03346920237636 10.316569384391906
Zr 10.488287890970156 8.315222379481664 7.460115829481323
Zr 11.071797369823626 5.827888552800985 9.373569502809042
Zr 9.234123004628414 7.358562877412345 10.718660017408046
Zr 7.917942204060202 9.367655624458184 8.773073026314503
Zr 13.09705010352407 9.859732811009676 7.598122618627341
Zr 4.144066774295513 9.356168556691484 11.837481378237916
Zr 6.917507192940633 8.611487903123361 12.189222829864493
Zr 10.73245317526567 11.288429141428248 8.44088979291607
Zr 11.825822430644445 8.882985793961256 10.04549136760596
Zr 6.0877277142966655 10.94606944825978 10.532235324675892
Zr 8.19006620833222 12.351768552296125 9.130693781237728
Zr 9.309429589661102 10.45748158069375 11.05045917506894
