46
Energy = -340.53826172 eV
Zr 10.43396940149068 9.404321877440243 3.6145909382185377
Zr 7.65619211990999 8.28228616768007 3.2497375684235377
Zr 10.0346693165629 6.507065374400583 3.1864458236875954
Zr 7.321411525007751 5.383813249525084 1.8482238450464756
Zr 4.911653924455456 7.354854359682659 2.3994232347924327
Zr 8.220045080288632 10.717686532562908 5.092363089472564
Zr 9.546074316705486 3.6376396368042254 3.108886278414083
Zr 10.982518666706165 10.467555780534731 6.124989395508058
Zr 5.436267917281958 9.776795559110058 4.340194854574287
Zr 12.10391104446954 7.662719695092962 5.5860703768104
Zr 4.699350827755877 4.36101841133147 3.027841197271574
Zr 2.845789259192533 8.729625044582667 4.113503148043486
Zr 9.301227084597809 7.8625475007875325 5.847870136328028
Zr 6.976213141065542 2.7263817426731887 3.261097873144919
Zr 2.4845360864474517 6.057214754523193 3.59662999817234
Zr 7.599131818528687 5.34214163010985 4.667519411273106
Zr 5.914403570904224 11.046876701163754 7.432760453858352
Zr 10.689696062216322 4.833716419222719 5.534709351905536
Zr 4.891947494340776 6.668710151461378 5.32942457224276
Zr 8.874003574016692 10.558494241523613 8.016750981055964
Zr 11.804377248101996 8.94707859289558 8.396338319342114
Zr 8.535313126292138 2.58527997113941 5.809214947914969
Zr 3.580264480032025 9.66646402664869 6.722572924562529
Zr 7.270341367714037 3.0384302431886563 8.757147203697324
Zr 7.723264264760794 5.373217112637352 7.421502611575436
Zr 9.958840620310305 9.76225922726629 10.696608745334245
Zr 5.648091006408931 2.983147907784266 5.833372981843875
Zr 9.142611158840898 7.537618920553291 8.882776957233922
Zr 6.970420736233164 9.320100750690122 9.995390971704952
Zr 3.904912138441053 10.139217960578705 9.896926640283418
Zr 6.693103348896956 8.387587415741136 6.938729824303727
Zr 11.707577017400357 5.934046136354065 8.207576862974696
Zr 4.316986441900557 7.471651649975781 8.834566653528055
Zr 2.134942050762388 6.897612518960541 6.482251705697712
Zr 3.0332116182720252 4.161733308056782 5.628601060056884
Zr 11.409278742452754 7.235294694309112 10.774687283121153
Zr 10.133346757860522 3.524853714256716 8.018334993774847
Zr 1.5529926817362478 8.72093622298665 8.705188760933783
Zr 4.620106453435687 4.7679232560401505 8.002479649415978
Zr 8.620261660562617 7.412541380716839 11.79043059658042
Zr 6.734090679450376 5.9752232642969565 10.190166914666955
Zr 5.115823918379856 8.02452174082905 11.809423184811505
Zr 9.646905769452164 4.887447262251008 10.399947522732296
Zr 2.4168291154730297 7.838732943866856 11.219129512067713
Zr 1.8064259079957676 5.806629827065953 9.209471681517654
Zr 4.015191574362727 5.3731382060553425 10.988348087862931
