40
Energy = -293.56040112 eV
Zr 8.947720099927928 12.26952815027194 7.902849198176407
Zr 7.743867576039632 7.206133169460537 13.001753014496066
Zr 10.03806702236033 10.410171552887963 10.152316017797252
Zr 7.805989011383376 12.496849575838995 10.5404904218386
Zr 10.30149220431725 8.418478122674689 12.434586034784516
Zr 7.805541029823345 10.058154748619067 12.240449779822699
Zr 5.305697240302996 11.144803778635255 11.066335227295392
Zr 6.960367234817189 12.213950966323491 5.839375423660195
Zr 9.889917967863171 5.607651219537527 11.664675854942265
Zr 5.763628570878068 12.392628118045044 8.371249463636092
Zr 11.617598677614277 7.661901306237725 10.017823233808782
Zr 10.60440788536738 9.700389457607773 7.419416938129345
Zr 8.470450276206632 7.654072558371438 10.202722238795488
Zr 7.6229920880113715 9.085535177697619 6.366577987098799
Zr 6.4763564227856305 5.460602992729999 10.947691056649072
Zr 4.057924308799446 9.493891400642996 9.000870785021087
Zr 9.53440860842028 6.949978229636028 7.626562630714989
Zr 7.173414902360455 10.024537021275428 9.111559520649774
Zr 5.468174484998088 8.214482549500634 11.3349591658009
Zr 9.460237271170856 11.178390734052485 5.110491812961767
Zr 6.236014537859025 6.881818899518174 8.086279521095102
Zr 9.95092504470816 8.268922642858676 4.602764164200927
Zr 11.240699145839512 4.948334656220232 9.278247204703531
Zr 4.735051609965984 10.32082853475358 6.140824356258661
Zr 5.375536387192048 3.9351003938536966 8.713260034107888
Zr 10.080557361663704 3.901826649126513 6.887210175230152
Zr 8.269208752962035 4.288968289748615 9.032758818466561
Zr 3.5051365611769296 7.79031890308356 6.772770868476219
Zr 8.040120999669345 6.018583877978846 5.526537907327254
Zr 12.190919698448743 6.501280994529082 7.050674454924556
Zr 6.743255260222597 10.250193833777045 3.8909659384840247
Zr 3.7548557525400548 6.337066532631255 9.265515115084826
Zr 5.111857612122921 7.611762447889194 4.486822112860615
Zr 11.095154978653216 5.443468120900729 4.678614192815907
Zr 4.447457899737946 5.137046705279616 6.266889225786709
Zr 6.899691221810936 3.373581637963412 6.3379622728614455
Zr 7.356057556324433 7.683779992974351 2.8785495744245146
Zr 8.935314163350252 3.4647930434332195 4.221298608713166
Zr 6.337492206233616 4.890837685817273 3.5764691523159264
Zr 9.193838012076904 5.820891613037442 2.6981551716298586
