46
Energy = -338.9264564 eV
Zr 12.244979774002898 4.847697806453609 7.622746629484883
Zr 11.434258710139476 6.964966023784589 5.839326658006731
Zr 11.332762541166256 9.814600323818429 7.1546753632579
Zr 10.008743425929778 11.506531446634815 5.154229237946683
Zr 11.540412033430695 9.382744184782297 4.221195487733476
Zr 10.645521938466597 4.021719295676026 9.94416052360199
Zr 10.970689977151304 7.422522783045835 8.726434190205214
Zr 10.689459797510592 2.5103909646725726 7.431099337101372
Zr 10.733771927586234 4.189844445423398 5.1426614185746375
Zr 10.198960967815205 7.208838715054268 3.123389426797563
Zr 8.925397228367524 11.464371196563121 7.638300632548619
Zr 9.575566176672492 9.846391539650737 9.871279754411301
Zr 9.122212883282426 6.897394390481067 10.69891945023008
Zr 8.811583135742598 8.608499437029042 5.5523100357734005
Zr 5.697443636497545 3.1260023927704137 10.247211433075876
Zr 7.1628170962571485 11.335904215410256 5.312945420145874
Zr 8.895512640144466 10.069859099505447 2.919447856573043
Zr 9.271043726789166 5.274662899284162 7.672482451912819
Zr 7.477656782675889 7.4615249983562855 2.7465039649059184
Zr 8.11750385303912 2.8021167228395147 5.966963567415159
Zr 8.267787796386736 2.2783533521858033 8.933294600780128
Zr 7.433908103014722 8.179104127323948 8.428250313466807
Zr 8.030665702102288 4.335525682095313 10.967455971176992
Zr 5.901641612870115 9.530178134259987 3.629069144233043
Zr 5.99390007552767 7.317405473683436 5.5808717770335985
Zr 7.234166284623103 8.999472271040236 11.383476782239251
Zr 6.769989273354084 11.034491352410642 9.343954908912124
Zr 8.17232795037104 5.470844702798797 4.708486003001439
Zr 5.962165520916319 6.387243409393528 10.658619411266447
Zr 5.565665803642265 2.144002898261844 7.5205849821082955
Zr 6.452256592248399 4.921349356054891 7.913482147710012
Zr 5.132670951733375 9.731989166304997 6.975546250385143
Zr 4.288225273218425 6.999464577214371 8.342438347780929
Zr 4.63868217986633 6.4890499048439825 3.1711329324267914
Zr 5.163119482048126 4.072375447681289 5.331282972955296
Zr 3.5923533208686864 4.172205336618315 8.421590722613495
Zr 4.756890025492705 9.178004379809583 9.994930381718614
Zr 3.063358184620182 6.157374529833193 5.750526589717937
Zr 2.735332052475669 4.210677856868263 3.4539145899376136
Zr 1.0445797457995882 5.79779085115053 7.7266614891775225
Zr 3.0982243646391217 9.029473376554947 4.722955781755512
Zr 2.235255718565125 3.2735987615822895 6.156742974115991
Zr 2.1819938591432715 8.774241540588662 7.524566685629759
Zr 1.7298233325854975 6.910287141557612 3.0978577933542275
Zr 0.3386212042865086 5.061185327299472 4.890143169759705
Zr 0.5075077174369473 7.817950923778328 5.530935986845827
