43
Energy = -317.37581425 eV
Zr 11.54169181333085 8.824048858157385 9.737992023252561
Zr 11.236673330609495 8.711914206197969 6.739004330594334
Zr 12.062975194611102 6.405724449492564 8.505659611905608
Zr 10.46333573207717 6.327261707729745 11.029475498196627
Zr 11.038405079656073 5.787885162773627 5.943899781975413
Zr 9.06101684506866 9.21291661706308 11.141727059178583
Zr 10.188304839226705 3.0374470571619074 5.9604551346294095
Zr 9.829432159917799 10.823333842638629 8.58635746854017
Zr 10.241715827498982 4.167179353220685 8.584254242662457
Zr 9.156756217924652 10.600840441110734 5.618030213443337
Zr 9.131515395487215 7.244353737826973 8.72708549482396
Zr 7.691805438351961 4.611398653290297 6.6985504874533435
Zr 8.384186385054448 7.463135439104032 5.904488139531051
Zr 7.567676875161665 6.735992592692352 11.595211049514848
Zr 9.11834583770349 4.840835718797698 3.817991896236804
Zr 10.023754390228653 7.835895018111806 3.86776092813112
Zr 7.601915002155053 11.546142896766385 10.346502185873623
Zr 7.836313171120969 4.529763118502129 9.919285251073841
Zr 5.991337178980254 9.025791890369558 10.964669299916245
Zr 7.978958945353695 2.0313428457013063 7.739327207217933
Zr 7.908355705199759 2.2197639117319543 4.7086284767030895
Zr 7.649896711709534 9.45468398669456 3.3722769184836077
Zr 5.378649531904247 2.22725760423966 5.944046882454785
Zr 6.205301936847249 6.686609860158152 8.586129868934448
Zr 6.871055145871771 6.797865521163681 3.2083510547394534
Zr 7.02949462129877 9.667988394240927 8.032937720102982
Zr 6.099043846851233 3.966394684333472 3.3127644389010715
Zr 5.639568255516172 8.251098719532983 5.888881414085573
Zr 6.4582585124882055 11.297264110096664 4.94065283995202
Zr 4.714685224942042 6.094401133855194 10.819011497857122
Zr 5.209157589757071 3.7966734158018296 8.507970303101557
Zr 4.9344827298448655 5.283460120139583 5.782623158319287
Zr 7.185416050834609 12.430788120811611 7.562833365576697
Zr 4.974412350130266 11.414113143625922 9.413846292702345
Zr 4.050986157186798 8.725552939497183 8.540301359682918
Zr 2.8206664882901653 3.3533341780286077 6.894199648677332
Zr 4.675795246227485 9.234707024324985 3.5225325461564196
Zr 3.361195748063557 3.412347856279157 3.9986819502631272
Zr 3.8201383187921114 6.2834085490471345 3.211326128904992
Zr 4.40272677126465 10.915083860704005 6.622203963752327
Zr 3.036649690774788 6.06771036809196 8.044281241687258
Zr 2.7304599075761598 8.075025963855564 5.60100990743777
Zr 1.8839003524050948 5.478738621410588 5.287603650929105
