49
Energy = -363.22866532 eV
Zr 1.7179634390277823 6.75567960873597 7.890452680010406
Zr 2.9866139883665475 6.9745488519122 10.451612113544432
Zr 2.414836204828461 4.213753418750509 9.47273769687592
Zr 2.2111560752485038 4.422785090838516 6.419888663764
Zr 3.756690806076296 9.093012686634273 3.109796375784135
Zr 3.6815996446670676 8.920365395531524 8.217274122791036
Zr 4.821667228565884 4.912712031426384 11.55387709205139
Zr 4.014716783310936 2.3872786972422566 7.403489363890158
Zr 3.6143204214266387 7.033272263020762 5.477985549743477
Zr 2.829898921001109 10.036072156810135 5.731658662675895
Zr 4.874468339415188 2.6390881788141085 9.993688345703847
Zr 4.473914254267595 5.69696947421572 8.050733671539984
Zr 5.606947896331918 7.9115067225737 11.122311180185791
Zr 4.6919572374615806 11.655474526765001 4.229633718488198
Zr 6.23915658812024 7.066381252714468 3.063440391628861
Zr 6.396495454201124 10.217349776088488 2.3346240677234276
Zr 4.725227661934316 4.200731530362201 4.905028867830992
Zr 5.912030661942657 11.26226095586957 7.168148391950049
Zr 6.946080538839741 1.3079177409471425 8.448949955082085
Zr 5.572492736897375 9.098978411299353 5.33822456946218
Zr 6.908210716732717 3.8158581621335026 7.114203475781532
Zr 7.026725373623529 5.6288105153924555 9.656301259441234
Zr 5.9872092609336205 1.522546477621331 5.493948408047414
Zr 6.283690891822465 8.17633272423977 8.17602954113308
Zr 6.973645383510572 6.280403878681442 5.659980742504761
Zr 7.567045372941773 3.1672886529819655 10.946290813811915
Zr 7.566832863558814 11.987212560565814 4.690532602044912
Zr 7.486647078600775 5.951669459628829 12.421523626860798
Zr 7.121365001018318 10.787208421039061 9.720943980980833
Zr 8.756284116345746 1.7323164146084304 6.144387871296046
Zr 8.612684177121782 8.279182959905006 1.6113567922208418
Zr 8.3776688865305 8.891794257196386 4.506490708992717
Zr 7.566152344229097 3.6560809229727296 4.1094419698837426
Zr 9.62952633431828 3.1078880141622096 8.650872186930044
Zr 8.657423788191938 9.435866601921928 7.4811792940644475
Zr 8.53078450195669 8.258080386569613 10.646044550630569
Zr 9.010499964084268 6.317697474621084 7.837763592205987
Zr 9.335109335250062 6.246151916823409 3.679813009134225
Zr 9.227332496727229 10.959323777964043 2.4810668133601133
Zr 8.947904512610096 12.258025337562213 7.510773712046997
Zr 9.908656121257613 5.379033321686419 10.61479017419972
Zr 10.090152961417974 4.205777248780627 5.756548190473671
Zr 10.465742277147285 11.23053161931886 4.996366772410808
Zr 10.005021965741436 10.71462324154687 9.850826149181954
Zr 11.01172291503117 8.766714093198749 3.1997644050960026
Zr 11.627430660128395 5.233423928791975 8.020666277128196
Zr 11.11796739889144 8.005246178088155 9.053027376335454
Zr 10.974020923582616 7.5451087206633245 5.988102695880252
Zr 11.484127268399137 10.362451862306786 7.432142777653743
