40
Energy = -293.83418958 eV
Zr 9.718374696462089 6.442368520278972 11.017469872498213
Zr 7.432353483189696 4.76055996256814 11.332492992492917
Zr 4.585445482903072 7.296145628132933 10.665141184300287
Zr 9.954850724455147 3.4752281419443656 10.76609749618144
Zr 8.33989689857565 9.47418184376587 10.091638370301887
Zr 11.763737104493842 5.154268983917238 9.33578086756848
Zr 7.158382057456138 6.955288286253333 9.306896771341876
Zr 10.56371085889909 7.71451656568482 8.508199220785766
Zr 2.415104060279617 5.838614505437043 9.320474273580249
Zr 2.58521178318601 8.606350396573296 9.031127506455936
Zr 5.153828837332798 4.569633508662123 9.51887530699784
Zr 5.369269960481949 9.739246686523417 8.799121502604656
Zr 7.61801402763971 2.50670230036336 9.33252783325604
Zr 10.20790581055524 10.56771072710957 7.995225042007199
Zr 8.981828253456541 4.931638767960847 8.297515153735617
Zr 7.660358382648679 11.725265332787487 8.361829734429662
Zr 10.56661577624654 2.6094850792144846 8.041919154967813
Zr 4.670339733035033 6.93611081301114 7.574593952108347
Zr 3.25749913434261 4.235023865867561 7.174553331026809
Zr 7.885212789219526 8.947403568308731 7.252812756847451
Zr 6.238207090216509 4.494337808575125 6.690900652343462
Zr 5.6065384880682005 11.70327931130181 6.2778612591162934
Zr 8.59273841070251 11.316740276232284 5.59180040537985
Zr 3.0729316768569497 9.772726491230532 6.483336930595688
Zr 10.493986708809844 8.646102921411407 5.65426968048681
Zr 8.438225110857507 6.379987796399419 5.7785772608460295
Zr 8.041153662245252 2.191042800057815 6.532659421134606
Zr 11.44769296469073 5.6292555616927915 6.448508721160355
Zr 5.744267114637256 8.801551739336727 5.28164770881485
Zr 1.9363079804365713 6.920173875516223 6.515484503290521
Zr 10.010577530054125 3.6528293390176176 5.231683949622403
Zr 4.0207519031345464 5.286306196399476 4.820606679183949
Zr 7.485902442745639 3.832584685282405 4.003081575476698
Zr 6.689181161552533 11.221230874582925 3.556584373753553
Zr 8.37508703536011 8.750158087272013 3.671789727346778
Zr 9.558302677195286 5.934795712577766 3.325183132581357
Zr 3.9506943243068267 10.740316769806299 3.896733116186208
Zr 6.392860732245245 6.435847603277519 3.5582483561897655
Zr 3.2553082562347604 7.916708586033401 3.91929320177492
Zr 5.618672747352281 8.9480685581247 2.2627294573180334
