42
Energy = -307.80158514 eV
Zr 7.241544034292916 8.619989085472866 2.8923162203675816
Zr 5.446604485052396 6.538200070468873 3.9143665245312977
Zr 5.32352377957628 9.292158441014646 4.979716048535354
Zr 8.0012283117087 5.975560865993422 2.7656258289478775
Zr 8.175244899173105 10.429855211360747 4.831600646798733
Zr 4.128911116701792 4.431023500589804 5.0993910560685265
Zr 3.4818812406683564 7.148313917763686 6.028904902849539
Zr 3.573188022360081 9.882896628815816 7.382343501008523
Zr 10.002145394799589 8.026787227540767 3.534532970829352
Zr 9.981430063327572 5.128595350413373 4.380470254749527
Zr 9.196250600153496 12.547424909063672 6.911954491785706
Zr 8.057560599178165 7.433216916470994 5.697493724402225
Zr 2.8377918038294707 7.541587784772969 8.774345329122754
Zr 3.156165631188638 4.769606029780085 7.8873956371324265
Zr 10.816474820065137 9.79487602845326 5.847677122241242
Zr 5.014558842374118 2.5878824383908112 6.796034148055151
Zr 6.04702995556514 8.43947484326728 8.289979080989779
Zr 9.020442795775384 9.951122195401336 8.255827390077137
Zr 6.037936241436502 5.452284427099811 7.352063416748143
Zr 6.323071845658788 11.192864897757573 6.89973675174439
Zr 7.2157227546841245 3.946440091676682 4.974905410980327
Zr 4.739253291956051 11.670097537426598 9.235483949582118
Zr 4.396968048740848 9.095953021245057 10.618545197876754
Zr 11.670090436065564 11.670024700720868 7.884133807961725
Zr 6.987184614039227 10.688853331612416 10.68523518251689
Zr 4.598452674324452 6.046848880658787 10.360719256904469
Zr 11.153700424873456 6.986170965028165 6.229462659704169
Zr 9.664269661550827 12.313408501215765 9.96595792435874
Zr 5.196470210856384 3.324159225764904 9.489972093989099
Zr 12.183907851223271 8.750367997487723 8.323367765599304
Zr 9.332989133943153 7.118011681777134 8.841576594399129
Zr 7.174021412155741 13.025999907444023 8.913582919168702
Zr 9.544656695756887 4.675090126923729 7.106260080391078
Zr 11.995549925873542 10.618615139304795 10.465558217154612
Zr 9.59741330904657 9.242591917750804 11.214664721865157
Zr 7.0560997829261165 7.685036052281507 11.115356937414141
Zr 7.4154133534225455 5.020392543433256 10.147995531719587
Zr 11.91468936504072 5.707083405860846 9.124785331188818
Zr 7.602528321893951 2.8400860436503743 7.9590641329874465
Zr 12.161277873528544 7.843811546518655 11.045725107382868
Zr 9.965402408540276 6.172649506515286 11.597103620827815
Zr 9.94939065168697 3.8751169923157716 9.858499637786164
