49
Energy = -361.96383458 eV
Zr 8.745603658924113 5.522668305165178 12.55611227790283
Zr 8.444797548127822 9.74727917647913 9.977556388764981
Zr 11.307309453812346 9.280787644734438 8.977310333367273
Zr 10.060449385949344 7.294458333094182 10.619719083852587
Zr 7.004433953340993 7.485663957497741 11.512464959313718
Zr 10.795743062582243 4.522260974163005 10.499792427471162
Zr 8.619034576096102 2.939736634001908 11.864316575339528
Zr 11.663101344917605 6.501865800810126 7.959401638196719
Zr 7.299639226388586 12.18187905901807 8.919445405310451
Zr 5.503871965422096 10.027996801218888 10.071198756907698
Zr 5.970413317180599 4.647766885059383 11.60436383410246
Zr 9.528841483025072 11.007188576194343 7.425234274488895
Zr 11.527379282689004 8.98545447769322 6.088675967550145
Zr 8.069064738563656 4.913052638221473 9.59063671498997
Zr 6.4010430936509035 7.341446464784839 8.574928124303087
Zr 9.158192507144454 7.772362036490571 7.6105138459964925
Zr 9.253407555427083 4.623952928932428 6.927536672654565
Zr 9.600679780724581 2.2751514912977644 9.084462778245504
Zr 4.005041294419585 6.8558060267174055 10.061703381494786
Zr 4.666257907740206 12.05028017072472 8.019013127849943
Zr 6.856536599120004 12.464824594542447 5.981960610679527
Zr 6.644385827070885 2.1891365932242284 10.13988800195947
Zr 6.624480031720879 9.904135148511765 7.085030723693626
Zr 3.5357459799246036 9.351190634299064 8.026595961248637
Zr 9.442493650284085 10.922814135938468 4.571767449848571
Zr 11.073371787082 6.25364918558736 4.9165133157848855
Zr 8.53842655733974 7.992808091816796 4.721188795261518
Zr 6.497494080150725 10.442640211494892 3.7215315636235196
Zr 9.707124222323632 2.2383758697869434 5.7010699037462516
Zr 7.328407324048474 1.9898187360603143 7.471388089123297
Zr 4.063202344035816 10.98514823846989 5.393219711314957
Zr 5.231518715505329 8.161942339607497 5.204190388212033
Zr 1.420361632557075 7.259127944340511 8.315381566453913
Zr 6.584943414567245 5.625047060499366 5.922597000192853
Zr 11.154414932905476 8.800675548377953 3.30369575641901
Zr 2.4522927159732593 4.516386741648321 8.5155149497356
Zr 8.654150871036135 4.735919757659111 3.835249962721812
Zr 3.9048131617150696 6.516118608378153 7.06868750372732
Zr 2.0688100189551584 8.443460898676893 5.461597184115092
Zr 6.89232967316452 2.763197470849568 4.888659404998415
Zr 5.368452302118316 4.167678198869034 8.333185268616239
Zr 8.666363207890802 9.495503199571099 2.087763423577838
Zr 6.503936544428739 7.392558948679205 2.5939899481256097
Zr 3.863891219989509 9.088533801709387 2.9570526248874964
Zr 9.614021601891194 6.788868907867405 2.15223743498269
Zr 1.4204470583908182 5.511317103051033 5.936177147343667
Zr 5.598890988698737 4.664066435910187 3.2277347744569225
Zr 3.288154588526955 6.235617603149139 3.799071424306568
Zr 3.9371571728552226 3.796766477107522 5.684169473641972
