47
Energy = -348.01816675 eV
Zr 1.8998195049017743 10.641550506107166 4.635906959470997
Zr 2.6676629978079833 8.177524653189323 2.9550710759615786
Zr 0.8847719676590603 8.236924105386171 5.398132952778885
Zr 4.355552769960715 10.76587733243821 3.313212240861861
Zr 2.099156545475192 9.923468918630798 7.521159278280659
Zr 4.2155131377410875 11.600080924361306 6.115108348368321
Zr 2.3228771833673307 5.799887050852652 5.190352559498931
Zr 5.864273357746601 8.349363563756757 2.9090832141713623
Zr 4.017565049516752 8.595181896419827 5.414059111732479
Zr 1.3527491000419485 6.964706426372671 7.914243356597194
Zr 4.661396024451823 5.903494150113245 3.3645214634869443
Zr 6.650883177452899 10.240818290274047 5.205112073024501
Zr 3.0356032712767282 8.592637993458576 9.852544641092912
Zr 2.753374783046425 4.297219830141717 7.729506214451179
Zr 4.373386200136776 6.853460714106552 7.7610632451477946
Zr 8.969270754640638 8.47974314575985 4.2954023638342465
Zr 7.779777580426562 5.652251968191824 3.149465742868383
Zr 5.398030336161577 9.779652281279292 8.279423704414741
Zr 6.668594333506646 6.963798319996627 5.564402318231347
Zr 9.525576495788346 11.015895581984836 5.738660818318032
Zr 5.000416972728584 4.432327863352423 5.804113577634897
Zr 3.053151560479923 5.744865805728865 10.157504991531585
Zr 7.648286443876672 11.577505604534485 7.843151610278769
Zr 5.531464082494703 4.3609236386587105 8.912382603800054
Zr 5.620977077495512 7.377321559063261 10.502723737704736
Zr 8.158721449253445 8.77764763859945 7.341375778829079
Zr 7.021060220967154 2.8327425227868437 4.33587835198594
Zr 10.473167293906966 10.376574875303739 8.452256175432206
Zr 7.97275769409294 9.619974071207341 10.231016651501232
Zr 11.554052021255051 8.970591554625381 5.8271529249814975
Zr 10.701265823198574 6.258402098681661 4.364500213876158
Zr 7.887295323157385 6.26928518846763 9.055078917051993
Zr 9.62610456672058 3.501451828139508 3.7189412123445424
Zr 6.4726963772366 2.2741706655711518 7.087101879662829
Zr 8.240538546523748 7.217525258348728 11.942876841326155
Zr 8.426052496098121 4.640263316653714 6.359204178000132
Zr 10.313899120709104 6.783574092261708 7.589974909208347
Zr 6.994710272726171 4.743996334160921 11.389165329414965
Zr 10.537853523566787 8.113491501829214 10.478734732428698
Zr 12.665128202783203 8.460845395720767 8.40223270489326
Zr 9.286742641017577 1.91851689651038 6.3175542977147
Zr 12.845510366437262 6.116951337938465 6.6361649836801515
Zr 11.493161587845972 3.777159986070715 5.635119164339955
Zr 8.364629009215825 3.0177217014980178 9.261111402270005
Zr 10.000649235076 5.066913291832728 10.911358558909301
Zr 11.022917328062793 3.7344097781479095 8.363402040617594
Zr 12.451700184041865 5.972638728604673 9.620570996352974
