49
Energy = -363.2125796 eV
Zr 12.344027564944104 5.5499174069046155 4.433072460417367
Zr 10.548737340644225 3.217766971276219 4.2880335352232715
Zr 10.995381695690972 5.131899291800907 2.0379356401084143
Zr 11.040528665644109 4.681804636511992 6.899017255629351
Zr 11.076702596070975 7.967642424423403 3.1128787998737493
Zr 8.234309855544558 3.9231808001812567 2.205795870322413
Zr 11.486244301761355 7.540151868308993 6.264956253467808
Zr 8.814993310533898 6.738717474167181 1.448029614096853
Zr 9.02485843846872 2.4093652463779645 6.8078325315170165
Zr 9.305981345045257 6.144670129941088 4.38721282764888
Zr 8.104247435513187 1.7715515544199585 4.083214781981506
Zr 6.235651154740454 1.5032664930526922 6.050643156538939
Zr 10.570176040741922 6.7226470966903555 9.405892674067521
Zr 5.496141139257263 2.99448843259522 3.4693921702043022
Zr 8.810196574685639 4.425141685953435 9.191021633826622
Zr 8.665579282416756 6.706706836402817 7.158824529689575
Zr 7.824873082580047 8.671085900665453 3.296791636919426
Zr 7.064505387692769 4.371936721428089 5.488712523560227
Zr 9.393740644247153 9.382127249442663 5.485551488995056
Zr 6.271894094978171 6.075687337477311 2.723014364123273
Zr 9.87329941262455 9.342241317457988 8.503929627271232
Zr 4.1769600560780935 3.5499252929686302 6.522030038740962
Zr 9.191402627491735 5.603831312835889 11.743314159236213
Zr 6.384848556449443 3.1118215408498395 8.399447481897935
Zr 8.7254320886197 11.78053055482099 7.111615742141305
Zr 4.126077674575815 5.527751884456543 4.508342848175572
Zr 4.8928317197114515 9.073056582091919 3.2984970671810387
Zr 7.01509664687796 9.486731416564332 7.491857176323901
Zr 9.53127163550543 8.573155329964056 11.781564945560438
Zr 6.0626060130303445 7.618857157916068 5.497950742996559
Zr 5.654401465065682 5.926490388012894 7.8760044169132275
Zr 7.122214868241241 6.995362133165625 12.882655061657081
Zr 7.5382906453944525 7.68730407257854 9.94045659780165
Zr 6.344504998837619 4.882937385303096 10.953573871712843
Zr 6.724431767903979 11.070232890306555 4.935280489107736
Zr 8.010635768046685 10.92082541053871 9.973640952181746
Zr 3.6765033901888233 4.66918874808883 9.429797648016173
Zr 2.7884726679087932 8.093634430024224 4.860697609787786
Zr 2.43076622623873 6.0743552088604 6.876285567781986
Zr 4.219183561301999 8.524742150644808 8.1620757655699
Zr 6.790921689983527 9.564538436198074 12.376199956573574
Zr 5.8213437361961295 12.093833901041915 7.707549486222993
Zr 3.874827945845007 10.621099660063008 5.708721542676614
Zr 4.675065772043154 7.4848256631887535 11.087610829865335
Zr 5.183153809252092 10.691237266572903 10.31962722044411
Zr 1.994273339623229 6.934992740647907 9.552992344608557
Zr 1.5686015510722233 9.104193407963454 7.394140289126768
Zr 3.0774274061414686 11.413083768427226 8.415982536837955
Zr 2.470688399590688 9.502994221363187 10.34522980042217
