42
Energy = -309.3888814 eV
Zr 6.509194484511589 10.643772879527866 2.7458095004193153
Zr 10.42645191607454 3.131481779162045 8.805677821906341
Zr 6.786805012177155 5.715746485759722 7.977751850779905
Zr 12.399363063055283 5.004203763381418 7.500073799328689
Zr 8.301392527164175 6.882515460105758 5.453886765652293
Zr 2.3945599074625354 8.841563536842173 4.816401427115092
Zr 3.093917853889225 7.40553334918747 2.3220666703020587
Zr 9.60025488178603 9.029465442113054 7.07828550283865
Zr 7.500911392607957 10.570871306707314 8.906698633946785
Zr 2.233839987211271 4.489405147628992 7.151253986290382
Zr 10.599163187362196 7.7450043588752 11.517011450810218
Zr 4.82350148454968 10.669668852575334 5.376678344394285
Zr 8.502729041548118 8.571313478572232 2.90245482232057
Zr 6.31533152720085 8.568883577897415 7.321412891989129
Zr 6.144503954351531 5.563030157511425 10.964914692089149
Zr 4.7514050163632495 5.201671073028204 2.7619143373443444
Zr 3.890294176534592 10.00220803604278 2.5858101799086914
Zr 8.36502690386011 7.808738882245468 9.652709326333124
Zr 5.740776408087888 8.06446832538478 4.094034177527496
Zr 9.165746888312233 4.966821215182069 11.293801408877723
Zr 3.512826713162617 9.127023610393708 7.616015964239649
Zr 7.497204038538824 3.2536550022425397 9.719489858760877
Zr 10.119584984051157 4.195568861728163 5.715423183290005
Zr 10.31663101854235 10.147353548891964 9.682448690600747
Zr 7.934336701978092 2.872698901096842 7.075053913759527
Zr 11.835655559665774 5.380770649129538 10.248212490908955
Zr 3.8777132302801443 3.4999301515238446 4.9874362875620015
Zr 4.987821204455035 3.731996098547621 7.736289656676354
Zr 4.294214686211779 6.358505244195937 5.993257913310024
Zr 11.229346920114665 6.942256662797772 5.734822169397802
Zr 3.8945519759626226 6.479570484926314 8.94695613661405
Zr 7.715584190665279 10.293301946423092 5.253231625727838
Zr 5.709261944633754 8.59353469003338 10.550376815356268
Zr 1.5900785719760961 7.172116826539375 7.078130106503666
Zr 9.698299018496574 5.801918719262835 8.159152219723849
Zr 8.327318228842577 9.881043477860791 11.68530065544979
Zr 6.663494821371562 4.469064332321086 4.9906913555445405
Zr 7.7272649516493646 7.275212799980576 12.519491825118918
Zr 7.653634133352061 5.94608170162566 2.6588865830142625
Zr 11.942613722177153 7.857139694261728 8.612869285840269
Zr 1.9454805902139336 5.737484049174781 4.397252643876122
Zr 5.822187684945775 8.000013490123164 1.2641558004507651
