46
Energy = -339.8590481 eV
Zr 3.7953615979824558 5.948028000250652 10.204023793390595
Zr 5.93458358911445 5.3200439869252865 12.049851984456359
Zr 4.913969057365086 8.294821741927567 11.148435437001632
Zr 2.829776164337302 8.21805033763244 8.846931873171357
Zr 3.6956922114922928 5.3095881908061004 4.793060958722749
Zr 2.771974683872912 5.325589570186577 7.571883074931389
Zr 5.202577416820467 3.7707846524934108 9.360808798083658
Zr 4.073846816887339 10.764617984222662 9.8150308202552
Zr 3.1699428137259362 7.9646747789328876 5.895578946869395
Zr 7.684077746329258 8.06788331707252 12.350227985233591
Zr 8.822197894651648 5.445640546780776 12.214249895678652
Zr 6.934698817002986 10.562921706966263 10.37361882405503
Zr 5.4153487271411915 6.233411898921609 7.227249903908708
Zr 3.3089280488585007 10.577961845616429 7.153297438224109
Zr 5.80947344482754 8.980805677334478 8.043091750010435
Zr 7.2840467321243905 6.346637548986303 9.749699180968422
Zr 5.039168173214236 3.3273059762317656 6.182363697092102
Zr 7.685852508581498 3.6966315895038426 7.749297353392473
Zr 5.9075845558788 4.1405440031129706 3.1194610143036394
Zr 7.865007512781557 3.4770067624402285 10.59513800357314
Zr 9.383828326598605 10.28902144714117 12.013234503032006
Zr 5.811465288505892 11.93721565740486 7.777664639608738
Zr 5.257746401437097 7.354668621396668 3.6832723603327775
Zr 7.289344723972065 5.306416312908043 5.172555440877781
Zr 7.926342839305794 8.458001137777975 5.096453984540845
Zr 10.627902426188454 7.550847021939735 11.601462498164494
Zr 7.515681315780513 2.3667072970252714 5.003591453015181
Zr 5.4542276596697485 10.142679311674762 5.22204856534506
Zr 9.27631675319817 8.848189006408763 9.266090433431296
Zr 11.744066129590438 10.111810354879506 10.61373313100337
Zr 10.24051666953403 5.231172026611799 9.4566230838003
Zr 9.041429784214124 6.541754304204176 7.14658403757195
Zr 7.905485543476816 6.78204461943549 2.575321539874787
Zr 9.548512849727832 11.87931416243657 9.601571133679698
Zr 8.32098075476773 10.655702006092431 7.081915524957262
Zr 10.031804359587344 3.731408600269965 5.823179066959318
Zr 12.068306003699659 7.704623664962319 8.894607579198503
Zr 8.949345283930645 3.9794827668437693 3.1057426888290474
Zr 6.835901400262959 9.531173229236009 2.469158582858946
Zr 10.347238560738148 6.280033974580479 4.238897139127439
Zr 11.483879473388402 10.5883107399727 7.871842373978199
Zr 7.881806952963561 11.48946320457916 4.105784379962015
Zr 11.877476089354474 5.796943031816862 6.727577583000891
Zr 11.059979434464836 8.553804615854784 6.054266658745175
Zr 10.40836364322766 11.256534286496565 5.015299103565465
Zr 9.742133601323879 9.362047588765375 2.992263418399418
