45
Energy = -332.92644502 eV
Zr 12.104446250956572 6.231983634006488 6.623922333771242
Zr 11.335859751978305 7.877394274510379 4.3708304342604265
Zr 9.816912868949007 2.366858396518734 5.950299251526714
Zr 11.964428874423628 9.10385917697347 6.938392852723481
Zr 9.707866012529262 5.188981327134258 4.916295147870892
Zr 8.996855205983804 1.6582799103788877 8.560764669439015
Zr 7.081927769463448 1.275111263641949 6.378471347625126
Zr 10.478163720428094 4.526463129240485 8.41876074498152
Zr 11.317935913402978 7.490609370275138 9.285160390264052
Zr 7.35558362355569 3.3172674535257833 4.299679730686909
Zr 9.91389854452494 10.306886836119272 5.331644285716429
Zr 9.41134226465331 7.600099680618905 6.615434359048154
Zr 8.408965769621537 8.233863670974369 3.6717496743798814
Zr 7.73874211096998 5.588028976891446 2.4979609944493824
Zr 10.010603790499486 5.792368967873942 11.28458428637225
Zr 6.961628362980718 6.116789321436233 5.276227616843137
Zr 6.0311855191614985 2.072297540076455 8.825749506591647
Zr 8.173127112444245 3.7106971689600616 10.42329540688228
Zr 9.486300223236091 10.06453028909842 8.46656244023933
Zr 7.763747950914556 4.053371777426316 7.277655563193309
Zr 4.913753523604114 3.760903051761083 6.374540696312246
Zr 8.302124697641204 6.479983802795393 9.053029023606921
Zr 5.7166953736799755 7.6661080552792455 1.872101088804327
Zr 6.545805256914263 10.405742744292134 3.2103396716042667
Zr 5.67522183443707 4.884430568473602 9.45139371991509
Zr 5.063559588404855 6.852699106063172 7.360015785522235
Zr 4.857070321534322 5.0983854437553315 3.310223179380594
Zr 6.762031058723123 8.892223811666485 9.169292819163104
Zr 6.6843456185201005 11.716283486436305 8.131897538007614
Zr 7.094158233238598 6.441696756151284 11.74814739590874
Zr 9.129782493751886 8.626924790074009 11.328186696368478
Zr 7.125218675054847 9.64411771684393 6.175584038795578
Zr 4.240081095289033 9.871475395798718 7.605361088598063
Zr 7.739308826051445 11.198051877029712 10.767017992253372
Zr 5.015948498834434 8.215248788528879 4.697476801119658
Zr 2.964230132142761 5.120485165779993 8.388304060163362
Zr 4.268328365374234 7.589358690136215 10.116946370884358
Zr 2.9180764370692702 7.159994115348399 2.837919436247855
Zr 3.744899302796808 9.834577965634526 2.6341308111481645
Zr 6.2799186044879045 9.13441558374057 12.120495454055249
Zr 4.843964135362846 10.797219073762156 10.326685308889672
Zr 2.7053584233352606 5.915484326002015 5.480913365511356
Zr 4.546957341540542 11.185325191668257 5.098340503963889
Zr 2.214948565368229 7.765737825933433 7.836528474901443
Zr 2.2508396806168958 8.960311556716684 5.144447505646057
