40
Energy = -294.01260506 eV
Zr 6.143462638728184 12.678317275551711 10.288773470002358
Zr 4.730172079313702 12.055242688989125 7.827942086871038
Zr 7.561742037545065 12.563299985671515 7.683647711371963
Zr 4.170644157395411 10.514290054788397 10.364015958344556
Zr 8.811658927324554 11.702977013117154 10.192376897314775
Zr 6.761229707328283 10.16778073451492 11.681263739318252
Zr 6.647599054169835 10.009092757746071 8.774176727112271
Zr 6.562098454626588 9.971505824863126 5.9752014724319915
Zr 4.268495356414803 8.725179148777224 4.506987742324493
Zr 3.743565526955037 9.350874244806715 7.709125500187893
Zr 9.465596825181436 10.308811137904513 7.667334621891524
Zr 6.96905378240587 9.15438757024918 3.1548781251797418
Zr 5.710233395307041 7.66079569923337 10.165422575394581
Zr 8.92455334641433 8.699609250486922 10.309828375735467
Zr 3.0470315936328443 6.7488421088840385 9.057255300010917
Zr 2.43390365476566 7.135997551326846 6.300487078769977
Zr 9.253224135918979 8.229227661620946 4.683078944937198
Zr 5.2097698977209115 7.2824799636598065 2.0838947347702117
Zr 8.356537355303303 7.689861431595726 7.634919786296828
Zr 6.5604805209857755 6.5301523347944705 4.686493799319631
Zr 5.315252831233918 7.029161487922435 7.19599955576069
Zr 4.914817837566493 4.54732927912485 9.73998401466833
Zr 8.088640187058045 5.510744347780614 9.923161867728718
Zr 3.418914003118359 4.454398196302044 7.055930894043673
Zr 10.724908113872646 6.2366626150957 8.949316676932984
Zr 3.7062640712297656 5.658191376608551 4.171022330640409
Zr 11.320277902316604 7.575946597025392 6.432193931931492
Zr 8.207500053673684 6.538014976969679 2.302824860765685
Zr 5.947450998535869 4.629972993935644 2.3855485719836795
Zr 9.144183572447549 5.465309103441263 6.283877288567117
Zr 6.708521461682102 4.550507493288145 7.431518139597568
Zr 7.2978604747150495 2.6634595527102847 9.534332675587539
Zr 5.1321613917033195 2.205216769249299 7.7999708957729315
Zr 5.479136289088052 3.2743020715182323 4.947414250021616
Zr 10.892461871463292 5.553142847663451 4.0673983344033475
Zr 12.05841326801713 4.829433823076513 6.80455665480572
Zr 8.274180294931751 3.7909334863194735 3.8492503892618655
Zr 9.920065974708482 3.3775298616147884 8.453887719648852
Zr 10.52340506867829 2.9331355853451844 5.484396492208861
Zr 7.933699732304975 2.0569260880911 6.529057396512611
