44
Energy = -324.86772021 eV
Zr 11.224703813869695 9.49374261288019 10.500755088051388
Zr 13.074678932236322 8.547874553015564 8.679125045334034
Zr 8.88885216005903 11.012452195645915 9.927182002298519
Zr 11.075634337403484 10.534277479099002 7.680466534508942
Zr 11.714497861031665 6.470116099094916 10.466383127201484
Zr 8.922625420335539 7.995372365193332 11.212037790034048
Zr 6.103531558075386 9.480708336798076 10.869968910584227
Zr 12.176631566787842 8.250671002580539 5.92060113896104
Zr 5.912524019784008 11.222237601042687 8.52844427770187
Zr 8.495545057683882 11.594117751225436 7.025033011790022
Zr 12.727731327494626 5.914997522404919 7.593267961911874
Zr 10.329183317718035 7.523775409064016 8.238899960382685
Zr 7.7964662511300755 5.871026827561112 8.03964536026456
Zr 10.316419144255974 5.863297394385347 5.694955000692335
Zr 9.049158646935215 5.127962899356577 10.688388469463037
Zr 10.43416367283614 4.340471579939246 8.467783779855033
Zr 6.445864115762747 6.429061231312152 10.686206498876185
Zr 7.873306584990545 8.973421315816516 8.247670797421828
Zr 8.366126272655142 3.404581818945637 6.077965079773328
Zr 9.370741250066382 9.1308799566267 5.43805962133656
Zr 7.443936848244391 6.759189647685538 5.27183264586021
Zr 6.748040232368399 3.3660339406424598 8.799378045064342
Zr 3.8800140508048364 2.673570514232722 7.9171992691119835
Zr 6.319489727927341 10.103388141956255 5.788695816904676
Zr 9.186426221034496 7.242282199665115 3.065972813782709
Zr 3.395911741671959 10.02289899147722 9.615954158075219
Zr 4.068397163303741 5.250514718569626 9.017392157760959
Zr 4.585417538710169 7.454004349425012 5.460833341962675
Zr 8.775475294945954 4.547857545573883 3.4814490325527356
Zr 3.7115036141687057 7.565126716491279 10.794595107366371
Zr 6.0752458390336175 1.6718966026768052 6.320923881046245
Zr 5.486457828142756 4.6161016192182025 6.318059060626541
Zr 5.268084707321346 8.092354605061768 8.314574886415057
Zr 6.615080672091059 8.894437071319013 3.080980061406903
Zr 2.432500612470507 4.923293555748441 6.390040175267235
Zr 3.6304776305538504 2.5375458613593302 5.087556208190011
Zr 3.9615578022904114 10.00070919636085 3.9520339093730814
Zr 3.2902390983750447 10.009282081571403 6.677083289114584
Zr 6.371054742380355 5.999738515271618 2.469953282493658
Zr 2.40586857037439 7.592416210615066 7.962373504241941
Zr 6.208258311848977 3.2524936978063077 3.7436803316547542
Zr 3.604904215957722 5.074497556415339 3.623618442974308
Zr 4.0172976977949135 7.707418226920634 2.4391268825351644
Zr 2.0156291865867724 7.695759715586034 4.6790421087178755
