41
Energy = -302.21423014 eV
Zr 6.6557750808170955 8.72245915694536 11.898823103850594
Zr 4.414316963689347 7.70078837404523 10.35602311692067
Zr 4.0425079674939495 4.8887450917635284 10.361183413200559
Zr 6.334615949607028 5.795513543253072 11.833911252128694
Zr 6.072987932690115 10.166719906237466 9.535497227270106
Zr 3.1712421512129096 9.602776549492676 8.262107709724711
Zr 2.9780461520649433 6.347481076918539 8.170822609845294
Zr 8.429000724211281 11.490532799005383 8.083750487045187
Zr 9.104135498317467 9.549159470394338 10.428666154476623
Zr 8.934767060314584 7.024626930057745 11.999329852029016
Zr 5.0639375673786375 8.189543788951744 6.852790822261887
Zr 6.298914826412274 3.3496944685068364 10.24004056499824
Zr 7.460475134854787 7.333957958780725 9.474888080375454
Zr 6.013257698406022 5.435415038878623 7.936539027512337
Zr 5.511421825224582 11.304325435728797 7.048678906319914
Zr 2.1750977328129313 7.973604940293569 5.904513112571081
Zr 8.756138363693983 4.552944600578079 10.264477157918236
Zr 3.5001559138467546 10.287946096903493 5.319752921672636
Zr 4.47451906798339 3.187992007871695 7.989024524020705
Zr 7.945422584119115 9.052339200102878 6.857459825827594
Zr 10.55825899392304 6.880061589124589 9.741443824275853
Zr 10.807646428074454 9.224241013803896 8.008908905149893
Zr 7.6844881146027 11.518723823731827 5.184080376981214
Zr 10.172369930834112 10.721494899727382 5.780957852257107
Zr 6.02298052328733 9.61661555814887 3.9343395999825543
Zr 4.121392229557902 7.863824012026265 3.7135326331815106
Zr 3.85011484281624 5.425722457198617 5.713849102711709
Zr 7.697328062276089 2.8869554545622584 7.8344940718171445
Zr 9.071831346191972 6.214551448375088 6.835465208216399
Zr 8.693382255767387 8.943574069542223 3.772118810241314
Zr 12.055705142428783 6.655414290751263 7.3765863236591365
Zr 6.770706777620534 6.521561302845551 4.8218716004872695
Zr 10.611971668029106 4.143136325916141 7.984343939090605
Zr 11.033996068703832 8.001946338534557 5.109096495258907
Zr 6.873687004471699 7.09445196904795 2.083912078576582
Zr 6.041879973701028 3.5157429434284397 5.385280192326019
Zr 4.835534096791117 5.1389222864431545 3.017898217254264
Zr 8.964774763915777 3.6253221870627015 5.200548538815292
Zr 9.511976457428487 6.01811400955033 3.2911305877639294
Zr 11.342003045316174 5.047219276315916 5.283110448651261
Zr 7.396177261541245 4.293818061922189 2.8437896639709437
