45
Energy = -332.66288911 eV
Zr 11.570518494273218 5.219934363403565 6.713982884786724
Zr 10.75550033790521 7.684878356941599 8.102806753011372
Zr 10.743986831189385 10.303400437528008 9.534210582009834
Zr 10.289902106443874 2.57630237767207 7.421985308908453
Zr 10.244262546051358 4.768507305055413 9.369529083850622
Zr 10.290928160535403 10.444707138909186 6.796436230660509
Zr 10.839745274622413 3.352056472798671 4.7110114721384155
Zr 10.392997331987278 6.112219940419371 3.9349488941992345
Zr 9.032794776630256 7.882717599798174 5.9486570640725125
Zr 9.822135550076856 7.72499086318797 10.840390084283797
Zr 7.85938848653542 6.469559480335035 8.61839384705647
Zr 8.204541309864434 9.206432021825794 3.4887677854707797
Zr 8.314069232332269 1.9301165878454072 5.267045306926324
Zr 8.595720957612382 10.378788921435532 11.278207818661972
Zr 8.399268407551695 12.03981498066226 8.761204072424178
Zr 8.468438915052147 6.713628897528465 1.780918499603317
Zr 8.6501793540221 3.883812771961251 2.883025716861403
Zr 8.618865622353113 4.647337755317489 6.291830045174468
Zr 7.9795601716437545 9.282510433820493 8.49255014334347
Zr 7.784880542668205 11.084539257065462 5.811837392473096
Zr 7.589033484396623 3.3942398470498834 9.04182623563898
Zr 8.121099786712014 5.345390337489244 11.34168994049655
Zr 5.863641257588669 10.613675986724699 10.323490513215024
Zr 7.144519813152856 6.1914493627766305 4.255975269735122
Zr 5.593866202885179 5.3171187683150665 6.994081561581651
Zr 6.85120340837678 8.012216165968262 11.404225299897156
Zr 5.528626107090215 11.236755348975823 7.35504909778655
Zr 5.845408774537977 3.262699746042031 4.212368645350061
Zr 5.3987238679263285 5.456669382935021 10.58655319792031
Zr 5.842742273772623 2.1372109590579957 6.832090661565373
Zr 4.588608015524127 3.214329320300933 8.982517745367172
Zr 5.4143705457367295 10.596595263580433 4.023341544540646
Zr 6.110675991528901 5.011362070845619 1.7586802950009317
Zr 5.927640829896153 8.388367177533775 5.70947815247287
Zr 5.806882247824747 8.013305088027172 2.2150517329071486
Zr 4.906015537754863 8.205670341803197 8.441457739139603
Zr 3.2616808082380264 10.603190637454516 9.176802780635834
Zr 3.3930595871982785 3.745349720018121 6.23437857251971
Zr 3.7470355379426326 8.107396718150735 10.921826471013041
Zr 3.157263760703689 9.900477638602387 6.266898525065405
Zr 4.104546439098657 5.671505070480083 3.7460262301256173
Zr 3.4602777366126296 8.411116355933261 3.8098967710554077
Zr 2.986566496606144 5.6236431999673835 8.87803576102614
Zr 2.7971956952188344 6.884027378395663 6.164739537739364
Zr 1.9019514777510658 8.304088898967445 8.502879825232343
