42
Energy = -309.3562566 eV
Zr 11.513100243637162 8.468932237954219 6.902910259573161
Zr 11.81243605996373 5.328991072920473 4.50164737776562
Zr 10.791143014094379 3.004369223184174 5.99977516592587
Zr 10.437174691582758 5.728869772150632 7.210507572209772
Zr 10.133936531908361 7.420750533211239 9.545947472675019
Zr 9.79083916695422 4.404639670757016 9.778786848732468
Zr 10.531612885693624 3.0626207726469357 3.118108813451581
Zr 10.226782363689072 10.306548071220162 8.613205505780476
Zr 10.150585226447214 7.8071517023448065 4.406361282324194
Zr 9.70143178418022 10.656832905894042 5.66419868647982
Zr 8.318932843831057 2.0478833907312057 4.705866173536775
Zr 8.164142424081046 3.349797719330512 7.387284406908768
Zr 10.001369546633606 5.748815389106541 2.1762601232210184
Zr 8.833211563329739 5.029349482258761 4.836059204575102
Zr 7.933396580616249 6.105601273763295 11.49614415014228
Zr 8.538832655569518 8.419334377584137 7.038497479632057
Zr 7.579059522970784 9.045715757276508 9.887314871306684
Zr 7.566661706099037 5.983676914502673 8.623080419972895
Zr 7.183454480683052 3.450019471265884 10.243132390686657
Zr 7.876986720025858 11.4965012189645 7.960884422678671
Zr 7.851556506414441 3.6665718082175647 2.3305265659940804
Zr 5.616098074552673 7.802726728990165 11.810807967261498
Zr 7.041137890949585 6.339938872470129 2.6818447217030372
Zr 5.018723635551526 5.086751514243887 11.088242506594323
Zr 5.536904275551273 9.118890697405673 6.933207701366904
Zr 5.180212297340393 3.801372270655495 8.117195542732581
Zr 7.4970162950550705 8.908184021666314 4.072139532401248
Zr 5.053089338871592 11.760964800341203 8.106800925459796
Zr 6.380244473848231 6.450209536637184 5.904438633544241
Zr 5.931740964732145 4.011977100185078 4.694918980424193
Zr 6.542547873850329 11.484932888849482 5.419176464336575
Zr 4.726967917209096 9.971916456784657 10.398275032053048
Zr 4.7586100231908075 7.158536760453166 8.834293458605726
Zr 4.790757479308349 9.579412361357596 3.881856557050728
Zr 2.8184340403082357 7.531740260168871 10.82574991504211
Zr 4.3590513423276604 6.707517516493051 3.8422157642408608
Zr 2.780345480810811 4.896124676163129 9.289088515355909
Zr 3.515016696912662 11.142011517326214 5.878621081757866
Zr 3.419478235135486 5.378437428564142 6.3744759402681535
Zr 2.7690399538747097 8.27879178839513 5.723573882659585
Zr 2.705106713349116 9.783435472372641 8.454550991020627
Zr 1.7072189131173794 7.087997396806023 8.080411247658315
