46
Energy = -339.09543306 eV
Zr 11.410163163996343 9.686992432902821 8.422378178854782
Zr 11.991434303159092 6.735368957600725 8.83377563313972
Zr 8.716046822369133 10.393878951188423 10.370100856960871
Zr 10.638900027606367 8.141081495886137 11.014667440914758
Zr 11.936100747301843 7.770102306801233 6.077051680594245
Zr 10.681303756855193 10.430282976129687 5.801817481799021
Zr 10.637943541443198 8.846501901504482 3.4075774643386203
Zr 8.599155337410666 9.085295937253111 12.945935519262992
Zr 8.021374031443035 10.856214515191999 4.595182427298355
Zr 9.039736252476239 6.153864829243533 12.82630939256602
Zr 5.557047877494269 11.553583199555877 9.172307865364383
Zr 8.345981401249372 10.689584247991807 7.539088775190074
Zr 9.46919714061057 5.055824166109628 9.96132838260936
Zr 9.320311871316685 7.760102786556972 8.199878123145156
Zr 10.791993264575325 5.6981518176427155 4.057165970210282
Zr 7.184331333172617 8.97982679634472 2.7726467833970965
Zr 5.890096264826518 11.838849074649007 6.419520047317498
Zr 10.533788178168912 5.113344011891387 6.8798952814494925
Zr 5.961772792785864 9.774958659777562 11.68505881365111
Zr 8.82117957573579 7.936657213696002 5.308390081257343
Zr 7.695380513230137 7.478973972164356 10.651053858537772
Zr 9.02666865745866 6.77753125636843 2.2095217481304172
Zr 6.362698562309383 7.241464133058225 13.289503953679977
Zr 7.0631956406324425 5.682341265867967 8.28744613332128
Zr 6.122817292477511 8.793713318135657 8.64835382750688
Zr 7.899101982503076 5.225467431542464 5.319880044913185
Zr 8.432541006276363 4.088735276818569 2.6692853965057823
Zr 6.543662532991512 4.840963670062821 11.569509047630373
Zr 3.561307736445842 9.550530041492655 9.984526429368143
Zr 4.310663768240199 8.206168924930465 2.897687146804653
Zr 4.524826306853179 6.98782922561747 11.008579140628026
Zr 8.957336854159811 2.9354669927276063 7.775264367266745
Zr 5.978742162498413 8.783269145886923 5.691080053764953
Zr 3.538479924306884 10.258353835206806 7.2087015286255856
Zr 5.269910757690533 6.041495896490166 5.884825749176274
Zr 6.258864962908444 6.129437730967997 2.703199287543871
Zr 6.961610100647166 2.9502890853476 9.598626515165607
Zr 9.049439056840354 2.7217604658599064 5.02077810110839
Zr 4.434932279592513 10.634246270496154 4.274123105582385
Zr 3.3949561284378755 7.246623748038941 8.11438303080193
Zr 4.455764028011947 4.546453402813518 9.127597096141397
Zr 3.4290320721422414 5.639467261692511 3.5331850770590263
Zr 6.050004293226694 3.1184568175192746 6.814593541027657
Zr 2.7926113134798234 7.925074613691595 5.321648195187714
Zr 5.642154155594287 3.607695916663478 4.027079249437917
Zr 2.966146757362206 4.741192874236815 6.297611699366509
