49
Energy = -361.37173277 eV
Zr 11.89500980844188 11.07672112911763 6.206361751748148
Zr 12.489170701196144 7.139928038295154 6.82579627385724
Zr 11.857755026925624 6.255098545715172 4.372382528588489
Zr 10.29712924086529 13.516709402330484 6.322558418955499
Zr 11.137761408390444 6.050948637894068 9.27562557650409
Zr 10.31244569442601 8.79817965047511 5.168901142309431
Zr 11.41057408883346 4.30152567288791 6.430909842041711
Zr 10.975353505716408 8.851311379868404 8.3521081502098
Zr 9.315892213026022 11.503188895231968 4.70021015208286
Zr 9.658937009307424 11.309546418004741 7.957600198318043
Zr 10.260766627959566 7.643804124201682 11.935258114862307
Zr 10.002610060727719 3.5336218605574423 8.86656826682271
Zr 10.039882951450508 7.080942390311123 2.5773906774657784
Zr 9.533806947218332 4.606766486771308 3.959397186599228
Zr 10.276329110629835 10.375417019347472 10.79468764911238
Zr 9.445487648159995 6.467870328407403 6.756233444104217
Zr 8.344756127717403 9.169937156393104 2.5616734395449323
Zr 7.32843557647469 7.12312585229095 4.692403781131651
Zr 7.573123277950271 9.353621853654168 6.762452067691297
Zr 7.399994098526899 12.518084095802093 6.6336611335695705
Zr 9.295615439938766 4.793586416705467 11.353618695308839
Zr 8.247629665880323 9.675237471317917 12.39308325781803
Zr 8.334345225340098 3.6165758917297324 6.560576585540072
Zr 8.390048760125266 8.217658264462834 9.761674429229299
Zr 6.461080718748712 10.732108512733333 4.243076022367186
Zr 7.364225843644927 6.223424398499978 1.9960773182037184
Zr 5.589644522226379 8.576021093831057 2.547913146510657
Zr 7.403180917848629 6.8671740744171474 12.451386677883875
Zr 6.57779149251554 4.062997540089071 4.322720466020655
Zr 5.32827921935566 5.617268116397336 6.673617513370372
Zr 7.351187788458851 5.434091732789389 9.103496354679562
Zr 7.486285239184414 2.5789190634021177 9.558715967341568
Zr 4.661213398372988 6.13338688566203 3.6953310606978094
Zr 5.519389188234434 9.149047499001918 11.594218174720083
Zr 7.065699506992332 10.870918272147893 9.486413452458429
Zr 5.3643050595470765 8.23156622559852 8.609889190801738
Zr 4.892835616021412 10.893908942635154 6.929152278705567
Zr 4.4959274987980535 8.559369189750912 5.379534577440802
Zr 6.538689525918688 4.113437638801836 11.765899011718336
Zr 5.5355213627308 2.579070283712638 6.914739821984666
Zr 3.7291498038797006 3.6376358688782346 4.801668666095211
Zr 4.699389157753329 6.302111730520763 11.216163621573669
Zr 2.4798572387848687 6.247230691702353 5.8337038721901004
Zr 2.878982336008202 8.502689406621183 10.493824711495506
Zr 4.6898202281297685 3.833572263285911 9.521470824507821
Zr 2.5733530380136624 9.008639882495071 7.695855268321956
Zr 4.098753293785814 10.841846610359717 9.60063457091688
Zr 2.8028858992582193 6.192603327268183 8.80312568708604
Zr 2.8518006007024774 3.744039546571828 7.343622884833864
