47
Energy = -345.24963881 eV
Zr 2.0567993509842024 5.956823322271248 9.438104795608867
Zr 3.0571266212742603 8.436551267668298 10.548834565880599
Zr 4.1246817345353515 5.87094602223992 11.302187496875503
Zr 2.26177113823451 8.443663421263143 7.601999936766174
Zr 6.025670682075157 8.294175400824166 11.067422093683053
Zr 2.4305615406478602 5.498521827706944 6.793599953866713
Zr 4.666870364680078 10.124308249903413 8.787916388918426
Zr 1.8262139267962445 9.659001030509161 4.693772813476422
Zr 4.382964711361132 4.094206127413496 8.612341665686987
Zr 6.73592591328684 5.209401736014427 10.768322104990878
Zr 8.53961855589877 7.497848331389371 12.443381170704292
Zr 2.7492791334050106 6.867596708735052 4.1550161793716365
Zr 2.996544903799615 11.29999369660751 6.740400206092804
Zr 4.874968640844216 7.0169669095949585 8.575020054412608
Zr 7.194702115064309 9.458155151789711 7.820838302084797
Zr 7.080543353402349 4.974984141114429 7.489536203437096
Zr 9.86922436392379 5.247114664662227 11.54142195176541
Zr 4.9417545317053735 5.42746852986558 5.6385804191981865
Zr 4.517306117385378 8.795121276296525 5.75679723472933
Zr 5.980178869248054 11.555004086305296 6.275004948966959
Zr 10.00021293124218 9.999176141464888 12.57085918419456
Zr 3.866826357478099 9.073848925044818 2.705665989371745
Zr 8.459087226651356 6.918513016975085 9.4402692555974
Zr 4.107939803629709 11.441703519663413 4.119963874081276
Zr 6.605027725685716 9.841110594076952 3.7313706235807818
Zr 5.9011275797866745 2.8350004227605816 5.715149485059128
Zr 7.406067035831895 7.52678211739743 5.787567719018979
Zr 9.372023870508347 11.538678471422733 7.985576820119759
Zr 8.576475474083706 9.93619637981872 10.374538408831702
Zr 5.740205662592544 7.08073622801162 3.330915822071462
Zr 11.152776889794486 7.86986299047093 10.917282915620525
Zr 9.12279366525193 3.658235193734799 9.344793608591644
Zr 8.70480524317261 2.618099064554765 6.622308981373085
Zr 10.022654373270093 8.50676574057177 7.674659721154868
Zr 9.250243490114219 10.237428630765018 5.331703732552664
Zr 8.021731634533076 4.728992472982418 4.407090105107332
Zr 9.158751699264478 7.7231990499054035 3.6731486240119025
Zr 9.893696489546425 5.629403599449751 6.476014324298322
Zr 11.49289221270106 10.417525931907514 9.666171256060592
Zr 12.8427615748414 8.044952622217238 8.126860740535326
Zr 11.864366791764981 10.573983237014584 6.811130120899442
Zr 11.747987632597514 8.233604261087455 5.098419192609469
Zr 11.091494104923925 5.74988912890565 3.647200616950641
Zr 11.707385663481938 5.470149232398183 9.259302275041751
Zr 11.435333819826218 3.1944166937005276 7.605348514919312
Zr 10.86431280502579 3.36118468631559 4.838201887928556
Zr 12.731898510686541 5.490836275466267 6.23652009969253
