42
Energy = -309.86334439 eV
Zr 2.735712155801883 10.001632320194856 5.547475087587675
Zr 2.0872520998886435 7.1569501255851105 6.2679386054995945
Zr 2.2211956725743063 9.144872890360247 8.326426151743652
Zr 3.920115964105618 7.696546531462832 3.9967158268115064
Zr 4.16304222050816 11.17566184072667 7.841338548530099
Zr 5.729241257638641 10.686286552233689 5.338239974142154
Zr 3.411157925888722 6.533039907122465 9.071902892739056
Zr 2.7907168266282154 3.8232557250488766 7.91573630738851
Zr 4.378786962778336 5.344516053377131 5.549429051378559
Zr 4.77045884605302 8.319207146857595 6.9228647897734055
Zr 4.82760971000362 8.965393335796248 9.978430299343698
Zr 6.309853056496031 5.912863748499852 2.941065619630447
Zr 7.80394530334473 12.356603593367362 6.435470444613055
Zr 6.294610959989403 8.968638290172855 3.0789171401944957
Zr 4.593396937552235 2.3733564461074668 6.2506394164452646
Zr 7.734179409399584 8.584320790489315 10.90123492164917
Zr 4.002218042343353 4.0557142085129305 10.579500860546343
Zr 4.782672840888549 1.8796015178620973 9.06916713999771
Zr 5.630392575503116 4.583268297439543 8.060154129321216
Zr 6.955009342401738 10.279283871620404 8.426521367656601
Zr 7.103469677098784 6.963813636623246 5.380948591555686
Zr 5.919149555147617 6.126649759161664 11.147637625030779
Zr 6.949661572635998 7.204978001566797 8.5432981102641
Zr 6.817632242175837 3.455754314954453 4.862507681473287
Zr 8.409633002034832 11.008888649004145 3.5933441827093864
Zr 9.783541912037828 11.278852412656846 8.304813600121193
Zr 8.63704467010319 9.466480304751038 6.050396237571306
Zr 8.859999650651813 7.900851399572723 3.041973262243993
Zr 7.2847056812108555 1.865891496961154 7.654528316545003
Zr 10.464839097471655 11.889714204791517 5.5173243398472405
Zr 8.591577592278794 4.946665915306924 7.17397453908445
Zr 9.712736913196437 8.258377119633174 8.727365588822092
Zr 7.101584992746566 3.346241198649782 10.322705231020679
Zr 8.881003426468897 5.735905097545609 10.476961786429332
Zr 9.23108368067085 4.990510873500018 4.122569338420767
Zr 11.002363663675625 9.49273083554165 4.087669733922391
Zr 9.337619639384641 2.4127198664076643 5.7497934358513
Zr 10.517998884167271 7.042234699042062 5.869187021296993
Zr 11.67215604689656 9.639770904611295 6.874310115018973
Zr 9.89567353874773 3.0878694778447415 8.818631606597895
Zr 11.19002541491344 5.791900926077873 8.589343680489263
Zr 11.324572914494599 4.188073280586983 6.31545235149751
