44
Energy = -321.29954224 eV
Zr 6.812286772847098 4.959729749298993 13.57200931103364
Zr 5.890951116920757 7.255636830726562 12.313079520664225
Zr 8.917287902305834 6.925466154743833 12.43710717257015
Zr 5.418544735597573 9.530941233363425 9.875359676370294
Zr 5.146719670350965 4.617541527317296 11.210931655983996
Zr 7.6221219214490645 9.421257704912813 11.9064742622428
Zr 7.988420928472449 4.562100365284976 11.101069119140766
Zr 4.1012443113854395 7.048213212873496 9.920523789793092
Zr 3.1830550290338824 9.553542551026098 8.132950475872965
Zr 10.125880392328359 8.93233707012729 10.38481900715805
Zr 7.4434844003569625 7.316753532288474 9.505472663679843
Zr 3.3315708538612845 4.525710644183057 8.40953288933717
Zr 6.627071097040128 9.297649875742463 6.5568516536270804
Zr 1.8743812284054144 6.833528454927193 8.03791027489821
Zr 6.410846884347047 4.554750970516132 8.461383796686263
Zr 7.98417138731304 10.468823958775678 9.191782484890462
Zr 10.227147272247619 6.106015145980228 9.77170341723089
Zr 2.182052553838325 8.255843095303986 5.721186177034457
Zr 3.8901838325924247 10.497046096017698 5.443928693152366
Zr 4.785336270623622 6.87939434709979 6.998162235791851
Zr 11.233656239392683 10.989002698673122 8.587228715763956
Zr 5.348049459775362 11.678976468119757 7.860770506348988
Zr 8.908225258343377 11.647534771055158 6.81870939045766
Zr 13.695680079460065 10.10026557569533 7.295310031828887
Zr 9.678864223874406 8.58681003451879 7.3474778477900955
Zr 4.676123052740799 3.5077215744208803 6.319520064705443
Zr 8.476178468659505 6.024962148315998 6.304929888644646
Zr 6.397025637514026 12.064487744081454 5.2626135635503095
Zr 2.7395676791810453 5.433486838336069 5.4302450735380035
Zr 8.64167316136326 10.373217560951645 4.35432208120379
Zr 9.31722381492437 3.843100077764896 8.230232660388852
Zr 12.428755888173852 8.160862780374021 8.629570691070485
Zr 4.28468883101535 7.792250894003861 3.9274379954139853
Zr 7.3256288219342975 7.646900342595997 3.7520039211851657
Zr 11.607868517870047 5.526123657795962 7.241495947794694
Zr 7.507807111720715 3.1972779435432748 5.795866969250904
Zr 11.433129200085784 10.373788294138098 5.612007454442775
Zr 5.789408088183343 5.240171990228367 4.404481130126236
Zr 10.210168344996127 7.88610332804762 4.223813097701277
Zr 5.927660298785963 10.038729682583726 3.4204865582248627
Zr 8.732520740590866 4.8654181022084595 3.5690074509742455
Zr 12.72066196709919 7.712958330013847 5.656974822428742
Zr 10.32752369624338 3.413943646038558 5.630645516615642
Zr 11.50137511729455 5.368353663990149 4.29443956623665
