45
Energy = -332.27118083 eV
Zr 4.770985267252499 7.79629679401895 12.078282613936386
Zr 6.653794361142293 9.359666037036945 10.719360144699086
Zr 7.65125517285054 7.299672554642763 12.97768145515507
Zr 5.465517672445696 5.220635875719807 13.111535493448429
Zr 4.591599921008817 11.703882530238612 5.655212373032118
Zr 9.372683117333093 8.585913404916637 10.645786375885757
Zr 5.742553550554754 10.170409395202432 7.7995163064332695
Zr 8.735185894260177 10.672576210252972 8.344867509484798
Zr 4.382259469845405 7.689186618498247 9.08591531623292
Zr 3.708493537002351 5.408182320945865 10.925504015893356
Zr 7.447708154172501 11.263152919603408 5.411629012996
Zr 2.9483942150418243 9.272373920092736 6.663172621613062
Zr 6.771590368470224 6.136206104369487 10.441832927531316
Zr 7.753307177887664 7.947828168461647 8.291546034058934
Zr 10.337036091838822 11.061151408571346 6.060722490206605
Zr 9.857119877998231 5.949917790316534 11.40944703057088
Zr 5.624940039313631 11.071956903447521 2.929276181659466
Zr 2.909911825785851 10.317121780119816 3.844799610508225
Zr 7.99275486191043 4.27399935918633 12.587917029018303
Zr 2.7010747622582 6.243305892511017 6.869857739757971
Zr 5.902675544145838 3.216368608932202 10.825322144356567
Zr 10.973299266514235 8.717471812608855 7.829236204466721
Zr 2.657117958969037 7.525171208588614 4.2077486050510045
Zr 4.421001909547672 4.26759420001813 8.439822750715924
Zr 5.3989661490085705 8.940062696532355 4.900269950839917
Zr 5.39251166097091 6.698287514499398 6.5396059124980415
Zr 9.566136438466986 10.210791641906154 3.416320757351997
Zr 8.733389902172311 8.497560782691606 5.6916151105395665
Zr 11.689768849823711 8.85033827469787 4.969310931975002
Zr 7.343930865856723 4.8825696981491795 7.6982342345968835
Zr 10.05411675052801 5.933337968612334 8.601537535497819
Zr 7.376434990879299 8.36695563259278 2.7956796902399255
Zr 4.44144792005808 8.570080708422257 2.0707630308485916
Zr 8.849588236856993 3.468534724181861 9.971943127703117
Zr 7.737210917354295 5.682122596339138 4.814542075674833
Zr 6.751308936424654 2.2233982724992893 7.9520730304474165
Zr 5.070514101056543 3.774878656308136 5.638168233659244
Zr 10.798927648013063 6.128839283952724 5.8017846366036965
Zr 5.143543743425572 6.004329766185163 3.379325272732462
Zr 10.035388747672831 7.10304658791009 3.1935434104779987
Zr 9.76609138621359 3.418098786503775 6.806291584000332
Zr 7.772643295274625 5.632881212323433 1.8160154715143493
Zr 7.700370600278236 2.3504483620231134 5.259590922881384
Zr 6.6663733708221615 3.424086433111158 3.0470217312960775
Zr 9.66747366871874 3.9277511395741196 3.661975369130037
