41
Energy = -301.53260195 eV
Zr 3.4577208944860507 8.67801972603939 10.537871018752021
Zr 2.1764897918346375 7.833503513816957 8.055220059638993
Zr 2.737342390583474 9.76248567827454 5.806586382136257
Zr 3.0584826967177254 5.658008022338272 10.347859840159368
Zr 2.3221603014692516 6.794921995340886 5.035813485577188
Zr 5.1920645017836256 7.118544630638022 11.999436733205203
Zr 4.318242199737664 8.895251383301373 3.421556485909884
Zr 6.401643298434917 9.487942205900948 10.538535039784714
Zr 4.364152697580015 10.136598198440016 8.325835039365202
Zr 5.341856087827025 6.687639431356654 9.04036973928067
Zr 2.6104953462465317 5.119541385950343 7.453625525314125
Zr 5.549492355890385 10.812528564724921 5.671981009660422
Zr 4.610367186066836 7.533166173599565 6.198566690980961
Zr 4.783947950261042 3.6000929682872735 8.480858262279758
Zr 5.751970871291372 4.5769426470391315 11.20962356162838
Zr 4.693268350238483 6.1280694029739236 3.2534367311061048
Zr 7.083210371098733 11.381941324057998 8.1866635069303
Zr 7.9492900411742795 6.821352434370432 10.651676791967065
Zr 6.996900487210444 7.912815526377155 4.6427299551086945
Zr 7.056557701279535 8.569654886148186 7.682730375843836
Zr 4.477091956512058 4.276393289699642 5.459707104002144
Zr 7.635525580174134 3.889224860721149 9.290237083069524
Zr 6.883263871651804 10.44786096573969 3.1629273183878053
Zr 8.670657800570387 10.475192598660058 5.7341734937327
Zr 10.13570010693587 4.609343783769947 10.569341492308572
Zr 9.392834302937171 7.538164203852203 5.933882799527249
Zr 9.438161220099701 9.363397439593333 8.886681165626156
Zr 7.013125194561287 5.456636717136194 6.7801711236932345
Zr 7.074313469189095 7.510958183282595 1.963287841103603
Zr 9.55909478880215 6.323547511957128 8.273647286387794
Zr 9.356333534693892 9.185909942981068 3.0126986446002393
Zr 11.055119415187507 7.393563942928632 10.514829459867254
Zr 7.168123757422095 4.742821081146806 3.6928995005727274
Zr 7.268809352030747 2.8153470706936785 6.3622472897921245
Zr 10.24426038603824 3.461165548711478 7.710846190869541
Zr 11.528579165646143 8.53415107378672 4.70638367147967
Zr 9.760522152779311 6.3742653624164936 3.1329130010472968
Zr 12.34406490503356 5.375759146813481 8.83264792504179
Zr 11.97810339992184 8.100649079395893 7.7155344919102395
Zr 11.82605025200644 5.673171988988619 5.987072174718092
Zr 9.565320297353407 4.195945710053693 5.038774903390448
