44
Energy = -325.08203883 eV
Zr 7.651620420038231 8.184458852553439 11.801740818526365
Zr 10.014189759165046 6.370197161078988 11.511870582132307
Zr 7.389520381784027 5.2275381133566725 10.803717167419487
Zr 10.062498661311217 4.1407454103237615 9.57395326616739
Zr 4.886683596754984 6.969622304525916 10.977285494200544
Zr 4.755693558972499 4.138716468417022 10.23556890724133
Zr 11.777637962144048 6.815515789851208 9.29994609803423
Zr 5.293629778798241 9.895412706327877 11.137821931680323
Zr 7.156488785091427 2.9491581754055867 9.009681417210736
Zr 10.1201206558371 9.032658735022423 10.543998086337872
Zr 7.896862862146448 10.982185292396425 10.196372684340892
Zr 6.829152020874087 8.753108331238138 8.976520781763602
Zr 11.406985516115984 4.8585999628100724 7.186085542174262
Zr 9.03849141231691 6.810947906988603 8.65525024980651
Zr 2.9069877441336573 5.722280492325582 8.620615385420935
Zr 9.588674802716223 2.5446978052572997 6.646097031104997
Zr 3.6185178780648686 8.725039912868311 8.937920875251644
Zr 4.4793906663109055 3.1502360902366635 7.559726046454333
Zr 5.706127562990607 6.106289403053046 8.158190064728501
Zr 6.726212145061931 2.025948352101517 6.295934543300171
Zr 8.189153091811455 4.783914783958644 6.757096956982633
Zr 11.263752902310223 7.578203273374985 6.242180564315661
Zr 2.7090572897318426 4.669936562824345 5.9321113838271
Zr 5.180148503132821 11.414966110957376 8.651504644969101
Zr 9.705099376563895 9.583621938509037 7.785508972076201
Zr 3.035912970056898 10.463767842498601 6.769235416880356
Zr 10.345599523444669 5.000585515468881 4.590182218076465
Zr 3.382921418930081 7.55491387598334 5.952770596021228
Zr 5.840812507535985 9.227626112462717 6.278886540308692
Zr 5.757496645510832 5.461176930222288 5.23229056198181
Zr 8.297916352261 7.680947430619707 5.510377850992337
Zr 4.618331580189856 2.9264237701036886 4.40835581180807
Zr 7.714991230452106 11.610613431358633 6.992426734253235
Zr 7.753097187926335 3.1544043002562283 3.9427196901421726
Zr 9.709764817182165 10.214157407467154 4.863690096079992
Zr 5.1146911928833045 12.142685953104898 5.819949808941995
Zr 10.564012589816627 7.680738414909773 3.452886113322461
Zr 3.38620947238304 5.668783019681351 3.473052371926005
Zr 8.18075488095023 5.918490304432531 2.992489055272825
Zr 3.9317340294507477 10.014782248943666 4.1476135085057
Zr 5.626331519455113 7.811497945173937 3.391782476552382
Zr 6.8676477121661 10.89004068197176 3.978812510074068
Zr 5.714044686328022 4.775475308874075 2.3138870692459026
Zr 8.276721549134583 8.861119745508187 2.5803784805630525
