49
Energy = -362.51710036 eV
Zr 12.1290575003089 5.5193856696146115 8.151163226430686
Zr 11.244794270563137 6.427208402234946 5.339732409166661
Zr 10.845115283477632 3.4440280667266236 6.481772135376138
Zr 11.078880524455524 8.365424669084883 7.694292973465059
Zr 10.370289343409024 4.169889321470743 3.761670696567027
Zr 10.365679407494964 6.74058950880815 2.3228269605031655
Zr 10.850098692621767 9.206122423403976 4.469263138036759
Zr 10.11309512327345 3.669944908171567 9.533884034351736
Zr 9.357536041545808 5.919587697724175 7.631130670909726
Zr 10.523440949914209 6.670091859883343 10.37694810743681
Zr 8.337703719799691 2.0767356735681726 4.593820864637451
Zr 8.635227518453176 2.0700507931279417 7.629875944956944
Zr 10.133652746887917 11.067893508324278 6.690333244967281
Zr 8.862061904512 10.008044946147754 9.286915464882533
Zr 7.893572247090751 4.547509265150676 2.514581153103026
Zr 9.092542661734717 9.35964119279906 2.0444324953127575
Zr 8.265492289051837 7.742364742361596 12.139607917663398
Zr 8.265101124462909 7.328603764380042 4.1447237745484315
Zr 8.345860248031169 8.807526762012795 6.638364186493988
Zr 7.817813662167587 4.615518794771967 5.55202049842828
Zr 8.485851322893499 5.005883225014397 11.486095636415783
Zr 7.5000781240482395 7.118796764893717 1.2981772708124244
Zr 7.004127852374195 4.622858567539075 8.696664306312263
Zr 8.448247995051137 10.993980817844225 4.2642114459717515
Zr 6.02920711127732 2.265954184780035 6.746189976500051
Zr 7.539245946793544 7.493199279799426 9.385545274244818
Zr 5.515828027654846 6.347644962363293 3.6674519310875784
Zr 6.9520067517903925 2.594618649700039 10.20751771124375
Zr 7.240216479671864 11.799193473815695 6.840805077394809
Zr 5.676970554040885 3.215479577507802 3.914208154330358
Zr 5.68823464291766 5.765471557584214 11.3409049155144
Zr 5.9054383034096025 9.1196786069392 11.320534442663128
Zr 5.617727912949047 11.833173264198447 4.272649490924509
Zr 5.6096367785918995 9.184794941893331 5.661698655494918
Zr 3.9838281917182843 4.2190731630004 6.000330215846189
Zr 5.768099799954839 10.009356144860964 8.584284990549305
Zr 5.7111389717613585 6.461520798793992 6.730793636327549
Zr 6.174084592610981 9.35651102483595 2.694112774629772
Zr 4.1215375738079825 3.9788689236932355 8.959760523013452
Zr 4.356308496951899 7.33394653362022 9.226879090975501
Zr 3.138275555654902 7.037316642362061 5.139753438028956
Zr 4.1271323205708645 11.594669106319357 6.707989441084546
Zr 3.3854520872109806 7.840498878863632 11.985115439802172
Zr 2.564552816673264 5.450926741899587 10.720949889567791
Zr 2.748380679716423 9.016864131983635 7.167002778477822
Zr 3.3165521409238394 10.013080932027727 4.254202327382613
Zr 3.2744329175639653 10.120878064831436 10.003190097057677
Zr 2.108640985796526 5.924559146776343 7.730758871518296
Zr 1.4574793939667308 7.96148474743737 9.774849710056877
