42
Energy = -309.15920589 eV
Zr 11.47074187317754 3.7156362886689864 5.16010768144956
Zr 11.715886705858242 4.705121111572016 8.136951368227804
Zr 12.490858489628357 6.381032864485948 5.719011106051159
Zr 10.005797773917273 2.397384098961509 7.554551796468561
Zr 9.086126039320211 1.654402225892388 5.012197967303247
Zr 8.440066442101202 4.416710114116138 9.085079792325047
Zr 9.261635743436036 3.690872601849834 2.9746650873489773
Zr 10.372464092440497 6.382554928694924 3.717613214537357
Zr 12.136605306426759 7.808056598118629 8.154536353530672
Zr 9.932359059661643 6.773171313252195 10.053205203930704
Zr 8.758421439272833 4.421506271171153 5.730615100827904
Zr 5.283100611196067 4.558677633029481 9.191183508860775
Zr 7.019459857594071 2.4216434605645976 7.170301824732403
Zr 9.839261733472805 6.561566337150864 7.128890216910354
Zr 8.513219668796392 9.126130804780074 10.857746098630397
Zr 10.784929696507191 8.916777471755092 5.462340039013626
Zr 7.188805249443363 6.500888896986369 11.492199630086176
Zr 6.511745825177253 3.161885272585479 4.271196333675464
Zr 7.089580254687313 7.272624422527064 8.849346456443415
Zr 7.324037747875735 5.890025658262412 3.2131146707685687
Zr 8.533309614418362 8.737798937446135 3.209145342525491
Zr 3.772880173707859 4.033070362138159 6.671886294695057
Zr 9.524620507744157 9.39064276787732 8.102182794145593
Zr 4.369327553633839 6.642504576261441 10.68731605979237
Zr 7.881203821505216 7.819491757525595 5.7687622718365965
Zr 6.340507916915335 5.309956573987434 6.484703545685273
Zr 5.671986091127611 9.242845851541073 10.89193412397079
Zr 4.099515208453019 6.990868306474394 7.277041544014534
Zr 4.1958549277170984 5.794445720462866 4.35665610818363
Zr 2.137996774400035 5.732308849762524 8.879998902176892
Zr 1.6877512797150218 5.876551450695957 5.888854982757479
Zr 7.269579895475706 11.158522639028833 8.985423247130612
Zr 5.651169728851125 8.369187980957225 4.187279266451642
Zr 7.635695114936375 10.679696208633233 5.655882692722686
Zr 5.501618788552146 9.461130148451753 7.336114772906921
Zr 2.876272832955756 8.812473913694456 9.629253327177793
Zr 4.3749561497542535 11.36701162423082 9.469416394437458
Zr 2.7252951619527126 8.552475650697112 4.863884550716428
Zr 1.2262046545398695 8.159575197547117 7.364849080932469
Zr 5.347648700047083 12.331936991315724 6.977048174100938
Zr 4.6087036846200125 10.898891544988489 4.7398741580864625
Zr 2.724416813114677 10.635177696949029 7.091229560164487
