48
Energy = -355.36274625 eV
Zr 10.908923829550274 5.011905546396148 7.447300816617292
Zr 11.217903231741042 7.212390799049347 5.514383981028404
Zr 10.732430160305096 7.7270429295769105 8.767456859323412
Zr 9.968636258476169 2.414138164414936 6.416035366589582
Zr 9.86523261552071 2.7298152824541133 9.14168374004206
Zr 11.062961158213751 4.347647732186799 4.283128168198601
Zr 10.469294041623016 10.414385805237778 9.970113223174888
Zr 10.203734819622298 5.073472431753422 10.648923134809705
Zr 10.242811594636407 10.160756730678141 7.102321870777041
Zr 9.55257676298342 8.059895062340642 11.499383123165904
Zr 10.13147856942701 6.761762144099037 2.7827062890726344
Zr 8.421327265350696 7.678853281895178 6.682017446781521
Zr 7.665410167940558 4.113922031414004 7.503661537750831
Zr 9.387199187357364 9.208854506126988 4.053413258836242
Zr 7.33524954640957 1.5032893090652821 8.006188787985984
Zr 7.677487998571652 2.3447101807835273 4.889827945503417
Zr 8.237668790450794 12.070652868555685 8.879018473134508
Zr 8.740646757097567 5.244776501466828 5.134616771418337
Zr 7.53052575414775 3.4248364621916565 10.679410716979929
Zr 7.853450446191104 9.382501587007082 8.879828409041709
Zr 7.893568864720778 5.752110288671929 12.341294993472209
Zr 7.998774546649579 4.996473760117029 2.1897847996111013
Zr 7.909565722210916 6.318147486590021 9.434584709190666
Zr 8.100877873914197 10.70194966266965 11.559871751365062
Zr 6.524997144241882 8.30530064566004 11.813508041181501
Zr 5.294233375248122 8.07546501745957 8.75008019005327
Zr 6.863649236106188 7.220789260625457 3.947351055185
Zr 7.73667922588692 8.071258554903809 1.4320719337168424
Zr 7.184940264715124 10.550789863973284 3.0457605414632822
Zr 5.5891265039745 4.39166052295641 4.036277598047652
Zr 5.1601308363194 2.4905312765345156 6.229826935466262
Zr 5.249236144248181 5.704434555497954 10.80409228594525
Zr 7.7809361631940615 11.011153538775789 5.95579323549654
Zr 4.91893242049996 3.5707599572261963 8.822725544574686
Zr 5.386280099021332 6.24498382472344 1.6514863745658348
Zr 5.414885913277272 5.915936134916611 6.76704145829511
Zr 5.311052692033233 10.67727758702598 10.34302422580235
Zr 5.531190880317433 8.905004905462423 5.704817166388204
Zr 3.6255345259555085 8.251632244197216 11.092064594443864
Zr 3.0903369763835933 4.48973384859206 6.180783118088008
Zr 4.847131239889233 9.10474795159505 2.5673803896447183
Zr 3.6826853300975255 6.801817956623631 4.07536675037182
Zr 5.045655094523092 11.548835427152705 4.561696610969893
Zr 2.8729090922409046 6.254744533249115 9.008320475347775
Zr 5.309495235689798 11.176240501351662 7.556675602433498
Zr 2.856991924954324 9.490613493216156 8.489296921431828
Zr 2.462561967129575 7.3722982194425954 6.538790165467154
Zr 2.9149046462309527 9.883875045835 5.264408794313301
