44
Energy = -324.62225502 eV
Zr 9.81610129789891 11.993766759808091 8.561673553540569
Zr 11.695981563660487 10.433852510395578 6.787082124160606
Zr 9.148449064438864 11.298047360489361 5.564198589828725
Zr 9.241422987266043 9.196477505563292 7.887738894676468
Zr 11.672640564520544 9.753377000582294 9.473706259406908
Zr 10.155661456246593 7.156973501675754 2.444846312401582
Zr 6.899189707731168 11.721811571980423 7.251752089595331
Zr 9.404393370972091 10.308279756389327 11.097474207195232
Zr 10.396257011763325 8.665057506898412 4.915374216601672
Zr 8.10977282588097 9.230601374287346 3.0597993999745876
Zr 7.237697186709726 12.04001518344805 10.08413299921837
Zr 4.3514238321138965 10.026617959981586 7.3611058790548025
Zr 11.603649461201549 7.271606710402859 7.528380817093621
Zr 7.142364338967323 9.027282456907232 5.93950551270281
Zr 7.453967262544521 6.529418495828807 1.728296602924292
Zr 6.7483325629186774 10.315202605240628 12.230151907304151
Zr 5.513168359048796 7.662769778413639 3.357205992983177
Zr 4.492517527290607 10.652443317943717 10.485459995904748
Zr 10.071975511777385 7.400396608639732 10.24198428213953
Zr 6.6801971972875895 9.10379062902476 9.421955405634138
Zr 8.163997931008497 6.5297308721966765 4.670643751282427
Zr 5.57583648400246 10.713688575842644 4.539100996650921
Zr 11.000639836560506 4.836931919889464 9.437961939610803
Zr 11.126064725322784 5.5685735095444775 4.6608497137110305
Zr 7.986134244878319 7.607134919701684 12.062068931586237
Zr 8.884168752203868 6.09179963229592 7.540441281168706
Zr 3.4472632946192205 8.709546529541182 4.845621683439262
Zr 9.141738029941116 4.451226644461041 2.6843422687699614
Zr 5.439580709827057 7.077297822906144 6.712270021544954
Zr 11.11254272540179 4.065235851243087 6.939707208888021
Zr 8.643770744731336 4.670242111250447 11.05919380370128
Zr 3.6470065666145297 7.934839983128982 9.442463564345642
Zr 8.695220398812454 3.5247495212366213 5.380139425258971
Zr 6.439399525533434 6.1796844341106025 9.481303491617355
Zr 6.287993548388271 4.527457577023773 3.6656143615553733
Zr 5.061089376835055 7.954561681155392 11.958816990191977
Zr 6.201645402810761 5.220087012486488 12.35049973337671
Zr 3.778862634710755 5.653667687783437 4.9559495179776425
Zr 8.680459445844399 3.1893335515401207 8.495018353401969
Zr 6.250742101335033 4.150267172642228 6.824484623408432
Zr 2.4229058602598137 7.407900755104292 6.958782771183732
Zr 3.79386475912269 4.956788009379139 8.077779642961028
Zr 5.985453970389312 3.4403167728584645 9.98024122312701
Zr 3.8359540372858922 5.39762859369616 10.89766049141638
