47
Energy = -347.19187697 eV
Zr 6.418007973358453 8.09579204399613 1.9227345911004667
Zr 9.418186737221427 8.335539556428175 2.327059159517706
Zr 8.289107659244532 5.711199226563996 1.671516153562525
Zr 9.771323200973695 10.956346365506171 6.043359726713954
Zr 5.631657497816798 5.175987018282645 2.464252785236315
Zr 3.647273962217534 7.238716165287696 2.4158881018374756
Zr 10.716170464710416 5.706763810748214 3.449465506054316
Zr 4.460598244814926 9.844971834731517 3.57489432349539
Zr 7.470246554392064 9.8554569031411 4.313009919294006
Zr 7.117389269244854 11.66865348265691 6.830778361954879
Zr 10.45762053798259 8.400939084134894 5.047783514055026
Zr 5.362733327357383 7.455516101541899 4.906582305865735
Zr 8.069411027802698 6.850549430180853 4.371573918715419
Zr 9.419149737856245 10.786281164213392 8.902406616143614
Zr 6.258695683382597 4.560419124232165 5.394915117120986
Zr 11.814265170410192 9.395805824250907 7.617384078198084
Zr 8.598609846724726 3.530519139571653 3.6411935096126813
Zr 3.337367024173161 5.028200214245459 4.439617212751712
Zr 4.661069706201299 9.598629745149152 6.896861223379318
Zr 2.5152886746490295 8.113173692336526 4.890395159213139
Zr 7.72040605277162 8.859936237341476 7.088984617305512
Zr 8.926930695692231 5.07372308398128 6.488985346803945
Zr 11.885576491030983 6.260548751072487 6.30904354507332
Zr 11.050032706716765 3.45496708180454 5.405067055872152
Zr 5.560105379526204 2.078081811435001 5.195600316777162
Zr 12.610581592643518 6.8931509783339235 9.17147779849327
Zr 6.5014669164900365 10.480780744687742 9.44032958785782
Zr 11.106380282048706 8.964891522137664 10.471850919340847
Zr 9.809388320202311 7.270904469725504 8.33281135350719
Zr 3.714459154906044 10.724767398392956 9.691059387662705
Zr 3.9013042399975197 3.7663687578687526 7.282376074679946
Zr 2.034886121698592 8.755713882178215 8.426770847637565
Zr 3.301827842401665 6.526452121161454 7.070748615855362
Zr 8.530408586803613 2.1674473098562625 6.2765824386334685
Zr 6.298499056604463 6.161239148254471 7.869772381650127
Zr 8.126251218844475 8.380933541160553 10.575562802745397
Zr 6.40977251921875 2.9517933614595004 8.022920208289499
Zr 10.920059161018852 4.453657899617403 8.507547759234205
Zr 4.801110128725006 7.93137754396601 9.607333913294195
Zr 10.389230180795009 6.235610154408176 11.036965057830127
Zr 2.380037749645149 8.699583692156846 11.285825787958021
Zr 8.119998600387346 5.017760232658907 9.730478105303893
Zr 5.25440413265255 9.254669061103462 12.096999274593632
Zr 2.2488181197247537 6.1180033926805875 9.804659259532977
Zr 4.858549368476075 4.636797799194935 10.16071019284439
Zr 6.586988285653359 6.45150812662442 11.828084771353339
Zr 3.8694952020728226 6.547110633035363 12.20276618251928
