45
Energy = -332.28785977 eV
Zr 3.1631890074589326 8.32999366245385 4.758233789869021
Zr 5.423586072281702 8.857360560792761 3.3582396142476174
Zr 4.279190815525272 11.343497181695694 4.756575836026549
Zr 5.69527736008774 2.9845458947526766 4.34568094357404
Zr 5.597784429990643 5.90243654675994 3.8052259019166894
Zr 7.345028867466039 10.624662950254152 4.020658852914309
Zr 2.5345503598153747 10.147898798062682 6.809375606576641
Zr 7.92270757500963 3.8655477706976473 2.6895500186224037
Zr 3.8141017700573365 4.543877091865238 5.838642070135502
Zr 7.927755005946735 7.269372864983286 2.5950290379440966
Zr 2.2574682727369524 7.484602677094743 7.718504256642802
Zr 5.867678278934791 9.923547340417205 6.552817865833967
Zr 4.303339424658181 12.070194188723198 7.973769556803487
Zr 8.36118478328714 2.2554304827958567 5.37880433867579
Zr 6.656143306508387 12.689155444054885 6.142274721575883
Zr 5.013247469910161 7.078211424412757 6.616129343514993
Zr 10.430474950195716 5.708195807803631 2.3474561820842355
Zr 7.760917007922869 7.937918659674932 5.55440791372607
Zr 5.734455263317934 2.14744356329708 7.179993712534413
Zr 6.647368383435841 4.6716308883344535 6.704710897017577
Zr 2.528261972132918 9.924946743497335 9.743425008284012
Zr 10.634870072948045 3.2677755359010154 3.7313301359253455
Zr 4.230872231579712 4.979752756356767 8.714868363124149
Zr 8.856364112699225 10.73654109194998 6.488585374168135
Zr 2.89419922892999 6.98632088738285 10.460919257605987
Zr 5.038112112960947 8.7230288866385 9.12929867862871
Zr 8.93244970217901 5.424705881185798 4.835806609247197
Zr 11.964535612727964 5.707237767963372 4.963029768045717
Zr 6.349919035973792 3.5186813398704686 9.84465058285309
Zr 7.24640027517588 11.619912663391538 8.85159927764254
Zr 8.443919768422974 8.830480465378896 8.469984230236973
Zr 10.291814293993482 8.109002892050318 3.991247473456412
Zr 11.103063225155283 3.24138517810471 6.558695842784246
Zr 9.403516724221895 5.526260987729224 7.7060219508833425
Zr 5.162169159071548 11.263604316620548 10.681953245645277
Zr 5.559370282828238 6.285743393677397 11.458858742566031
Zr 4.357819258424869 8.911582900283094 11.975942058913931
Zr 8.674049040143291 2.5409026443097154 8.405058350002019
Zr 7.0148622266875975 6.4541297012776155 9.182459573850881
Zr 10.88103614386096 8.065479523609612 6.799299655830843
Zr 12.379101664604338 5.781125727845456 7.8527822848507185
Zr 7.271073769607348 8.950778467567197 11.139222595411217
Zr 8.75618368374422 4.6552780136560825 10.733274668813293
Zr 10.53817006939578 6.9851152717968885 9.845422046664334
Zr 11.165905928165596 3.9628353374809326 9.52373508567506
