45
Energy = -332.63206766 eV
Zr 8.589996490737326 8.249944612931275 1.9527219640104052
Zr 9.768615731470403 10.848627923558313 3.1703047214120628
Zr 7.082200354506296 10.824662868657384 2.3725089001807422
Zr 9.605878775087517 5.981169548479067 3.772565997157667
Zr 11.057610038888177 8.493307976463806 4.145996092036164
Zr 5.494986464848437 8.465739527643617 2.5066123192079663
Zr 6.82601488120806 5.856990651987076 2.9681685733059955
Zr 7.991729419408994 2.9562525074286494 4.208787412146044
Zr 10.699519120672097 3.551845595971167 4.96671979924828
Zr 3.996182635904267 6.172496700296014 3.5200713095817715
Zr 11.928999023660761 6.036713982457645 5.831089359512496
Zr 7.906739704282553 8.95205818455084 4.592444076414601
Zr 10.055185218882814 10.68107608757492 6.15002270638856
Zr 7.800791398621922 12.036344761667209 4.909953136365497
Zr 5.264219387316853 10.695927150611825 4.5878365636179606
Zr 8.233967730923395 4.860515478202697 6.3498348210056985
Zr 3.3204119926814855 8.67446452364594 4.656780093618292
Zr 9.438565785801242 7.523453133485967 6.77088003285377
Zr 5.347795276121406 4.2044108550288755 5.17989596765247
Zr 5.843571734916915 7.2202533206941375 5.705676512993865
Zr 9.266613473552411 1.9688741977174506 6.732447170427934
Zr 10.952393121819764 4.118848499839607 7.901341408895948
Zr 12.072927074935562 8.831268980714997 6.963072174045613
Zr 3.0162054288707227 6.241683388801625 6.348776399907549
Zr 4.427588412786435 9.499215185873414 7.370827780747672
Zr 7.443540738625367 10.228272204567196 7.3372064801034185
Zr 11.723023715727008 6.79771878888313 8.711222194189647
Zr 6.973487175563868 7.640751153278882 8.651253085610476
Zr 1.6455983911883716 8.361728282153605 8.176010814704266
Zr 8.252339956423686 3.255643408942295 9.190825681002963
Zr 6.432820397874087 2.291628642304356 6.985006901265238
Zr 1.4622801710177367 5.526591570196289 8.881842181943382
Zr 9.600582085596496 9.044524355355984 9.222452363837608
Zr 5.943995942633763 4.9728302863816705 8.1217397676531
Zr 9.166883483524394 5.963819643554866 9.69665000432409
Zr 4.0781515101434564 7.03941344544055 9.062121343550675
Zr 3.2626085884043694 9.690336183459909 10.21786166127641
Zr 6.044808247287166 9.888253087937578 10.215529759518034
Zr 3.389694721885723 3.6420922421185926 8.063719577806117
Zr 1.9076094966071997 7.332059473682142 11.031931691103765
Zr 5.4409786592762375 2.7576481132878934 9.904679096763097
Zr 7.760435621317753 7.870212557234983 11.503289595111582
Zr 3.580398028363089 4.8131760328340585 10.982494023209263
Zr 6.562748944169907 5.218423534665736 11.26117210976654
Zr 4.80230124121006 7.5810265788157585 11.89080950925451
