43
Energy = -317.09339917 eV
Zr 11.089612111319688 5.019638897344836 5.34027507856477
Zr 11.247409737563881 3.4028130511425516 7.925452087190878
Zr 8.474439491472372 3.8126147900391443 3.6076934080585805
Zr 12.676294606446742 5.874896389320457 7.686758211064617
Zr 8.731875091175898 3.3597444328047588 6.328507839682872
Zr 9.791493942902271 7.439593317672564 3.1403364358313577
Zr 5.729802582767082 3.7329907518639107 2.503830421793606
Zr 7.386233181104985 5.952545914715213 2.138511101572832
Zr 5.896543334773205 2.3081783364363497 5.064356722306142
Zr 11.097327640606458 5.398192606673659 10.314385635449273
Zr 11.211914943674332 7.95937300349517 5.945620291622585
Zr 8.435969974758452 6.5553364647728545 5.239487908074151
Zr 8.651813478536365 3.3555994657609123 9.529829062304907
Zr 9.749952813657229 5.922796709799275 7.973788515205064
Zr 6.518468167200935 2.3639044874918476 7.899460055853606
Zr 11.743141755155897 8.095978079153738 8.973287596149488
Zr 6.0651821084139454 5.1991384578869875 5.187353465374556
Zr 3.5579874349412584 3.8987429785963656 4.217798609553485
Zr 8.92018118213289 9.717084762547222 5.028676877056542
Zr 6.836381561253633 8.523773417775155 3.109581273427299
Zr 4.5050594333741625 6.470461192380299 2.8694338523622434
Zr 5.462180363368434 4.233632252899592 10.050175830721985
Zr 5.517727140091558 8.26671583011015 5.941481618174733
Zr 6.171234985460042 10.86065169611816 4.546008891529287
Zr 3.045326458451111 6.3819569945052 5.486728446449241
Zr 4.0723353672964135 3.719148700600203 7.14881146604423
Zr 7.857939888235057 8.211380257666837 7.923166221601089
Zr 8.129874990556427 5.57826561400862 10.974067552116345
Zr 3.707522022979488 9.213467997166996 4.135148362042434
Zr 10.053140925786247 10.030743708006213 7.8860844599404505
Zr 3.9713172442622464 6.496449773281095 8.25655122682824
Zr 6.792563796317464 5.450623585490744 8.097126849693153
Zr 7.264224463357524 11.285217163604225 7.174959780384263
Zr 9.389298099095841 8.0960281574124 10.590493667560866
Zr 5.121976203697535 9.413095992341406 8.512443762806303
Zr 4.102196732833422 11.376479134525027 6.4962857563950065
Zr 2.4249083915617677 8.959134746351292 7.182035211235583
Zr 6.028195835487593 7.527049755058671 10.579280078660533
Zr 7.575907595464092 10.408486229439172 9.986603663638423
Zr 2.9488232490959994 8.371677945530127 10.180300187975464
Zr 5.365226828503106 12.345247829598517 9.135935554242494
Zr 2.769896446151536 11.09762880227179 9.192191757611496
Zr 4.779019321097404 10.382954314374869 11.226892501778403
