40
Energy = -293.49870937 eV
Zr 10.378133269366854 6.8450700111589775 2.993243751620989
Zr 8.0240770788036 5.660946695289693 1.5120841029263759
Zr 8.719632591914307 8.433482973989046 1.051016276142571
Zr 8.651554491180285 4.584271439926708 4.109486648152107
Zr 10.48037946125029 5.3385774562632635 6.430190424102518
Zr 9.655909112828052 9.704220561115143 3.519112836692327
Zr 5.725201510753931 3.1204380750458 5.537625821631151
Zr 5.8755814088086336 7.71499306775463 1.3674596529051464
Zr 6.108538858172793 2.2000658195680165 8.321911964740025
Zr 9.484802524937516 7.911118989607649 5.954119584491236
Zr 7.58184815037818 7.5947925920006565 3.703253841065697
Zr 11.068321730411784 7.273499523061348 8.632596724755734
Zr 5.677263465421553 5.561678396185473 3.642934025563141
Zr 10.325353165330087 4.441949871030409 9.190156405477827
Zr 6.886311202433755 10.2369104197047 2.459092371411537
Zr 8.57981723297339 3.081035733987246 7.275364282094323
Zr 7.350466123972521 5.493424139915636 6.297133555227197
Zr 3.523576974502757 5.2720677777278135 5.719871121484532
Zr 3.564058513729754 2.7249388545337334 7.3597345202205435
Zr 8.141244086811186 6.52191352207982 8.830580454838092
Zr 5.605620048918191 7.650043239719863 6.345103884683886
Zr 4.699803916102736 8.632990577184266 3.9220978606532144
Zr 7.357539414857657 10.075900896996751 5.490853262483489
Zr 9.988789812338007 10.375598027071167 7.596733692008084
Zr 2.10823762589527 4.727391719177844 8.437348244307806
Zr 7.596221827719452 3.8965352879396398 10.170986813157233
Zr 5.153158303891526 5.28143172650106 8.33441578114668
Zr 7.425454762335632 9.236902319437997 8.396963127311324
Zr 4.180957400266689 3.4080709149188744 10.236951141718231
Zr 9.388882447332941 6.3884620586289635 11.289432760123283
Zr 7.326289037691547 12.069837644432862 7.6797174059030375
Zr 10.095730176927972 9.100809978092718 10.43372986387208
Zr 2.881603685870881 7.409555643470138 7.738775427789656
Zr 4.814566619855067 10.33916921875309 7.306771531117952
Zr 8.64367335561348 11.355841945022979 10.118169439255553
Zr 3.2268169932959316 6.235947385292884 10.494732886769821
Zr 6.169663516179999 6.161963446882616 11.168078757823949
Zr 4.838360691982204 8.4311577267911 9.728991754680852
Zr 7.405482964658484 8.926800560271115 11.504744802906213
Zr 5.794611808166576 11.165222276499408 10.002542441848126
