43
Energy = -316.83754827 eV
Zr 10.65329267415644 7.956398134295109 5.48775010477372
Zr 10.503132641442345 10.39597686208294 7.971584057225495
Zr 11.094107114035932 5.627788027074094 3.7445092145115186
Zr 11.9852599590834 5.120108394391264 6.46240478819642
Zr 8.857013233153436 10.276025779276614 5.221704334028178
Zr 12.162553865005618 7.722716050586454 7.846158310094225
Zr 8.746068458215529 7.444098435315756 3.2359990475342806
Zr 10.971224311589177 8.342160811760463 10.160457474491398
Zr 7.212276908826977 10.985383956710058 7.780957558803082
Zr 8.727449149078687 8.399013566113238 7.944871266068333
Zr 8.823641603417864 4.414321893290891 2.638739829036233
Zr 10.21399036256611 3.0127038589409665 4.995562072510579
Zr 8.538544045049395 5.32490454135395 5.414000508916937
Zr 8.586475449288653 9.929389750937307 10.398068065774101
Zr 5.980335457752509 10.858676723446 5.021155526663655
Zr 10.636966018682607 3.056360958886921 7.981406323716736
Zr 7.043219993428129 7.995260657501843 5.634723436903377
Zr 11.505736277683159 5.335466858874399 9.7984471395106
Zr 9.582367868790236 5.800119739051977 8.097432486077599
Zr 5.614379198990924 8.669789844087688 3.1758239390702903
Zr 6.135094867476462 5.643709525578639 3.4771246140742966
Zr 8.810194605175619 6.700957150890052 10.988202805425477
Zr 4.339541641984171 11.857844642866002 6.978030445707494
Zr 6.750367396594331 5.757039305893774 7.9414268535421195
Zr 7.254532262949265 2.7956131370893718 4.329977689833065
Zr 3.4228830092811653 7.105062165792761 2.7413328081138757
Zr 4.807979970877906 8.952010294725717 7.496167755825882
Zr 6.254540530883685 8.236994029975738 9.894301715912182
Zr 8.551289312809953 3.739108485639471 10.037830206312819
Zr 4.2781550137286235 6.64509222084395 5.6065209903240465
Zr 3.1357968324072174 9.449002376659042 5.0228037206562295
Zr 4.709692891914459 10.881667785532683 9.698463073610883
Zr 7.890188572122437 2.6275283362503763 7.256564120806616
Zr 5.229685561278884 3.8522844129394116 6.185167968978148
Zr 1.4248115409038178 6.746904546550202 4.6888528774476015
Zr 6.159236617114384 5.426658632933216 10.879560769280108
Zr 4.040544289681803 5.856745107811127 8.768858591256016
Zr 2.235485608767199 10.391558213704874 8.061576697773173
Zr 3.2448088016854864 4.487690422820889 3.9454301488218553
Zr 5.6498974478357775 3.2564976076106915 9.107986325673734
Zr 3.1925090596872345 8.423303545913296 9.998210286253546
Zr 1.8073925132649422 7.64657338384392 7.385888687479202
Zr 2.2409067903427773 4.69548851378221 6.649801174021281
