41
Energy = -301.65314527 eV
Zr 6.588091887297398 11.745997749252938 6.8960173347211855
Zr 8.301314982921687 10.787751387924029 8.961443349867956
Zr 5.038830295110368 11.721546719108856 4.323659437851674
Zr 3.7805641590834 10.75217461697395 6.7258113110587905
Zr 7.732645967816338 11.422690718057906 4.162924726351395
Zr 9.333331482146967 9.862465782241333 6.058389367417259
Zr 8.083096583902348 8.446791465851648 10.842016865341842
Zr 5.3919241755275715 9.645225053545262 8.936341143704134
Zr 10.376831965350647 8.91584586554316 8.92671422864
Zr 6.1337146392681685 9.119567227822941 5.522558451242985
Zr 10.379959179067328 6.30535681290215 10.438050475279264
Zr 11.234926510609474 7.997082674504056 4.6580765247316505
Zr 3.4508865485080533 9.386949665908455 4.168132757628825
Zr 5.995337384221017 9.458047788112383 2.5471505217681423
Zr 7.700233744082924 8.183408938559523 7.902839721866199
Zr 5.509928014514579 7.032813977665862 11.61364218981996
Zr 3.542876330067142 7.788133441878079 6.665650503867138
Zr 9.019531746635982 9.189471260294056 2.905065620796028
Zr 8.06592074507031 5.862168362612356 12.249201293011291
Zr 8.433401251648435 6.932957823553927 4.751897366064397
Zr 10.178423620853827 6.58784982572455 2.311074619870479
Zr 10.288430186140815 6.565077615589525 7.199389062514228
Zr 2.976248363868579 7.9546382045432775 9.70985752632149
Zr 11.02554812322605 5.128031725431996 4.6877898356003485
Zr 5.152923507901968 6.505413147163054 8.758247163745297
Zr 7.2439922274212485 6.715299008509514 2.0280551711782895
Zr 7.873352087106017 5.518742097180873 9.163324759674031
Zr 4.659998656230701 6.866351985923671 3.6566743432143425
Zr 6.355029736187279 5.582672841649381 6.351324613168527
Zr 2.305719685384336 5.521857242813766 8.259579652119935
Zr 3.4161328889980367 5.189945060500816 10.80704171266913
Zr 9.072629949157145 3.5752320380623366 11.0149705797946
Zr 8.751422122141376 4.254708622305557 3.1242509109942187
Zr 6.080220177208507 3.952569020862993 11.107834489327516
Zr 10.346586767263203 3.930677526594308 8.509806550752721
Zr 8.726165158758729 3.83577941046183 6.081741474133867
Zr 6.014353123910661 4.377546869913131 3.6995872433204635
Zr 4.470842110214566 3.4271015728951983 8.555890152423393
Zr 7.442161886559738 2.628230000957025 8.683023116468629
Zr 3.6619240033850797 4.652002139052017 5.860398504191332
Zr 5.893040276479005 2.68998652909472 6.081245468925438
