41
Energy = -298.73864401 eV
Zr 12.280284969789514 5.691388806752259 8.464883089459889
Zr 10.483096837740389 6.831258424018021 10.215888328518723
Zr 12.615728857883958 8.518589002328357 9.364966427607252
Zr 10.969365536764096 9.16245480295679 12.03017917296818
Zr 8.486185804618062 7.63278215615496 12.070155669675774
Zr 10.324702744576612 3.196518992248941 7.233084684026084
Zr 9.145016440833205 5.522064638345395 7.323732945868876
Zr 8.048498785237234 4.883817610455033 10.224199851293168
Zr 13.18228374470877 7.609226410594295 6.446974281905657
Zr 11.994938082454162 5.157604385222973 5.758918936960862
Zr 7.805905639733836 3.055712438849618 5.728111439913321
Zr 8.374048321028658 10.49860284479816 11.911866676865762
Zr 6.022920177680115 6.308006370235975 11.509335888351359
Zr 10.557250569709245 8.183160256238446 7.26271891357741
Zr 7.358566642520452 2.935516456688886 8.416921285474942
Zr 7.42720736008583 8.066027086629907 9.139934659490683
Zr 9.929317324624021 9.869455845163358 9.55928301837082
Zr 5.03680761380549 4.256364582383723 9.748131621838436
Zr 9.570793797623889 4.663140647902655 4.288805648338288
Zr 5.799686062444611 9.134805076243591 11.522876567582404
Zr 4.02469634404944 7.2302646848513925 9.795893058559912
Zr 10.87379845544109 7.315866883834049 4.266164455734144
Zr 7.990128765503433 7.683867570164264 5.686751905955085
Zr 6.1730242965324065 5.86831089995339 7.56063421196319
Zr 5.033762007674893 3.4495809373256545 6.62851315479985
Zr 6.911285975851585 11.099211416592997 9.468730686109454
Zr 3.118984135692765 5.229129402127072 7.8458577907610065
Zr 6.577664180797463 5.259065577655051 4.312643076277977
Zr 4.108994529290863 10.185387805823446 9.141321722501262
Zr 8.375672698813727 6.932351722165005 2.799972186646108
Zr 8.310736203397628 10.694965100197278 7.093241018572679
Zr 5.42071049383559 9.04945889971199 6.623145932198211
Zr 2.6120559249480175 8.027498766454553 7.3689141182777735
Zr 9.15637828280428 9.566224468934834 3.931170197826991
Zr 5.928295788274583 8.38653522096034 3.5804182019852058
Zr 3.9814508104833934 6.184337196653325 5.295190528027598
Zr 5.432929305578989 12.018774841486653 6.982506276999033
Zr 2.8261197562055322 10.77630272609654 6.570773043475683
Zr 7.099493556005994 11.132296844601775 4.7039816354363
Zr 3.0289710268100998 8.724106500104542 4.567861633396265
Zr 4.487924361932454 11.045491195973831 4.2927002058893935
