42
Energy = -309.49854726 eV
Zr 10.694200833847992 7.586589051325043 4.959924243543963
Zr 9.67808734163532 10.404382910618557 5.716142047099117
Zr 12.210847699852215 5.964913671825999 6.942523826055958
Zr 10.808156802516171 8.521983516983694 7.742531460461038
Zr 10.766215617704757 4.561142890021114 4.616804655664591
Zr 9.433470291424491 6.414988208233234 2.652237536449255
Zr 8.340811795530778 8.953661971221372 3.3769831712605316
Zr 6.896934776004986 10.948780590977771 5.223655428706836
Zr 10.03593633219649 8.87846573998998 10.3689878182242
Zr 10.71095200519285 3.4409491154496674 7.848932154728368
Zr 9.32779401017541 5.642274526693895 7.161965469206914
Zr 8.063338757579976 10.206781174498024 8.533483796770962
Zr 7.874619864186913 8.211887405416165 6.308028563286933
Zr 7.91666318487226 3.8566316871883535 2.8320506100040697
Zr 6.466478840594927 6.75541630714104 2.401030165306239
Zr 11.065124679007974 6.038939942605058 9.643879253059321
Zr 5.628962907850467 9.631905975303866 3.0163225473646498
Zr 9.10783904752109 2.553956081676325 5.470404215978137
Zr 3.932994747840531 10.464398014798101 5.2919795438695925
Zr 5.659237370548824 11.79176433544261 7.630183807407515
Zr 7.703927510543859 5.402153531222337 4.960588397736418
Zr 7.321736972562697 8.739444690287486 11.68742331067534
Zr 3.052793555987943 10.932169573669787 8.034622026975828
Zr 6.39785534880108 2.5182096134588234 5.065843559352608
Zr 5.177709257287099 7.57202455424864 5.234404543668891
Zr 9.403861947616852 6.6373235303119555 11.940952733566458
Zr 5.018283056922105 10.411894791094761 10.248002474978827
Zr 5.217486852863825 8.790550551165921 7.930300473556414
Zr 7.766359118032735 7.110939894719658 9.398771968265583
Zr 4.8603502507248 4.712352294545691 3.845499273551664
Zr 6.052909955469295 5.748942568621181 7.331199120200702
Zr 3.397579183317356 7.636964538069435 3.4253028272490407
Zr 7.433037198874552 2.993033269511 7.801329586584277
Zr 8.659025480132524 4.241295688838121 10.216581113863056
Zr 6.8108604330795925 5.786576468229301 12.028571646967885
Zr 2.303297041994904 8.354488406693207 6.54823169067924
Zr 4.751093946836779 7.337794339724832 10.769737620913343
Zr 2.5811014929070275 8.758125609522462 9.55299583590394
Zr 2.728382008875036 5.634727148347711 5.628829655285756
Zr 4.446469383201994 3.6159591200730805 6.717336581979421
Zr 5.550595071723194 4.463400047283679 9.841709454706468
Zr 3.1772139244957063 6.122862778266093 8.443149302098835
