49
Energy = -362.94258459 eV
Zr 11.428714551178803 7.347183780050152 11.322329115784063
Zr 11.078771246394465 9.339398237868954 8.961693979085723
Zr 11.86387728220414 6.3209734215698585 8.583874443492284
Zr 12.797042709324224 8.171085033773087 6.439178881448308
Zr 10.367648192058164 4.774926645802155 10.65706963421946
Zr 9.398334170566253 9.212699294936447 11.860896024100205
Zr 8.916644203447156 6.447171690731317 12.510808092159193
Zr 8.913649385370855 7.298792118326467 9.533586670872785
Zr 11.655075752478615 5.675843626048639 5.577889179068946
Zr 8.110737940357575 10.540820323879798 9.732994503355274
Zr 9.600646645952237 4.604476573663039 7.660195570957345
Zr 11.389529725108503 10.548972459093834 6.147905020939138
Zr 10.932487578388834 8.336328087396247 4.0483016491403685
Zr 9.925999433844764 7.708110263375206 6.640910328772092
Zr 7.512855250759702 4.654137743664683 10.50231597793146
Zr 6.589625106114934 8.033849211161858 11.366786540392706
Zr 7.381861482960316 6.2593513636981175 6.729983916284228
Zr 9.044525647024598 5.751135409607586 4.258861194343564
Zr 9.409272111602862 10.947690205709488 4.2444345900539835
Zr 8.25344257821373 9.887251843168631 6.894754359547287
Zr 8.983496442322961 12.493361733141656 6.757693524187906
Zr 6.021500564956898 11.799075975683408 7.823153230199978
Zr 4.895445982727896 5.597582385289066 11.826377713881433
Zr 5.32361280279008 10.643235024436963 10.592347434545612
Zr 7.480081821177385 8.470301805400908 4.392431736697132
Zr 6.824851489673986 11.627724446130854 4.900658894204958
Zr 5.971532821023987 8.67264474978571 8.398256535175989
Zr 8.335228924097125 2.737119751060624 5.1672073369012725
Zr 3.6513575892513837 8.140002178432766 10.574767388045927
Zr 6.089550041599773 4.505148903209146 4.621192354093663
Zr 6.923089463927953 3.320946033178855 7.816846665563476
Zr 4.848520344953712 3.3351481994670227 9.954731975115648
Zr 2.703763832118687 5.276643656629907 9.785752220733686
Zr 7.948267268172778 3.8696414570670887 2.3711647419945283
Zr 5.3422418851359845 6.065159608917245 8.953013143887258
Zr 3.4339145959649766 10.315325116024171 8.44699600652822
Zr 4.776260737284697 9.821613213357054 5.866723455297618
Zr 4.768058806253063 6.885520312634292 5.406998906278668
Zr 6.47737730506557 6.584455783075093 2.2603310614920304
Zr 4.775250686824342 8.860258880331438 3.0789505139516575
Zr 5.375368027238626 1.8613161138765784 5.998673016457725
Zr 6.053496738016633 1.8747839867289062 3.297164114709935
Zr 2.917579620725706 7.47919432430932 7.631764570415332
Zr 3.869690859173569 4.17075770725624 7.133951545728059
Zr 2.3565695834878966 8.31860081858336 4.613287223061665
Zr 5.152855493284074 4.053354589126263 1.7447463501595006
Zr 3.4245101598476424 3.3284249760938787 4.110938247317359
Zr 2.007063649561711 5.631497851156459 5.364185864490851
Zr 3.4421447820811277 6.157796297202603 2.7455567549211026
