41
Energy = -301.99706503 eV
Zr 5.531243268617485 10.23086799499769 4.187401380427403
Zr 3.531785704790265 9.593209917267998 6.21172936985742
Zr 7.808292352024512 7.963874517518914 3.4304914432940383
Zr 5.398294663637513 11.704361221759731 7.148275603882449
Zr 8.198568261679108 10.814651086012766 3.141615117040918
Zr 7.199171102150435 12.5859081016178 5.1555020455216125
Zr 7.407942964487118 4.926562093990424 3.259602532299019
Zr 5.750105876826012 7.1475103465138545 5.089024355032915
Zr 2.758430850337803 6.459517293892617 5.807214589157394
Zr 2.416144332180519 8.051310321318784 8.205687397834783
Zr 3.9473304741799486 10.007764117982209 9.466716285288697
Zr 10.363702914185252 8.960833537200156 4.317629976266573
Zr 5.721050370482881 8.538014616116017 7.852854355545653
Zr 7.812038324385121 9.767791449711384 6.019972997664702
Zr 4.8367636345839164 4.375037963619311 4.774540554071835
Zr 8.931817653213628 7.110896881356504 6.181546332131248
Zr 9.950231607469163 11.769707440867142 5.250105690629167
Zr 6.924908613385198 2.230591768987909 4.445348907468414
Zr 8.42941363369412 11.992775403642524 7.816394992257414
Zr 2.7659440466024194 3.564611800657483 6.731101360907627
Zr 6.6226433994782585 10.927742595116145 9.695667418837244
Zr 9.552822316913824 3.149671981104147 4.439937096211923
Zr 10.710670019127166 9.56438080213984 7.177824587765617
Zr 10.333363508335013 5.793422679015425 3.9443048290371534
Zr 2.003740671074777 5.435820969410031 8.607978651772775
Zr 7.51877593463836 4.453559764153373 6.254119517990214
Zr 7.675456894621717 6.447977121663065 8.667672101975255
Zr 11.903596000678212 7.075055411274814 6.040926433104255
Zr 8.884669688301562 9.155036417042988 9.30026641013353
Zr 3.9803501938071055 6.722965448221425 10.371187828443043
Zr 5.395275815953413 2.292643156425169 6.96880218756023
Zr 4.932186802069041 5.405442273504745 7.701990663049828
Zr 6.454169277832401 8.224006084690174 10.846030537974594
Zr 10.789303351945074 4.431859471330336 6.75475173318841
Zr 8.665091829289306 2.0088168363407664 7.048508954493287
Zr 10.838992432925185 6.700917222539632 8.791894832981153
Zr 3.9416898563420433 3.540970294149705 9.6325774926926
Zr 9.313702708796963 4.098964902015029 9.444281267529528
Zr 9.027785523778153 6.68185750343822 11.130539673719092
Zr 6.793544813245643 2.8452879278967727 9.214995609482832
Zr 6.546390474893651 4.998279977935323 10.982515376836057
