47
Energy = -344.75080413 eV
Zr 5.273118627366917 3.6232224304322855 9.45105085168685
Zr 6.515886867327093 3.0851971248501027 6.934363054828122
Zr 3.5550940871762062 3.314001021275754 7.037904052143067
Zr 9.377228096641524 3.023492039858765 6.635988772469177
Zr 10.795494885012882 3.2200346713377552 9.10699479263969
Zr 9.736335345562308 4.27375352510696 11.349886008028813
Zr 7.004875231998407 4.636297614856311 11.631409835153594
Zr 8.087814246761104 2.3661420845288768 9.576455188901937
Zr 2.700276926366739 5.095633191446453 9.039259699827415
Zr 4.3982984711160995 4.471702147081074 4.512418697059648
Zr 4.665962877795291 6.450091879879668 10.6844075364612
Zr 7.682146579892232 5.140638699684156 5.0695555421931475
Zr 5.25037791079913 5.900434112637596 7.24981212604509
Zr 10.515990925059423 5.153359527752345 4.703954804129689
Zr 2.249013256466179 5.771765108944514 6.240313599142751
Zr 11.820544429163233 4.570263515230858 7.029219473785267
Zr 7.055977202236238 7.405961057854477 12.598949296273114
Zr 11.514314963346335 6.0794456554273975 9.451114845888354
Zr 9.354474747052796 6.76440054430041 7.134805186652388
Zr 9.388904370851552 7.145089983795015 11.116204989828558
Zr 7.961510104860159 5.071650024070232 8.887216039756131
Zr 3.0938486567711387 7.8384724692728405 8.202432497438181
Zr 6.50901241820777 4.242901599358518 2.278274314911506
Zr 10.559696164082963 8.88407266028238 9.021522822487393
Zr 6.614956066095602 8.20120489366962 9.514673817414556
Zr 2.52977292507968 6.696282478109994 3.3767139694361203
Zr 3.733405141211508 9.614492310728021 10.210826179594134
Zr 8.536214356838107 6.1862257438047905 2.142303441169529
Zr 5.477418691829684 9.448442245411291 12.219647907616006
Zr 5.876648038832395 6.878010925248437 3.6031591005806725
Zr 12.07091072519332 7.393236816141507 6.719120268845837
Zr 3.792502654281923 8.253648358498818 5.356776962020865
Zr 4.021772311941554 5.518422499201472 1.5610576769480768
Zr 8.31022075886544 9.831527879463847 11.402874222996173
Zr 6.969862721299873 8.409753384235954 6.094364238293665
Zr 4.993323687433934 10.063356085625145 7.519404392262582
Zr 9.363688435774016 7.806551036952723 4.267473398906853
Zr 6.271562630484756 6.775459052141434 0.5529118472056412
Zr 6.080559880719635 11.273039217484827 10.037608854166235
Zr 8.089522193895448 10.394535200789155 8.1686621794404
Zr 4.277262634038803 8.554287842656345 1.8422206840778899
Zr 7.302868821507233 9.032160576646316 2.1222178972973382
Zr 5.518952031350874 10.307439570795392 4.113726632912272
Zr 10.313598368322749 9.682834084677802 6.234583450187625
Zr 6.5762401058461855 12.185783380243967 6.303924867736936
Zr 8.328751356987697 10.851360872522827 4.452417915753735
Zr 9.280426537576833 12.515130617736508 6.638468987854718
