42
Energy = -308.79926148 eV
Zr 3.6967213337165825 11.852224511976603 6.546627274552188
Zr 4.2988007517488835 8.847998742816289 10.365859142812257
Zr 2.6563935927118125 9.571568038343889 8.072205109889786
Zr 5.299143014739273 6.247520405677871 10.889314236503065
Zr 7.938093990915158 6.663176148793652 11.898375167264863
Zr 2.517846246379828 6.6250772781347615 9.318233830072158
Zr 2.1040211431146103 7.267953307164838 6.476700029188253
Zr 4.645760351351318 4.147381697300472 9.271796025102024
Zr 5.068898523299912 11.284750548911783 9.086990711169468
Zr 5.28515911679957 11.27215895636585 4.227438334342049
Zr 7.993653546004635 11.416576958378295 9.059401138206505
Zr 10.116427347048823 8.223061330361912 11.32033198927984
Zr 3.0702304595904275 4.771377961270859 6.932951574070157
Zr 7.235040763158055 8.721268968165708 9.76149869197207
Zr 5.5244065258007025 9.590349287690852 6.751985581849141
Zr 3.266779522136033 9.310674114321767 4.896624603312621
Zr 7.418934628844276 3.798217272915123 11.281986483736045
Zr 4.985633087669496 6.961422666448408 7.850206101518564
Zr 4.316000683776157 6.418428210668169 4.783471269112677
Zr 5.856162211709641 4.20319280420054 6.38144779963268
Zr 10.585824655162678 9.692071602684042 8.610728967523759
Zr 9.432209240034712 6.852879385275235 8.979970791831292
Zr 6.639215025625991 12.478083507483845 6.641919785145459
Zr 6.189503645560049 8.543715163243903 3.8724426511281194
Zr 7.001629024965146 2.415287577555452 8.511967168336746
Zr 9.567362714802586 2.9887989874132246 9.400554184628028
Zr 9.539994277713758 12.006652000462458 6.836339163966775
Zr 8.34078468625485 9.20909806387202 6.762633298324527
Zr 10.337289316200447 5.096132919179696 11.173206192894897
Zr 7.494049739949293 6.411500155278795 5.799268318265629
Zr 12.350621384260165 7.206681469389466 9.320948982114329
Zr 8.074642433947899 10.950252930107926 4.350477300063668
Zr 7.3449527460930355 5.2502150705293245 8.796322529617063
Zr 11.585364335023838 4.582935191305432 8.138170760296639
Zr 10.930936297217787 10.040620746010829 5.306045317681156
Zr 9.297706415832366 8.042316982993828 4.057298648130805
Zr 13.123790799921043 8.975258879152433 6.993173451852262
Zr 10.603561310905606 7.213986047247916 6.643714781142757
Zr 13.464026718105446 6.155497933785108 6.619147172021279
Zr 9.050885267542427 3.8209156142773812 6.6600456678223825
Zr 12.464494722115026 7.693405729305088 4.425002420413388
Zr 11.208649115715794 5.072022004415371 4.978108226544573
