45
Energy = -332.24873088 eV
Zr 3.785200742802164 4.72746510153413 10.352015401493395
Zr 6.651398518562419 5.383198964801611 10.795176220292948
Zr 2.4024677337627036 6.814317103371312 8.667761364868417
Zr 4.611083520948584 7.604073852505559 10.654092778141772
Zr 7.469833354789635 8.346412617681013 11.704245731712172
Zr 3.114979799883854 3.834769490465106 7.66487426277271
Zr 5.60318702384127 10.692645189375641 10.48614336153639
Zr 3.3043851499867296 9.585765291442893 9.00806382100167
Zr 2.111958658165642 9.068263322218272 6.261213537529031
Zr 9.004439633949954 3.706138214072621 9.904622813227776
Zr 5.913465692464715 2.9575275044455713 9.125677544771584
Zr 2.0191011963545877 6.094715202220551 5.926141700256002
Zr 5.270701706521523 5.727713448636111 8.011492287371745
Zr 8.62277182427867 7.027792075752322 9.084192763211494
Zr 4.7551908901292625 11.010786062688075 6.9783576526295406
Zr 6.480681204443625 8.91536424595006 8.591919649095283
Zr 8.455020926501298 10.716947127689624 10.383859977525228
Zr 5.544084744119496 2.694265835315333 6.395215484645629
Zr 7.470527063496978 11.695654761272483 7.702838847261485
Zr 4.460815465717917 7.93733819804332 6.439539775229909
Zr 9.377569258196212 6.043325074556774 11.74520337795157
Zr 10.851056497455165 3.6009373538967084 7.5672639106825255
Zr 10.405191254560197 8.585650570124974 10.783320281870061
Zr 8.420889333743471 2.087722476445176 6.986789740781574
Zr 7.934797676916673 4.618771369077096 7.24943045196231
Zr 4.1827079710761526 4.626740457095129 4.8240587641224755
Zr 9.862225732712348 10.026611975034015 8.033343847672022
Zr 6.703739011684781 6.3630827041032845 5.2133020364275175
Zr 9.499224716752583 11.372912451659884 5.4620706576742615
Zr 9.585893223405918 7.1430823552763325 6.212579944728914
Zr 3.5292617160496595 7.330680209281383 3.634189128796741
Zr 4.16745108002471 10.083220217246934 4.26415850201959
Zr 11.294118350247714 5.69998297281135 9.47499926319241
Zr 7.323990309124102 9.226457956236114 5.912830692383686
Zr 7.195557560554182 3.6504124906599027 4.192254529686118
Zr 11.954893049681928 8.186205652153827 8.259600879635148
Zr 10.05523524953364 4.324368727233938 4.814176530021078
Zr 6.876565821631068 11.330030557254252 4.2519000464291645
Zr 8.541269718781312 6.278365517496604 2.971272374319152
Zr 5.672370805365412 5.6373821158012145 2.5284248126981477
Zr 11.49744075559181 9.24137127150569 5.52382302528838
Zr 6.250882526374753 8.520189704316328 2.940265867220581
Zr 12.153284490463754 5.929155918425294 6.430041852028786
Zr 11.249059266087581 6.93302436340929 3.7822531809019613
Zr 9.212424803987354 9.196732271936453 3.489595670548158
