45
Energy = -331.15053245 eV
Zr 12.28132560884385 7.390161466399776 5.936813265565432
Zr 12.78773064807607 4.70372437176682 7.099296551372742
Zr 11.191564504393169 4.019715394686938 9.240584317130262
Zr 10.888622738179508 9.899268600285707 4.858077141184665
Zr 12.039614176985058 6.8271837985366535 8.97099442139241
Zr 11.119985623099382 9.364857793053414 7.904227739773567
Zr 10.436395520668084 2.918485282891661 6.617694923661172
Zr 9.444649116294984 11.36495902992301 6.996181823665898
Zr 11.629908975156654 4.707114298939313 4.624877195168305
Zr 10.555521612160295 8.659937576373592 10.701454626300261
Zr 8.86331190045069 10.636544736228144 9.734943847448593
Zr 10.350020035932449 7.031382897074324 3.6511988857551376
Zr 7.686696470641564 11.116936546802046 4.849783269338708
Zr 9.696040972719516 5.9583820036229405 10.753157813955182
Zr 8.607557975617635 8.408444778333159 5.742298906878199
Zr 9.838692274471567 5.78413554432054 6.956043070514282
Zr 8.401757822316286 3.935624297472593 8.935131197901885
Zr 7.808657679095098 8.347016041320261 11.535463520113677
Zr 8.228512990515888 7.8547917795520465 8.65707091639239
Zr 8.695489924399967 9.314098943284158 2.773165314621472
Zr 6.663152527352337 10.750151713100529 7.562933570585288
Zr 8.775908130157386 4.399485980323343 4.376522443912474
Zr 7.305279440034975 6.670252432559349 3.5882763516506815
Zr 6.5408995063105335 11.668902486430403 2.468508973340662
Zr 4.800724510644972 11.199171148595084 5.12359750120021
Zr 6.4252648845971985 5.60800925161144 6.849281373724944
Zr 7.283825251609326 2.918170811500195 6.39804183199927
Zr 6.751011794932377 5.793732210532706 10.715875570211763
Zr 5.48789549483999 8.328919002611036 6.117208594932443
Zr 5.7579473067998315 9.812036202618893 10.08732284219543
Zr 5.517820962111851 3.527267415411944 9.05303071598241
Zr 5.480501038492507 4.284792660545108 4.230341022594425
Zr 4.389790914227351 6.778142342440785 3.4215606238560117
Zr 5.82203546386775 9.173244752775467 3.2698309329157738
Zr 4.702583769294209 7.148150467354529 8.934165084013607
Zr 3.641561522870208 10.243409685608196 7.639149930671267
Zr 4.51051319258577 7.652749653785153 11.894821988863256
Zr 3.189613671486294 5.804714624175508 5.726844015975728
Zr 4.065973791325121 4.896376554445151 11.087911014199813
Zr 4.383372416338293 3.208126988786587 6.521360906638905
Zr 2.868759028163195 8.788297804600026 4.999833015481122
Zr 2.8583286805861916 9.311826351635847 10.188583198916424
Zr 2.746804454392156 4.822916310461409 8.403675915215189
Zr 1.9733285825256601 7.72608650939708 7.727439242158338
Zr 2.0386809438209834 6.697309979653842 10.517317010990523
