45
Energy = -332.66335403 eV
Zr 12.179095596304967 7.184225274614656 5.168283080596122
Zr 11.750942902313806 10.004917865434958 6.011235854719863
Zr 11.323350141488964 9.442502013487797 3.328581920654992
Zr 11.033543055326762 8.094587616536808 8.0881459591857
Zr 10.217102739970498 5.476829692432981 7.438577689017599
Zr 10.448135099332257 6.928667618276182 2.5991229206451667
Zr 9.769449457592499 3.3088510630027153 9.531074710155751
Zr 9.190854880376447 2.653314062440422 6.552828782318421
Zr 10.135905995060774 4.952911731167145 4.6702821913240955
Zr 9.474448760915575 8.011183256071902 5.304602538889497
Zr 9.346786460963532 11.206883804020444 4.511177568019994
Zr 9.498801341204873 10.5603806360795 7.621640357195496
Zr 8.777000733463508 6.176421438162346 10.281277539490342
Zr 8.722880591750805 9.138215117574351 10.421667548871289
Zr 8.455757419192356 9.22307200143442 2.5026904143663757
Zr 7.591961570063808 1.533574382736751 8.770951213691703
Zr 8.032349866734323 7.65473302928499 7.824084256862548
Zr 7.396931308899275 4.445790269937657 8.383267872308679
Zr 7.432082622682861 12.14217454977699 6.3391390803920835
Zr 7.23502439125103 3.3788817271308447 11.049428588050226
Zr 7.625370015901638 6.322738097310367 3.1648139966922124
Zr 7.933064781962914 3.180494290924763 3.804915930814106
Zr 7.121891354827145 7.38894822036435 12.441530342888491
Zr 5.403194277914184 4.146504668449633 3.7698191743128944
Zr 7.29906693817337 5.260564989309695 5.765138863617253
Zr 6.229855377251115 2.3196137277903115 6.219943001330903
Zr 6.622379509826295 9.174318659848897 5.610755033606222
Zr 6.359198622273958 11.27339154098222 3.6460264974248013
Zr 6.618276930133589 10.634832805153485 8.708684090804867
Zr 6.263099795256372 10.114046944763373 11.764887853252672
Zr 5.633415954806533 8.47047040178953 2.7163561872280724
Zr 5.9808084598052575 7.869903757905244 9.799347037002924
Zr 4.9664892928064805 5.280235970031123 10.87639305411672
Zr 4.901972604086298 2.769828681276291 9.043351553588481
Zr 4.7777324304056865 11.568140651537911 6.314539896851969
Zr 4.643109232917182 6.769969236668914 4.916431135349384
Zr 4.952822716538343 5.930214201878436 7.836950849306111
Zr 3.832667769697691 9.646825468131437 4.48910572139847
Zr 3.6768996744165845 3.788518422981477 6.282370745084228
Zr 4.2966923597363404 8.039186756863 12.21819209940138
Zr 3.9413145199947257 10.073703425796936 10.086832785357657
Zr 4.032387809106991 8.910989822724806 7.400922576501942
Zr 2.6185657125104833 4.53670824861428 8.971996027431071
Zr 2.7724474233304743 7.309031807373137 9.771830316231357
Zr 2.3221284497359056 6.512209154033958 6.800173234863542
