49
Energy = -362.69570865 eV
Zr 3.838818830876736 8.617300008313434 3.473786774977396
Zr 5.010567557969804 11.245609846163207 4.560037850549283
Zr 2.776975658800651 9.682300360018223 5.871603751052703
Zr 1.6980217735027583 7.0288182791369955 5.088395091553095
Zr 6.462256957661236 9.475416463821157 2.5716443561012063
Zr 2.997230723438839 6.167009354019986 2.270631479842301
Zr 6.216157992287101 6.527966583584644 2.6932878085537766
Zr 1.9360500171081523 4.179623429269865 4.1599030618646395
Zr 6.204319414664516 9.027524390859346 5.540842284523563
Zr 4.4379305925462535 10.203404386883824 7.99505654270592
Zr 2.252675579499978 4.732792929044367 7.070293343006623
Zr 4.303202713189591 7.206050461646812 7.053270336276511
Zr 8.164177063022125 11.02007681722677 4.4441137254249465
Zr 4.396729995797158 5.590923452762105 4.741995144050632
Zr 4.423946112140532 3.694648794217268 2.6053387800885863
Zr 9.009061903468497 8.187331870979255 3.666937852847135
Zr 7.2013261498234735 6.292061968843142 5.544339058403851
Zr 11.098657722773801 10.288199121541682 4.580370009032455
Zr 4.476577880287454 8.331972934039964 10.121112776392058
Zr 4.062178666632238 2.570831202773592 5.481347891971322
Zr 10.046857351390159 12.012194880220086 6.593754966777326
Zr 6.827811182861252 8.346251336731129 8.289065038857759
Zr 2.0138877040587326 7.789122753696984 8.268152602673203
Zr 7.286977826704893 11.339260346667036 7.407996988490128
Zr 9.281323936569182 9.132178762366475 6.5288616657822285
Zr 9.749288631750417 11.14052689090606 9.321808469062617
Zr 6.70655965519246 3.573833318435152 4.472866162232361
Zr 3.7901711506125 5.418144446797016 9.606561781070496
Zr 5.765880037677286 4.33183825924384 7.34313976424688
Zr 9.779209567560109 5.384296336066069 4.469186039658272
Zr 7.011506817845939 10.2886135870518 10.49152763693441
Zr 6.976777420720393 5.754924295074075 9.478601616149094
Zr 12.02844055730685 9.956907328494594 7.425635831786727
Zr 3.643958501260314 2.5409563185151276 8.423903979736364
Zr 6.885035462744414 7.689144427788842 11.707372611508445
Zr 11.787009957774076 7.552355845436872 5.400512985323746
Zr 9.356659941267894 8.094706598256698 9.570160768955724
Zr 8.873723948151254 3.4931513888417114 6.667653186158814
Zr 9.358982168365245 6.229617374970586 7.398178448300908
Zr 6.409393493559878 1.616398007044974 7.640205730836376
Zr 5.668369535975827 3.136998300795308 10.245542123257138
Zr 11.914445753734904 9.459881793798822 10.279448398924268
Zr 9.554918967863093 8.991918151670742 12.109969525379302
Zr 8.281936994221413 3.060007284321635 9.517897015113057
Zr 8.9836482911995 5.807442243643177 11.697643443367806
Zr 11.70767779280553 4.783519672860661 6.5606019359097845
Zr 12.362448873644652 7.106800035384614 8.342770527168605
Zr 11.591325313646898 6.8439161801271 11.218845847476771
Zr 10.813383555690303 4.66469484318022 9.426471238066247
