42
Energy = -307.95924052 eV
Zr 4.356793217881714 9.726099605128887 11.633235085654961
Zr 6.147499874134611 7.838621284834377 12.852078690132023
Zr 5.083926222812883 11.655483383413598 9.675739113310406
Zr 2.9365638259028857 9.471657642898109 9.22076952561432
Zr 7.144901882442376 10.043067242577024 11.32214199741646
Zr 8.9590989912056 7.57217301111316 12.492489120685391
Zr 4.740436586037579 7.160930967246626 10.43094150151513
Zr 6.904507109688935 5.300754685201193 11.79931045692724
Zr 4.006083021167405 11.300226955790203 7.043072473489629
Zr 2.768538051120508 8.866120101999712 6.499238520685811
Zr 9.943621547920255 9.522906767800928 10.347822011144897
Zr 8.064037725580073 11.460789470284917 8.93978511875781
Zr 5.846895283291232 9.20100664584402 8.261548188919908
Zr 9.713155887355095 4.8895968305967195 11.841285803160877
Zr 3.312001814133332 6.545002197788561 7.952133163659107
Zr 7.89877209086068 7.22524346944045 9.740762541823406
Zr 5.849569929363355 5.016804731512599 8.941173464273968
Zr 6.9407385181324095 11.240178551183876 6.151522171460714
Zr 9.710830196910512 12.49254578362758 6.548825642628482
Zr 4.8186143141187365 9.502872250351528 4.73947692947422
Zr 11.064890638887935 6.856227939278935 10.252374569895602
Zr 11.412986368220439 4.061847713775968 9.68333822218157
Zr 6.256166926715892 6.897347654436714 6.317384617502765
Zr 8.618624769032607 3.950129957873281 9.36133922583363
Zr 12.296944244209515 8.799638444973423 8.482510016249961
Zr 9.75078073673226 6.416372827954754 7.31548002237078
Zr 11.08810682155938 11.423834788542798 8.649823235167352
Zr 4.522209653910453 4.345448346274866 6.548918169106149
Zr 3.567643896583355 6.654171365425895 4.910582083538723
Zr 9.29480651781149 9.44336493443936 7.078386234706958
Zr 5.931930158193506 7.235932419007566 3.2325698282716395
Zr 7.561675306327099 4.187569241444486 6.6220405784810845
Zr 9.487948831281004 10.955234719211097 4.346468770466892
Zr 7.727996331961392 8.906125624961529 4.382804920834162
Zr 12.700772196619516 5.672562641189493 7.787094867897476
Zr 12.759360890191076 7.757123647506789 5.930047254244509
Zr 10.554156986549257 3.604523427157641 6.995953093485451
Zr 8.545132727929568 5.992537797351866 4.429911178375708
Zr 5.766757185798536 4.70148214204982 4.1490897155567446
Zr 11.504395763465014 5.45401973380389 5.013968015942978
Zr 11.924785757886509 10.480251874639517 5.961338067985238
Zr 10.626583465556132 8.249444875002304 4.227527486693962
