45
Energy = -330.0167713 eV
Zr 3.1421659617610502 4.914672143521799 9.029655729372623
Zr 3.735568409977555 2.7435319030520913 7.15003160715392
Zr 4.724678108257253 6.31354057299251 10.834728837936035
Zr 2.9604312940635595 7.772062446168488 8.787671930760787
Zr 2.852281790432802 5.726464764029799 6.365676661187417
Zr 5.803282673443656 3.7486170570069945 9.278871886841705
Zr 6.465988311492256 1.6906066398772992 7.328026569813996
Zr 6.727195702445688 7.564208150130487 12.589835418942974
Zr 3.455840885773803 3.6157884977341617 4.384455568269412
Zr 5.005108327636432 9.202480803365292 10.62165684859273
Zr 5.556651088373358 9.851140359814513 7.7164831209044875
Zr 7.911162168024968 5.62077642083325 10.267651006271475
Zr 5.542342744852158 6.824810668213584 8.053773866235812
Zr 3.500501485403337 8.583521445876395 5.8664705044155445
Zr 8.647456158028296 3.20480715302724 8.177958130981347
Zr 5.449001455239177 1.7990352860552898 4.799699767721412
Zr 5.889223595683154 4.568845749065236 6.143191034933983
Zr 8.931839814138492 9.249074523023044 13.775788069993101
Zr 7.131863009806098 10.442803282218433 12.179630071918563
Zr 7.5453583585584285 11.399662217241445 9.50141623640322
Zr 3.933030230929116 6.2298243545466985 3.595737792594433
Zr 7.624293546568562 8.493399201293297 9.607108137093928
Zr 9.872968860244818 10.327451508880074 11.114576672501228
Zr 6.2151155785530126 7.6763266303884885 4.97399305428487
Zr 8.072889182170162 12.027660226584137 6.5008444264676735
Zr 8.600756126211119 6.125238955466699 7.340859307958127
Zr 6.174207594063121 4.155491092424551 3.1746887241948647
Zr 9.599986071486711 7.434733218416906 11.862632276681536
Zr 5.648254565012332 10.754898472889018 4.938816270157222
Zr 8.187753363308829 2.848015153118165 5.170623293728292
Zr 10.697262343974176 4.903030301684044 9.18155249747724
Zr 10.448522645786507 7.950665661373877 9.16939524230275
Zr 10.1833223965743 11.04065946660887 8.141887102570427
Zr 4.203962072265868 8.915600202229955 3.027043604999833
Zr 10.651841556316523 4.406981657048852 6.174872536100722
Zr 8.44422856481062 9.13518040812278 6.562232096380233
Zr 12.078218065681206 9.207466412098261 7.122103252991632
Zr 6.520123087195399 7.087384384569184 2.1224571766670235
Zr 8.230600277669422 11.507580644311812 3.775583758652275
Zr 8.512934580860582 5.756696554327548 4.199732967322339
Zr 10.56722593567611 10.530537187806724 5.047475200977046
Zr 12.313760365615806 6.412603701253567 7.5124169199370785
Zr 6.532896979915545 10.034890287639618 2.225297420944413
Zr 10.7278161240278 7.438940776095582 5.28375859235912
Zr 8.847814267810449 8.695944390934688 3.2888974924561087
