47
Energy = -346.04620922 eV
Zr 2.865386397335595 8.71255648788055 6.1114568272779595
Zr 6.856487170654205 12.427607955753526 7.7612096345683215
Zr 3.224627747508071 9.241869018027229 8.962187919318158
Zr 7.720174524687538 9.215780448391936 11.128896329767116
Zr 4.013658517416826 10.796285632066937 4.1570039028652594
Zr 4.451769333747056 11.144049278898857 7.0990102734331755
Zr 5.665404010471373 10.617365658926158 9.795472721569801
Zr 6.695954060059229 12.066315918371968 4.698334141587697
Zr 5.155757159816132 12.70945322477439 2.2966014575327653
Zr 8.99152434913413 11.345876014655676 9.424856518272591
Zr 2.861272399529892 5.627367899643571 5.4219385192546605
Zr 8.240952698720596 6.483492532845034 11.7303358829252
Zr 9.202899073879712 11.676533049109642 6.392124068504507
Zr 2.9612276872745924 6.391005860644183 8.337775585787485
Zr 6.060401180071716 4.601771528087874 11.739005158545533
Zr 7.847582251700366 9.436207560670056 7.963889002350493
Zr 4.282562642017572 7.742577913312501 3.7038010437252518
Zr 10.269254057349174 8.473357900358314 10.0735047895359
Zr 5.320371011848702 7.426276687288415 10.473606312160657
Zr 3.629868552428255 4.635744722094718 10.489319189342917
Zr 5.393202159443366 7.8268701624100885 7.509361332459532
Zr 6.378820616658712 9.313416277202668 5.3387905794260035
Zr 6.293044886647503 10.079071180861822 2.513791715945071
Zr 3.977878353619182 3.006367232319516 4.961388239282748
Zr 5.9175737685480785 4.920457960549472 8.718469019324539
Zr 8.326635446600909 6.579089566535095 8.882533384923835
Zr 4.8677352405425705 4.933741846463247 2.97076106298455
Zr 3.4179210696823064 3.4180718108059795 7.787190883036536
Zr 7.1942363316448406 7.263547002215123 3.206325759182827
Zr 10.81948537586149 9.5199488161089 7.204906548521196
Zr 9.252216464125958 9.629472971420471 4.215219230561081
Zr 8.790403287142421 7.125373028496642 5.748792860765176
Zr 5.8135055856595015 5.506248167440767 5.526529099269556
Zr 8.086004230886934 4.300031965910432 6.771581968737384
Zr 5.562971699694902 2.342358779091121 9.793911337311572
Zr 11.242771132860314 6.53951539046141 7.732075619299342
Zr 10.671168257990384 5.555152150566564 10.444074204646192
Zr 8.484504341897482 3.619193102121091 10.529287593589997
Zr 5.909164026819218 1.8661096800824817 6.791506177675626
Zr 6.552555590144873 2.638083223381246 4.071369029458735
Zr 10.524536261814893 3.5870817712081595 8.224801011354113
Zr 8.435758783560168 4.612009789793417 3.6691118849025655
Zr 10.13396884196891 6.902064948900722 3.051974728459815
Zr 11.66011804413499 7.8149523626955695 5.102955418048419
Zr 10.861261992672869 4.826343309954182 5.295264005389495
Zr 9.009943732100925 2.085102226054016 5.660340309284693
Zr 8.256788663355078 1.7205632513274938 8.463808215134625
