45
Energy = -331.77984166 eV
Zr 10.709554362271167 4.223511021646308 4.138348510737973
Zr 8.726317687654502 5.688305762986939 2.542488147221345
Zr 6.791870729428764 7.685260175204214 2.3094374167662255
Zr 11.331118804415864 6.8159185783154275 3.4355994505777914
Zr 9.349514973210615 8.699259566677874 2.9972556088617655
Zr 6.8416683205251525 10.55278842857426 2.623275412286223
Zr 8.026528594435495 3.57466977534264 4.60054756271688
Zr 5.8513655622532506 5.591136423322125 4.209803612949125
Zr 10.006505762988851 3.9648018684681703 6.978853026001514
Zr 12.048019525077672 5.905282063039618 6.038244683374847
Zr 4.369393697737152 8.440075713358878 3.534623567227731
Zr 8.84775078942469 6.447405933698422 5.494141758169594
Zr 10.96980068897554 8.750540036310404 5.681870178345381
Zr 6.839750359711915 9.285570780983571 5.1083719046983
Zr 6.888663319398014 4.35684238742177 7.055005143955463
Zr 8.636169839560619 2.679379151860196 9.18050352650058
Zr 9.445496169759373 11.089235679629494 4.942404040961974
Zr 8.255316542031046 5.6827377194826445 9.107666864459597
Zr 3.0157088950839257 6.6453134707019315 5.146372337936434
Zr 10.638882714771084 7.055770876902604 8.157796539124282
Zr 10.903413552760325 4.436986027410182 9.759144461913337
Zr 4.5065242721121495 11.194171271575351 4.424452577080436
Zr 8.165876313429859 8.971279030024602 7.637313957775115
Zr 10.466613282939926 10.922016646830862 7.786586785852037
Zr 6.8589360517130045 12.425226474479775 4.895353726078219
Zr 4.012454585344445 4.647204682930976 6.833567358903149
Zr 5.569566149303377 7.208053244971165 6.769868888991513
Zr 3.3470366148874895 9.380604002022245 6.237415935550781
Zr 8.679332804651375 4.197173664739958 11.767017095221393
Zr 6.230374054823908 3.5181813336334113 10.048500575253604
Zr 10.098645487577343 9.169151206725381 10.009959738331508
Zr 4.982255478624791 5.918668193273165 9.45241036498119
Zr 10.377972796862077 6.765093534215692 11.47775468407877
Zr 5.52420500591451 11.307845224388416 7.334778469271964
Zr 2.8293350213543267 7.131198797398935 8.008256306174301
Zr 7.252842396154297 7.836201388844493 10.791955664776996
Zr 8.20370994867172 12.36019428456195 7.232753401900154
Zr 4.988261565399822 9.095563305170737 9.12241003238515
Zr 5.9225967249816875 5.423001191406838 12.367839430794366
Zr 4.244525411954644 7.828001011004822 11.638243817241706
Zr 8.441135820449741 6.512642489296246 13.471629671003123
Zr 8.80794153417289 9.407071012433299 12.663909556550875
Zr 7.8062283618894055 10.834344706654322 9.799608065425593
Zr 5.8449561044101355 10.25137830838541 11.847427042229798
Zr 6.2814871940427235 8.128981387158646 13.67490395030864
