41
Energy = -298.3521896 eV
Zr 10.740147782644254 4.311837907698599 4.826944399226698
Zr 9.932572499025607 5.328656214066181 2.2709227257103657
Zr 10.528818732382748 3.8138667001416002 7.925992754569243
Zr 10.914030698912415 6.569645626507816 6.94421240863847
Zr 11.348722180832672 7.234701136460662 3.972579741903514
Zr 8.125815429270654 3.621297972696996 3.576638731429864
Zr 9.326795318802043 7.9492614542110305 1.7987457487838852
Zr 10.566882848090904 3.266066823135451 10.717407068781897
Zr 8.15071461777107 3.4917973424760635 6.402795651700885
Zr 10.878893552372281 5.9991094145706345 9.911007189417303
Zr 8.465350310348029 6.346193609233136 5.038256646979366
Zr 10.498263659546879 8.999898358994193 8.765348820021908
Zr 10.954977651245569 9.263885048731963 5.951045573531454
Zr 7.1053442172761185 5.975253017958009 2.336986005593221
Zr 10.60948032765943 10.104501485985654 3.2508966082630844
Zr 7.930582387130856 3.4289470756661204 9.53733327163348
Zr 8.681170075624241 5.183299149589826 11.753309509590817
Zr 8.165775022344402 6.1646537367347065 8.388243210006724
Zr 5.837830325370985 4.91841480410465 4.912118978805752
Zr 7.988403857340212 8.929541973411167 7.195550185708111
Zr 8.221277883598647 9.198855642197934 4.168241054628388
Zr 8.951500499403785 8.05080595909173 10.992040026343053
Zr 5.505805364644162 4.609276104150117 7.713753452911144
Zr 5.270785852798785 7.741190136559872 6.993617245700625
Zr 6.013307379949227 5.570664774235214 10.540200334866244
Zr 5.607802829027862 7.805839206101649 4.003761974993313
Zr 8.291408541081141 10.825055878908897 9.83309621703884
Zr 8.89771043685429 11.317289182374386 6.336866485735218
Zr 6.853825701593904 7.202385462686504 12.862007290273993
Zr 6.1579413727914165 8.573449230827931 9.66908729510949
Zr 3.2457230911132307 6.052782753223896 5.958069294506765
Zr 5.874935857696785 10.6076503525982 5.416470143081022
Zr 3.4001155692061156 6.188641773022381 9.118979108704726
Zr 6.9568081934738135 9.87779243528195 12.308216953320658
Zr 3.3305451063367135 9.086901218359271 5.113721286853359
Zr 4.42353650202764 8.213112467365711 11.993236849031922
Zr 6.414200537897461 11.655885506271229 8.013993480648361
Zr 3.788735453819258 10.646741799977951 7.614010422686305
Zr 2.1551832696769626 8.1789224953328 7.462488510104342
Zr 4.962237556474087 10.996044950301009 10.557406555944212
Zr 2.9088745375626375 9.062454234814338 9.878427936793823
