43
Energy = -316.6055577 eV
Zr 9.43054063000424 5.618880531769327 1.6247278261939038
Zr 8.878197429004537 3.098644976010085 2.9157916227642198
Zr 6.966525467329782 4.2311979427426145 1.0902413992199904
Zr 10.37673173359292 5.174283227936203 4.412385723995865
Zr 9.232290274317362 7.9286381834827875 3.298546836575058
Zr 6.949446691030562 7.24255267598149 1.3387529543596126
Zr 9.88053282768439 10.453387116175255 4.621343497545487
Zr 10.940182915308169 8.04007488991557 5.846214449254872
Zr 7.329808371629461 5.534285148433852 3.859426222476602
Zr 10.042549674800611 4.198173638112798 8.690852255050666
Zr 5.900364066083309 2.9506915556920963 3.577897960359009
Zr 8.441720506241522 3.2777659021999748 5.728958640567223
Zr 7.091169589181167 10.208309068524105 3.523083741388463
Zr 4.738792660042565 5.4961790534332975 2.192227094487082
Zr 10.033028845091744 10.235330134080252 7.643730271148265
Zr 7.797404205906207 8.728676255395978 5.901277655429204
Zr 8.76155550759748 6.019297731462304 6.792042166915261
Zr 10.736441980321844 7.463474877324922 8.722955002632466
Zr 5.263140121035531 7.944442113052463 3.7610059935816067
Zr 7.77714863358119 11.73698030485136 5.94994636228611
Zr 7.735905886575909 2.248321764058513 8.325845727661688
Zr 3.8443511759260396 4.935371899926695 4.768053546026975
Zr 6.80835807383164 5.200498500871101 9.032125988797254
Zr 7.728417049470703 8.134572591212883 8.795132098442528
Zr 5.5859601729627695 3.3760698644053675 6.6209119532424925
Zr 8.339708239568077 3.2230624354581363 10.813770477655005
Zr 9.122419444705523 6.133900933440509 10.882036097828674
Zr 7.455548809788331 11.185379353404862 8.676737373055747
Zr 3.063145135834698 7.721362661791887 6.1451103989103375
Zr 9.261688025785219 9.386571736790966 10.572053541395054
Zr 5.108647823990089 10.104015555871664 6.138926067337643
Zr 5.82795872557759 6.49558786092981 6.281057968165808
Zr 5.381186772360889 2.982177754584212 9.986013101670881
Zr 3.764509079082615 5.19502060887522 7.920718944853066
Zr 4.903435567105234 8.297343860554347 8.65388021629895
Zr 6.506794059913178 4.778405498733333 12.086400131460152
Zr 6.424917221573608 7.602803336200558 11.51752326677978
Zr 6.26894652546456 10.244521812650877 10.95877441556112
Zr 4.513706003383202 11.420413059885593 9.040207584399711
Zr 2.539688882833659 9.958582257148539 7.963538023070524
Zr 2.0565415888188774 7.36055180345224 8.99295351928406
Zr 4.211304608176556 5.9544314660007 10.641080919059384
Zr 3.3920561171528805 9.233893579398774 10.862828258290904
