41
Energy = -301.77617102 eV
Zr 2.3333590141961285 6.021087088526874 9.183242711585391
Zr 3.1636693613712543 8.585168102959281 10.092998524087688
Zr 3.200691235090226 10.483105466076385 7.945298737598166
Zr 2.1469703551814128 8.043690568319988 6.993140489173703
Zr 4.7197212447877055 6.000974762072007 10.830262526868417
Zr 6.051818674942397 8.578084377524362 11.648945155404443
Zr 2.732233517327474 5.22833622573572 6.580969726344158
Zr 7.15573090463686 5.867707804372081 12.222898612968777
Zr 5.312745926562459 12.023329672919632 6.964070172253763
Zr 5.710299970457629 10.272997918187746 9.27540128934156
Zr 4.4823576037845845 4.037250984746592 8.496185947688117
Zr 4.820447200498562 7.433660710596742 7.984259542281721
Zr 8.929452754117733 7.946612786105511 12.141212547949815
Zr 4.640568125869711 9.526075860685717 5.645558489749035
Zr 7.9354038265057 12.090840822713648 7.905181369980021
Zr 4.063374748833782 6.747798244526507 4.683057191204931
Zr 7.074866825855333 4.230122172648328 9.792591139145784
Zr 7.68334272319124 7.207405710771242 9.438822499544921
Zr 8.37008015814515 10.150398080653948 10.321718982907273
Zr 4.892717571893697 3.7932497562539704 5.4198488250174295
Zr 7.6595006642709205 9.257326738565594 7.014920029346958
Zr 10.731888591911845 8.06404572160474 9.9668242971972
Zr 7.133035277009455 11.237416569732575 4.878007563705879
Zr 6.776181110899686 5.845854172465087 6.5020510708780535
Zr 10.625114799468761 10.510495839759196 8.29291162559108
Zr 9.69711829487413 5.3998520149393086 10.791512555451803
Zr 6.950764198792462 2.815434695221321 7.355749520491117
Zr 6.714839242720513 8.188884372155986 4.211487879219734
Zr 9.780603216798463 11.574967678245878 5.831266093867098
Zr 9.34834724112914 4.77832952549208 7.742602936008861
Zr 6.370167095441267 5.37367327283915 3.4719913187928184
Zr 10.355851280358191 7.619972931063245 6.7857940992694665
Zr 12.910140998418479 8.666447914025905 8.268350404123
Zr 9.523461124211023 9.344043245062624 4.078710828636078
Zr 12.166393639982095 5.801025950802751 8.41794521993134
Zr 9.031399833847027 6.25609765304425 4.34691540320568
Zr 7.9952445224639455 3.5744382316010004 5.012481659335164
Zr 12.140824143568025 9.798980216935467 5.6448772620248935
Zr 11.400089883940213 5.004260996786643 5.631296477694447
Zr 11.657312295313963 7.40687038532818 3.9612114036103625
Zr 13.383799777635334 7.074503004963667 6.076373359386892
