49
Energy = -363.22836488 eV
Zr 11.645657800278975 5.0284516035096996 4.6827384446111
Zr 11.970678092465821 7.3171857096008255 3.0674051739929444
Zr 9.393682855664185 5.985369218101083 2.8479837586269454
Zr 12.946099564478002 7.41994062296845 5.965217365910785
Zr 8.797484940262642 4.534802848232874 5.42453067939297
Zr 11.04456864721615 5.385596174364179 7.573274649811616
Zr 6.765608453951789 4.2365305783217195 3.116112776416837
Zr 9.292210761368981 8.889715674158014 2.848670365695525
Zr 6.865471299111307 2.1749629499079646 5.2289766589665705
Zr 10.086425299741999 7.491765604725584 5.424209102161115
Zr 11.908411534254334 9.73702311999413 4.28029531755712
Zr 6.584281827936478 7.70509879851997 1.8931893509351891
Zr 7.695276895276678 3.1585321314074313 7.993066429303486
Zr 4.531232015910611 5.789414985537929 2.930842624059176
Zr 12.394832289547313 7.744450956061202 8.773064016540065
Zr 7.940221861654905 6.113351662738572 7.822593135466873
Zr 7.110109754373835 7.113592993013976 4.530544022250829
Zr 4.125717199981525 3.126428934490771 4.3462391605736785
Zr 5.717431792176823 4.821736461665323 5.911253207488148
Zr 9.40640331019449 10.794846007879414 5.2183528265538195
Zr 6.7068595403725055 10.256694497811036 3.695669900536616
Zr 10.39157157976425 6.551331758991491 10.314296638959274
Zr 11.801426757457016 10.117285826001966 7.150874686652837
Zr 4.804484771472722 2.1343100315302537 7.317607072457696
Zr 5.842278178611069 2.3229844519331646 10.090319372486636
Zr 5.107752324046595 4.90650155168766 8.871581605448185
Zr 9.433160592986768 8.429346812509092 8.165939446484604
Zr 4.196553756634996 8.51888288014413 3.6721020746479858
Zr 9.41414948327615 11.526193710843152 8.011801329463632
Zr 2.613481935037304 6.02534158938519 5.019505343831569
Zr 10.652472484170753 9.69567746981404 10.184236709591854
Zr 2.6386010218386335 3.790102977429537 6.797039254500189
Zr 7.611988062322605 4.848970056909837 10.69438391326022
Zr 4.448899990418374 10.745058568689773 5.40999689312242
Zr 6.8262379427832975 11.997437387347478 6.57962708543003
Zr 4.579046438551449 7.573481800237996 6.652271497713257
Zr 5.729649163748161 7.730329499497595 9.269579418663268
Zr 2.9103690609722097 3.470717865873538 9.743469126666461
Zr 4.863241447277574 4.234622700102738 11.827058438541117
Zr 7.061421883482349 9.297683831808081 6.749329414883488
Zr 8.115424614219233 7.989969960465816 10.999168093051065
Zr 7.318556557788138 10.543874854626893 9.604168290548465
Zr 2.3032557135483134 8.923528756672416 6.420709482285908
Zr 2.1017336338055097 6.188923921372176 8.168001639297678
Zr 5.831811534576657 6.743880943809308 12.22205064803777
Zr 3.119790714114542 6.457610584584645 11.038808142312075
Zr 4.582413645052974 10.466438826658466 8.281350982058415
Zr 4.707060340561181 9.275368420809508 11.279774588417746
Zr 2.59419524930797 8.726847513959942 9.338133429137388
