49
Energy = -362.62207888 eV
Zr 5.208331787542044 2.9986439053664675 10.573890326706119
Zr 8.429222526748346 2.35089217283156 10.011236584961125
Zr 3.8912136895329996 2.8737989180794665 7.803116743979386
Zr 6.435636757926211 1.7893393880004238 7.934825893530028
Zr 3.1673596116647036 5.243754690906324 9.356234680276591
Zr 7.736550683491064 5.159596776751376 11.577706257987607
Zr 5.074691418430774 5.932480832955841 11.47543789409031
Zr 10.516984992607476 4.126854678849465 11.387966051233603
Zr 6.16401981312586 4.64380603900246 8.710962059793307
Zr 11.222933505976624 2.7803645506423758 8.9053046127642
Zr 5.692882352744667 3.4728169837862306 5.367762778592432
Zr 9.087985268712785 2.4766757875153402 6.998911742372213
Zr 9.375286688826723 5.017279022248989 8.852734321276909
Zr 5.010797691700114 6.85075680599381 7.123129032576018
Zr 4.235590003955408 8.101687641411134 9.86619069560861
Zr 2.9352962572562085 5.002124004536693 6.182504658540822
Zr 9.937771321555433 7.082703256297662 11.030069492797724
Zr 7.356260860412293 7.244021222609537 9.250517272362282
Zr 6.64577970439093 4.648499443674828 2.53779103683425
Zr 12.182022426664048 5.5306645809404715 9.356386502698513
Zr 2.324259139508457 7.8073039945976355 7.577612036841829
Zr 3.9878288950272434 5.047706028836063 3.4644923281864517
Zr 7.9046002772547945 5.127267438293009 6.466548416055461
Zr 9.10005944839425 4.333165947241686 4.002731184968587
Zr 11.256586780617178 4.67353825446641 6.389358652448996
Zr 6.91095171274677 8.35123316157058 11.670231114219959
Zr 3.2373126934549243 7.745163195045853 4.53022494135469
Zr 6.300581172326157 6.649434664583796 4.628096501785013
Zr 1.5949077070885782 9.95800967833729 5.88806646556554
Zr 5.231548826974894 7.287303269340887 2.080295685681603
Zr 10.636961045747029 7.6925860010494045 8.160879662705355
Zr 2.9292191299641877 10.78929071264485 8.552437057402132
Zr 7.7667044439890365 8.7007819339746 6.725950089636774
Zr 8.932149745715922 9.75946034174629 9.396917829798994
Zr 6.099529668833472 10.213125332606701 9.126136904536128
Zr 11.4209831745641 5.872713265292753 3.4640765213514904
Zr 9.661405314079808 7.121744846275416 5.32742524802003
Zr 8.547144744899539 7.157058917342256 2.542932953456393
Zr 4.627883275574157 9.852686357059296 6.377961143540698
Zr 12.512123054414097 7.477163861711666 5.764897716490109
Zr 3.3469843827846404 10.659951044280422 3.697483650888557
Zr 6.118651297444306 9.491502773402571 3.8432318238648246
Zr 2.8715070440717545 12.421565153091452 6.029916009445026
Zr 10.624440234395124 9.892727436732622 6.211402808573491
Zr 5.154701932600095 12.595477380963796 7.6591306008699656
Zr 8.816791212930541 10.051995182487643 3.9521373715039796
Zr 7.538702235554057 11.374492900379636 6.543314699394762
Zr 11.210171182660421 8.734757599612383 3.4398625952215425
Zr 5.482285188548629 12.337068054982124 4.707926098117379
