41
Energy = -301.18068867 eV
Zr 11.511612838984785 7.574675090218407 5.211208513391669
Zr 11.481430502226052 6.948536144851343 8.194737911582113
Zr 11.494336175333459 4.195563029078049 8.903918318573995
Zr 11.723361368277878 4.59350508709515 6.060988520958852
Zr 10.598705434003303 5.501203049008919 3.383480528117717
Zr 9.388406575580696 8.843117996765809 6.805123998040244
Zr 9.351195446094962 10.947532565189018 4.714985603263856
Zr 10.168628550374212 5.918852101677845 11.004497999782538
Zr 8.950063211255848 8.013315963850003 3.5582567088808226
Zr 9.358232623406431 8.467032703137852 9.640626791770119
Zr 9.584482328462393 2.6904685751209776 7.285983020403914
Zr 9.15032065552817 5.940252508034576 5.895358181186055
Zr 9.441620480825858 2.9819412292463254 10.245509164454996
Zr 7.876409031879354 11.406501232716836 7.236488603301417
Zr 9.392891472996851 3.2569209011755365 4.536643450556362
Zr 8.677809874636308 5.5061477582072 8.693004898067864
Zr 7.4642526110447625 10.449474880434096 2.5013281657871995
Zr 5.820090438132871 7.896075580787368 2.7109587389530274
Zr 6.669224798476848 12.278826393093677 4.6845807227263006
Zr 6.819970061162224 9.481217984582585 5.2118689667039515
Zr 7.398228383086029 4.442408634817642 11.339285755129179
Zr 5.951497397304047 5.759654085022956 8.560372656180737
Zr 7.51242698750832 5.275195985630158 3.4805834403979627
Zr 7.297829971254926 7.2339291543050095 11.090624883808037
Zr 4.699795913653681 10.608157246669467 3.396822758467223
Zr 6.434106581702701 6.870869164527161 5.730673659058592
Zr 6.629027393953857 8.865810838162883 8.536355985010704
Zr 6.7959229619557915 2.86527511057456 8.87700593523397
Zr 6.812962374595611 3.804563016840262 6.0608025175534035
Zr 4.686692382458638 10.654959795866878 6.5925359193910475
Zr 3.5428693555654593 8.222295701066214 4.491848613436151
Zr 4.072892501897822 7.6332677572959495 7.402979006613642
Zr 3.8656480849488837 4.017239831323037 7.257571263884679
Zr 4.594213442453238 4.243833883309954 10.444588463681127
Zr 4.300165412767207 5.3991807575275415 4.707448938713811
Zr 3.7003526802174065 9.999039094031419 9.180029896435746
Zr 4.152733016900296 7.391352203098843 10.638098111629013
Zr 1.966593243657971 9.492557698633625 6.741885265989153
Zr 1.8005939575704928 6.300958016761323 6.466336162982756
Zr 2.4157827551899724 5.427053530480435 9.238472707449105
Zr 1.622763668317609 8.000374913566748 9.131026335722844
