47
Energy = -346.13697043 eV
Zr 2.250781313383927 7.657534019209306 6.910294881593085
Zr 2.601850895092092 5.060961136378462 8.075748466723207
Zr 3.7377251936596125 7.992173324018975 9.24406425149173
Zr 2.9709037377280136 5.623860770831503 4.973077710258725
Zr 4.7871484097856225 8.209575986259669 11.86033303776683
Zr 3.3616753199317193 10.319270461698592 7.288911155976048
Zr 4.731867817334515 5.513805872687226 10.679759153542086
Zr 3.3191095937979296 8.657001995661759 4.481746223226065
Zr 3.997687404316806 3.2698554408233194 6.260471701280879
Zr 5.146945961998035 5.941547975281047 7.387321362207732
Zr 4.930406711415988 10.6389664833325 10.255994942211654
Zr 6.954600905100602 3.7127386599697982 11.418840697709285
Zr 4.3290415011068255 6.55888116913398 2.43207909375359
Zr 7.035487409236318 6.4812623586637095 12.409575265526021
Zr 5.222027368293628 3.9599828051467485 3.65336306981251
Zr 4.923293504556754 11.076946681578427 4.997905224575217
Zr 7.264684204665249 9.711387417080305 12.289238036404239
Zr 5.491221925278295 3.3874356887563133 8.840517831513715
Zr 6.914776493273006 3.3121545502734993 6.340133243859788
Zr 5.715781695209964 8.672677313395843 6.594211522511875
Zr 5.914260405450782 9.001343575378694 3.105029629134153
Zr 7.035738159829692 8.622051191844294 9.672770444143543
Zr 5.958474949221376 8.140896186543992 0.27416186433375916
Zr 8.565299561381932 2.8482257677579366 9.072155561834858
Zr 7.571226384519544 5.729474851216817 9.312588489535989
Zr 7.202712025447819 6.287147863018594 1.9793438916946116
Zr 6.249210732878165 6.321811459640353 4.829926468201606
Zr 6.292368820471717 11.38733174632464 7.57650024934575
Zr 8.683882756419692 4.464918568397134 4.074037352722021
Zr 9.607018469580261 4.788580806158394 11.226876673388404
Zr 8.838134202748133 8.51573968181294 7.223402240760105
Zr 9.060330784013228 5.6365130351441195 6.586492038326965
Zr 7.610571175075945 11.681884379890244 10.141995161791689
Zr 9.429263584303317 7.670025277089515 11.902971910831633
Zr 8.30316943134255 9.060956634797568 1.4825271670183513
Zr 9.690606182580353 2.6541486640506813 6.4040231075598655
Zr 9.888326109972603 9.977734262902953 10.358762653969608
Zr 11.09605721951381 4.277715289956273 8.440926088680301
Zr 10.568517929307534 7.054100980389046 9.427949771924535
Zr 7.858266732649822 10.50090099874699 5.070496568190623
Zr 8.594010798396463 7.818910205247924 4.1399738303114635
Zr 9.323711436125308 11.334447150099935 7.76420747554387
Zr 10.918952241846911 9.425547406044764 5.331760629026471
Zr 11.034978225589393 6.68431701013648 4.113773710557216
Zr 11.60171376577518 9.517910130014734 8.10432147285047
Zr 11.548297292930984 4.345563159954965 5.434853553736296
Zr 12.012101517926368 6.911635873032987 6.873882323752338
