49
Energy = -363.28603705 eV
Zr 9.746284920730933 2.472013432510744 4.719825814051767
Zr 6.928874282998863 3.3078120875502677 5.256342523716578
Zr 8.701874327496196 2.623341128744316 7.422896828570694
Zr 11.510190177474573 3.178346949106756 6.781997102501083
Zr 5.233261514714345 2.904648811785547 8.043083108535491
Zr 4.251756745482911 4.339804985907696 5.521664773706969
Zr 8.5949476547394 4.585375915086543 3.0203779961637185
Zr 11.678060325162182 4.811117779379009 4.290752343454736
Zr 2.366133766668129 3.7701903159121293 7.631557706628917
Zr 5.402146834168694 5.01255276949804 2.591211109038189
Zr 10.107056087779549 4.6382020380074565 8.934853217067298
Zr 3.3452026649512314 3.825249525699542 10.26963494551553
Zr 9.430989397233567 5.3266209932917885 5.814948019174059
Zr 6.29699574124917 4.489202847890955 10.511638605512893
Zr 6.74815933682971 6.4286461720876495 4.6553663780149535
Zr 12.207255291288579 6.030601690573872 7.302066073343114
Zr 7.208519361047409 5.282460469735586 7.74900399817664
Zr 3.084785715928902 6.306240084396744 3.685761723342586
Zr 4.406139153311328 5.851069262058613 8.401967958339412
Zr 7.330019583226961 6.813539476087196 1.6070573970805686
Zr 11.383913049545232 7.372277513907652 10.099820252950318
Zr 9.821265285833567 7.1926655069233485 3.1401428830174405
Zr 1.7104073535003832 6.228208055406362 9.279780025741179
Zr 3.9840426864756484 6.3801686336329935 11.47692339201689
Zr 1.7766394683506475 6.233013058338606 6.185827023316117
Zr 4.918014084195313 8.201105683608294 2.7484244261753688
Zr 4.4841723872417525 7.739597675408066 6.083190414499727
Zr 9.554576418647919 7.427110137422246 7.784545824836651
Zr 6.637847469506739 6.526756800814563 12.80840215736691
Zr 7.600470632251136 9.571520872375745 2.478346825282845
Zr 6.494539175504962 7.5451411549820495 10.034953150502115
Zr 11.588723499461699 8.006322603273237 5.308745042772854
Zr 8.908167831251133 6.428922465105514 10.871709878562582
Zr 6.538731096574588 8.839008562108255 7.621296024860993
Zr 8.2752263278329 8.832474723844195 5.265852347254837
Zr 5.185885599063597 9.013832610536484 12.338935294457418
Zr 3.789584738335643 8.856696675533177 9.65823861569926
Zr 2.6091554864867543 9.163826255627832 4.731715701267268
Zr 1.896469827005338 8.70460726585054 7.587790011862533
Zr 10.403257732689866 10.083570709506722 3.5753369785200384
Zr 5.5811078091764035 10.416871088175217 4.694420361391359
Zr 12.026180501865923 9.025258882364882 8.06120218668431
Zr 8.075766402263486 9.050857115324694 12.119053589477495
Zr 4.083545554936752 10.630821723428273 7.20270060699429
Zr 9.037355921725934 9.610585588483909 9.372689349365343
Zr 6.251629472580557 10.572213061978696 10.083488955136723
Zr 8.290282089397557 11.716435751292439 4.421329303638301
Zr 7.280173962276453 11.49585830892432 6.987915845073404
Zr 10.23056814946337 10.682697822083641 6.528688900609976
