43
Energy = -316.66530635 eV
Zr 9.22830700265394 2.618148323326727 6.370604878841752
Zr 11.066988556669026 4.797616355079282 6.4919047104935155
Zr 11.127722244522174 7.56970998928879 4.733781189018554
Zr 12.760500873669818 7.172820108198252 7.114447977363878
Zr 8.318122110672556 8.008148480021822 3.8273545235504227
Zr 8.484985673526484 5.444136254639323 5.228771630200713
Zr 7.8386198574438275 1.957017351688061 8.773287897402362
Zr 8.301248716841739 4.897446957974073 8.178639751108525
Zr 11.923035873321021 9.78195753295774 6.82081159799752
Zr 10.436560950573169 3.163782616998392 9.062815594181764
Zr 10.316639149770172 10.455271480649717 4.27782892862467
Zr 6.471998130576624 3.187593865681981 6.404387128069615
Zr 9.701152778795397 7.502383888073539 7.265700365108243
Zr 5.796837240861003 6.077718763201857 4.4528247550581455
Zr 10.822457392964608 12.381951000666815 6.649179167291454
Zr 6.315759277333583 8.579711337803655 6.329083945060683
Zr 7.2351343441444715 10.670736123184021 3.7404550585969694
Zr 11.845638239927794 5.6185997145973365 9.133703651264856
Zr 5.4611619228975385 3.5215639108044425 9.230103678559
Zr 5.238147682825784 5.795521134735518 7.201693748396889
Zr 7.896631595352747 4.017616227647645 11.067616872422752
Zr 8.640442813748463 12.879240682532512 5.057549333409603
Zr 5.402197691191041 8.37821123632399 3.2389741675879393
Zr 6.446300947639497 6.4750968883894915 9.830118093811594
Zr 11.561340022328844 8.437141639547896 9.628393706513663
Zr 3.5179816746294206 5.690337840947349 9.728259167817312
Zr 5.211907635943832 4.731249226359451 11.952834633128846
Zr 8.578718865552945 10.38468825662214 6.602208978709961
Zr 8.28790014257421 12.947202831881865 8.089539906850659
Zr 9.551672848243758 6.410330937985633 10.649497411184411
Zr 8.034558342672993 8.997993756533644 9.190635387931149
Zr 4.34946789445125 10.492437987778667 4.4671557725779865
Zr 3.5778413634228734 7.8717224777837504 5.672677746653137
Zr 4.366845894537809 7.378119361538063 11.88373191026638
Zr 6.010230745213286 12.18112964918212 6.109550047330259
Zr 10.495100186096037 11.104358382748222 9.240056556786113
Zr 3.782753929104953 10.459525719090216 7.129385499837647
Zr 9.247993070208214 9.236220813002245 11.756972470705145
Zr 4.3543625757359745 8.415824898614856 8.972770542897855
Zr 7.248026817446592 6.934662535725588 12.612906657120545
Zr 5.782174626074551 11.287219320963652 8.907198744596593
Zr 6.164482406627867 9.538850094758718 11.466608366464511
Zr 8.052863312035548 11.607818058969963 10.703144627241192
