49
Energy = -363.13039845 eV
Zr 8.922511906335757 6.1356362428677444 3.3891213757370626
Zr 6.573971519111566 4.358544295040118 3.0989208777193937
Zr 8.490397119581518 9.066273668045545 3.9157443490872064
Zr 6.094481983886196 7.4146419505293215 2.7211174124875535
Zr 6.848587238595634 1.6992099070378146 4.59529631588908
Zr 4.334188536626786 2.88564557748174 4.394215284512664
Zr 3.694897164780175 8.460469915851437 4.104027580717776
Zr 4.0506820332890685 5.671329219737262 4.222047079484716
Zr 10.587555918540815 10.743199824302696 5.198912409732715
Zr 11.326056517814159 5.0494903765766415 4.686717623253256
Zr 9.11779391576541 3.3144863146138817 4.587049095642549
Zr 11.001100051696785 7.9474777799079845 4.889019900115463
Zr 5.912458062714654 10.266019654516692 4.251967486514034
Zr 6.230716641558598 7.53942227982751 5.5737056759584815
Zr 8.167852163548565 12.325247685809245 5.344118517187553
Zr 6.510040776998634 4.340296506212486 6.113967387801264
Zr 5.094199264686936 1.6638885403855308 6.836418260381312
Zr 7.885422254467857 9.96946224329778 6.810202475674911
Zr 12.701203432094225 9.722735906438453 7.122842243977507
Zr 12.190541508005596 6.438249234312575 7.046291392992612
Zr 2.8831815349274024 7.1399931204206615 6.658963063788696
Zr 3.819268772521463 9.928450779423205 6.590542441239686
Zr 5.528566051444534 12.08132056407003 6.509842971095399
Zr 10.718183051535568 3.6411589930757473 7.162830388664729
Zr 3.544964266388984 4.252352074532306 6.956073397639099
Zr 8.071656683640306 2.0823627725854736 7.268113373512036
Zr 9.092749270954304 6.07131860899106 6.559398009410969
Zr 5.4888349852236 6.462688459235235 8.278745281070172
Zr 12.752927203497006 7.923734610818384 9.531579084010536
Zr 2.910832793646777 8.809007440946779 9.227857137343452
Zr 10.280104175561075 8.713863779226488 7.952240442999331
Zr 5.969086205703831 9.621079234342627 9.027719467212263
Zr 11.756535095896078 10.546435646300983 9.858365794666781
Zr 10.287291146409059 11.86561197180287 7.711674420239562
Zr 4.170270119008447 11.767541047453658 9.172965963160246
Zr 7.303390820885346 12.596474927659484 8.533327136021938
Zr 8.072659200932943 7.322609626990635 9.388900462848643
Zr 5.591563943828217 3.439482528299947 8.932679993571856
Zr 3.049183020153504 5.737528845645462 9.474659555986939
Zr 8.280065728437142 4.33754103862868 9.235365834522538
Zr 4.343795085064905 10.036506694464608 11.541864192601615
Zr 10.84985414278397 5.7141678484987795 9.540559772323974
Zr 10.445844651839936 8.262861250483093 11.291202340256078
Zr 4.375622948312253 7.3759620989781345 11.325272919687489
Zr 6.265043467378429 5.40671156088795 11.233207631392148
Zr 7.098485664220141 8.60447167001015 11.84315540265222
Zr 6.491320760196486 11.690418260583721 11.195664872552937
Zr 8.863068684476135 10.568123261942805 10.102528410774314
Zr 8.913414794552017 5.873570566689547 11.810742750941753
