41
Energy = -302.29997361 eV
Zr 10.094904118036624 4.053989661220726 8.671878756215598
Zr 10.956170887439205 3.603058082704635 5.748462985864259
Zr 8.425803162421747 2.5033549378054296 6.493650930739941
Zr 11.951584710084601 5.996552189776872 7.115513549496487
Zr 10.617849718665697 7.016079176846674 9.633908382659389
Zr 8.355401751500382 5.428945841767668 10.786192187941788
Zr 6.992774446638178 3.9010638336077665 8.689617470156614
Zr 12.051910385422905 8.889887860203936 7.996870277898615
Zr 8.307284760622522 8.257531519288095 11.106020330881778
Zr 8.626833036807144 4.131050038271412 3.802783101030858
Zr 8.764385174907575 5.362097461784876 6.437883439489549
Zr 11.050626392136735 6.042532671100042 4.129266725710577
Zr 6.027938774488315 3.9492697658460387 5.499233061771275
Zr 9.608135470667676 9.950432809636217 8.982079675732976
Zr 12.532293427750608 8.311620908318345 5.346743200265937
Zr 4.432212379022893 2.657930371694087 7.708376637849553
Zr 4.369485731460926 4.156753107210637 10.253676495432911
Zr 9.624173756674178 8.302454052712978 6.219661005511357
Zr 5.636708550480134 6.885042801276183 10.490553149246391
Zr 7.805112993648462 7.278527744828191 8.43024075595382
Zr 4.744444470831857 5.567955184216829 7.653985759370652
Zr 2.598499591484891 6.657898998481196 9.92109111298684
Zr 10.679294434666952 10.724367640973165 5.939559423270691
Zr 10.674829563996294 8.958575595091748 3.4170016997862995
Zr 3.8700294746489976 9.387644167880188 10.48748869308582
Zr 6.01812421289039 5.545066496889484 3.0400316549265187
Zr 8.554735376255184 7.122391095776063 2.795923276549235
Zr 2.095223068194532 4.1897833227816434 8.43972034725299
Zr 6.482241462055795 9.844693533177452 9.288675463256652
Zr 6.876220101011524 7.323577907717604 5.360263775197953
Zr 2.977528643467066 4.218417444041601 5.667322287579169
Zr 7.714580525323533 10.742861272852217 6.831415823762216
Zr 4.401432973183013 8.21887325295174 7.793733951030073
Zr 8.098811142318109 10.023894194449307 3.974091809484022
Zr 1.657999392476222 9.184616350299262 8.638522892897493
Zr 5.823848408475922 8.38055949393075 2.8803110167105253
Zr 3.9277083874847034 6.963059298744804 4.834086652301359
Zr 3.8549406196287617 11.042219779768283 7.999251944083172
Zr 1.7101265626969855 6.697341397352861 6.988359789780919
Zr 5.31975081627565 9.903008162009973 5.441937299072616
Zr 2.475291408098323 9.450992841472155 5.878859640652759
