49
Energy = -363.0881277 eV
Zr 9.044789403152533 12.105063053379702 7.792099620818936
Zr 9.311641395552162 10.722362754472881 5.028654153270341
Zr 11.564597300662014 10.56599973872064 7.259568049100052
Zr 10.03207409198647 10.72306682101228 9.991102409492436
Zr 4.328268629510058 10.84258617292133 8.247492030446415
Zr 6.686524672479231 11.468567376313636 6.428188951866519
Zr 3.5674772490329207 10.510903076723457 5.6487536872873685
Zr 6.663070459991699 9.955482311775762 3.825860189660336
Zr 6.9310016244644945 10.151025299582441 9.394492814526831
Zr 12.020710357340347 8.809839504343419 9.697953550325026
Zr 11.435388194300161 8.522463751905896 5.005002256942198
Zr 9.193027580801765 8.367932678985799 2.852897208432426
Zr 8.990689419253439 9.205285234024226 7.677185624559303
Zr 1.6533266768910138 9.448029313694157 8.047883628052137
Zr 13.299795600269688 8.236799333844488 7.37529453662855
Zr 5.9925629214429375 8.700589729092242 6.682940423586153
Zr 4.347768658859272 8.456009906578164 9.914081993571168
Zr 8.29842970296883 7.509877624150176 5.226647651716169
Zr 9.54875669933469 7.655691058741489 10.542681125225243
Zr 4.0145640488744725 8.17490842904379 3.9046877812197756
Zr 6.417715011570034 7.409498330654473 2.594513068350769
Zr 1.3180305435611088 8.73428164324366 5.1336073875174275
Zr 6.737664196426133 8.115784506072465 11.608106899250528
Zr 7.287277966794694 6.876066601278387 8.89025448384776
Zr 10.45806095394414 6.851489999420528 7.491048906019706
Zr 0.6244890340369845 6.734252612347732 7.034798780891267
Zr 7.788076539010722 5.472908402173749 11.571759698971801
Zr 3.3867776030502834 7.689751173780409 6.923532872798422
Zr 2.2401714792520884 6.396166329205583 9.550710382057822
Zr 7.911361561363962 4.80677974958806 6.64199752357293
Zr 12.937716780866948 5.92290294210893 6.028004860957431
Zr 4.932151002374141 5.710823757181734 11.279275431556576
Zr 12.50810254457941 5.865638531822922 9.038763853875226
Zr 10.63573057922142 5.6751153794513005 4.359138107122266
Zr 2.2014343253395965 5.88308827814801 4.552764711935591
Zr 5.397024734329056 5.73714147019959 5.279429734545958
Zr 7.835098564506367 5.1041603273235365 3.1912011838540533
Zr 9.49728482701563 4.561690717160311 9.344849878440357
Zr 4.719306438659979 4.85562062152274 2.7539085465215525
Zr 4.8722780427198575 5.6325782196736345 8.231298864231723
Zr 10.986630384565398 3.9123463687071336 6.9686928976856075
Zr 2.288936225299171 4.402969554754295 7.210102689099557
Zr 9.421449624460777 3.0717180232444186 4.65910755182537
Zr 3.6084894856707783 3.5788524460989706 9.71790941446392
Zr 3.5683118348452836 3.2913706433890177 4.899882948046184
Zr 6.640688264968122 3.541155837185198 9.743461709397414
Zr 6.511443675208221 2.8447615785578524 4.654238526049267
Zr 8.309324537861288 2.1848854190413527 7.299379657673588
Zr 5.181782237644615 2.7115358735492925 7.268387839215731
