46
Energy = -339.70241414 eV
Zr 7.669264976876638 6.933842496537742 2.6499429005889614
Zr 4.797713510148258 7.14474130796186 3.064707350231266
Zr 8.977035901475537 4.0224338455412 3.4451408295245383
Zr 6.306454675494189 9.824719602434802 2.7736932957995863
Zr 6.974507037347341 1.509032932455017 4.342151406115497
Zr 9.895811529378188 1.8818057859294846 5.166542708867758
Zr 6.204528729065899 4.440671577547862 3.4769397827249455
Zr 10.679714153567982 6.501616418688161 3.738740435154701
Zr 10.931557888754227 4.405989050766768 5.875346915436532
Zr 9.162545455388141 8.981014217561611 4.141314882477468
Zr 6.372711306348401 8.81772022337945 5.264533720450949
Zr 3.561971129473981 9.463779696008235 3.9676086035755214
Zr 4.445057530856107 3.210599680818001 5.405562586022355
Zr 8.281016043110624 0.5922212258421026 6.958928532706307
Zr 7.430077467935336 3.44280266363064 6.293091330257459
Zr 8.419175554672197 6.293860165841937 5.53881150959241
Zr 2.566801238588837 7.196279724363382 5.452276806375246
Zr 8.044928472710698 11.464471573945255 5.239889380813624
Zr 5.614815396560203 1.0658324014131666 7.026708896796734
Zr 9.997997661643216 2.636644984035127 8.22193209442345
Zr 5.499569207819465 5.996838031582631 5.9546456295904155
Zr 10.890635841066207 10.507608433316815 5.951259488317133
Zr 11.01356280508629 7.463860525540523 6.653092628060371
Zr 4.761907468890103 11.53524097926048 5.36637610449882
Zr 8.532917452163181 9.088871540351793 7.248070591631874
Zr 4.844748672759755 3.3639094204467916 8.329048443015848
Zr 11.284546795332155 5.175140765616222 8.62768927497865
Zr 3.6116280768503195 5.867024637636578 8.021200480462005
Zr 1.8992614870553048 10.217566716652497 6.371983720944667
Zr 4.233679620204688 9.03959147967367 7.406029099375857
Zr 7.339740152923022 2.2835120076101667 9.315090530674214
Zr 11.03835150546263 9.820606249666028 8.719612864344422
Zr 9.220560299607554 4.555128028911341 10.74674013899851
Zr 9.309204268757172 11.95355304500646 7.905105495508308
Zr 3.733859331827235 11.954761625279893 8.127367676320617
Zr 6.2817263555104565 7.558779152174192 8.583819631296382
Zr 8.180172009074221 5.261404859863499 8.360103746717234
Zr 6.50267909334389 11.417723106457045 7.80956961863735
Zr 9.895037338252504 7.442835857503509 9.752932154120137
Zr 1.5129734918588058 7.775369021035192 8.109660567129831
Zr 5.9233134713814755 4.906226026694326 10.439243063260086
Zr 8.340964156702857 10.074959354742516 10.057235889665003
Zr 2.2408699126192504 10.082346867514195 9.43591954225746
Zr 3.784150291233257 7.643547304182319 10.25921573707532
Zr 5.176892892033012 10.129659406779082 10.169063667972827
Zr 7.411565259646263 7.155640692494409 11.11162571460682
