42
Energy = -309.2336131 eV
Zr 9.256577885099372 8.800739832655164 10.922160027416258
Zr 7.055328644625184 11.063559506583058 9.615074170871512
Zr 7.606017351895849 6.431058015089191 11.740851229143969
Zr 5.837265075696973 8.504528141044217 11.255201499026096
Zr 4.160144198136874 10.598595863039925 10.00830911552856
Zr 4.911805134524099 11.785203991978017 7.367142349319252
Zr 7.711212892040046 12.762019003432576 7.306632768098528
Zr 9.760677173613185 10.666429709194542 8.169555943237823
Zr 8.050573504205131 8.129542136097283 8.797005271187079
Zr 10.170606836396301 8.935626026210624 5.70696512712557
Zr 4.720432347728937 5.544952056365137 11.35515630706132
Zr 9.469113646912472 5.613784743150747 9.77534537255005
Zr 7.190996876693585 3.83691062423701 10.84915652686072
Zr 3.0581763497398162 7.81288956025245 10.01826354445817
Zr 11.043866879689247 7.54764418718444 8.230110470794001
Zr 7.291215877936393 9.912034789997966 6.626068883372092
Zr 2.615848249632878 9.812177729782185 7.607293305001718
Zr 6.07421756434352 5.886778953222727 8.826023938313519
Zr 5.082153275654517 8.594181328201728 8.193909075483585
Zr 9.232882555430615 11.568127161970734 5.199053159789689
Zr 6.378804183101902 11.928885000479967 4.7628097020001094
Zr 4.963860752512477 3.157909865816321 9.270386794122915
Zr 7.562413173132852 9.231684702693311 3.8602652419406143
Zr 3.076541318124433 5.133582598181174 8.808614587848355
Zr 7.717595532114044 3.526335690650711 7.94563636403903
Zr 10.789146707765493 4.268181540735939 7.168431767049765
Zr 8.875884394103462 6.395012442805971 6.632267426274714
Zr 3.196067068123388 6.952417895487438 6.639952111699832
Zr 11.580960490089163 6.4265987263435305 5.426200043381123
Zr 4.573839948042841 9.451909441181524 5.170465447711086
Zr 6.203967324595137 7.0621776053427165 5.746566725019807
Zr 9.297968540282206 2.0185653055925785 5.951241426818175
Zr 4.717851908384954 4.215239496062234 6.397091279836124
Zr 7.666081359875568 4.463770526062802 4.984489808347943
Zr 9.438993503885424 6.870399309777209 3.4011715944302283
Zr 6.4235984609844445 1.8934705005302912 5.693664645241478
Zr 10.48622694626375 4.037675389152306 4.0686561840608375
Zr 4.008082757405431 6.10987394095646 4.023918097971309
Zr 8.198312078227273 2.0634229585029322 3.352428483677266
Zr 6.433829677327787 6.5582071238277715 2.6568943623704504
Zr 5.5845688698789875 3.6178357183028007 3.215709411468809
Zr 8.242898413366108 4.541850465574164 2.029847365882248
