42
Energy = -309.86456295 eV
Zr 3.295504574244967 8.797316050980106 10.18046808698816
Zr 4.094583257970664 10.477280054904497 7.8215643998668325
Zr 5.965305373705021 9.85482279415455 10.20208148867255
Zr 7.841845093299533 8.639276693548121 12.091120619683496
Zr 5.298392324984389 7.073299438762467 11.293404973588283
Zr 2.0811615502397514 8.213182789648206 7.821603441261557
Zr 6.979953425656953 11.304965957429003 7.771293829285244
Zr 3.0803973298994567 5.887704078069518 9.368665509891716
Zr 9.074678975109602 10.282530790927307 9.930608974946198
Zr 8.262065806661496 8.664044287310082 7.080972832331425
Zr 9.909321244509869 11.232633400862182 7.356965029874492
Zr 11.824810509194736 9.588668379642323 8.73092729004835
Zr 5.102943328166932 7.409950028974135 8.06481644452512
Zr 2.930359457509294 9.314944823346568 5.313299395244662
Zr 7.614100806800462 7.328240993668854 9.510729300770967
Zr 5.390404843628316 11.157059124625823 5.129058866655757
Zr 8.675786247371098 5.876478871581508 11.681190728406362
Zr 2.921590253251568 6.238491981925973 6.05220505141911
Zr 10.71839964373404 8.233687520470527 11.386617797969906
Zr 4.5617624146084434 4.041590056142578 7.206348068037615
Zr 5.989722952545819 4.786884837571598 9.6663347805138
Zr 11.325624438449584 5.284643985213939 10.96758868238892
Zr 5.72668417664138 8.188154547015245 5.105212763170549
Zr 13.110967608042833 7.134685911904589 9.830911319046068
Zr 8.372586855388892 10.819968844998309 5.08339657756828
Zr 4.356753429642009 9.60883320338513 2.767152912227858
Zr 10.367858592744886 7.040875218664373 8.648154880836632
Zr 9.24809692019375 4.2606372741717 9.00962617044521
Zr 11.004532549865768 9.017912607418666 5.760290321139165
Zr 7.367414763423593 5.512510296248062 6.76438312934578
Zr 7.008359805817163 2.6401207204236212 8.022136987034513
Zr 7.11208579241918 9.75817359735124 2.819062418874113
Zr 3.391802349227264 7.058414179858039 3.3540944690740795
Zr 5.2900125137446645 5.137079253626644 4.3496281985081735
Zr 8.53846238426251 7.604040415823397 4.227794375445396
Zr 12.858940152480264 7.257489488673407 7.014562468769031
Zr 6.085955519220413 7.1676450551887285 2.2831526690146884
Zr 12.164797262189078 4.737048207878689 8.254725719690727
Zr 10.374984543861697 5.8514742916455775 5.903245193229884
Zr 9.240591006105472 3.0888306756964092 6.2185371644759035
Zr 6.533697985892205 2.8115091673639734 5.271567292529393
Zr 8.307404033916619 4.6997144283870025 3.9619055336727294
