45
Energy = -331.98708057 eV
Zr 9.688979261740256 10.289941757028995 3.9722693312979396
Zr 10.550216537633329 7.614293610924622 3.984568006309715
Zr 11.15835632634412 4.843688968342466 3.9088830709212914
Zr 7.872897311309994 8.34054263240153 2.6332315580909604
Zr 8.661191551150726 5.523091992817675 2.757217046031686
Zr 10.734983379725747 9.436874012247458 6.560954134507339
Zr 12.031111363450833 6.352918216971799 6.340587441279579
Zr 8.33155623340571 11.391234259588032 6.271974489385311
Zr 6.8863194131762535 10.78463193577591 3.985973193604999
Zr 5.156477624963459 8.553509344261217 3.621692164401008
Zr 5.410557105277399 6.075843447030605 2.2528303481881378
Zr 8.09589676405079 8.4244365230301 5.766890191155023
Zr 9.269040809741405 5.466736288926188 6.256605307242007
Zr 11.376734891034623 3.39916302617185 6.131866365149392
Zr 8.884127898417091 3.034667993132075 4.501625239056509
Zr 6.5313415302574205 6.003587039105205 4.857479244222514
Zr 8.26397486817412 10.007903023045802 8.552058714742799
Zr 5.699557047906979 11.628678199420763 8.614829228905469
Zr 3.069413396712584 9.869377560789264 5.013609295916141
Zr 10.105507178168956 7.415621011447866 8.61795152674745
Zr 2.5356884085596594 7.103996353872802 3.8665412641010657
Zr 11.09705948156591 4.707283265996516 8.579061715384496
Zr 5.6752233056383945 9.812039284449687 6.5391294475172055
Zr 3.920712991272392 4.535354501623184 4.59629485823908
Zr 9.824177322518032 9.426123132000914 10.956337718302951
Zr 4.023586673509603 7.371792177916686 6.429347107001159
Zr 8.84308382446057 2.760958137134738 7.495149493101022
Zr 6.364085412056604 3.687649783538502 3.100057527828135
Zr 2.9548954716589635 9.772760463670702 7.900568829918435
Zr 8.535897918947086 4.7549199127643655 9.789617491596356
Zr 1.1728130688927585 8.10627190095784 6.362828397585558
Zr 6.964152783983512 10.291422858307378 11.309793360825253
Zr 10.04237337032882 6.600386547750393 11.618406083850406
Zr 6.2388442113560485 3.0446364774717782 6.016931519568144
Zr 6.622205295125847 6.118607136437904 7.745782776324022
Zr 1.72149214808417 5.461133609820318 6.233036164161101
Zr 7.604512572047527 7.582000421043028 10.2458032569763
Zr 4.00665275632894 4.335752673526887 7.5692117615959225
Zr 4.993492523348908 8.73302852928477 9.424512796200174
Zr 6.318652489109488 3.2578832161729423 8.887687642948602
Zr 8.200393511396802 8.31278507681496 13.095432589005638
Zr 2.505096249516043 6.862971025842306 8.83080831462244
Zr 7.382350496686804 5.632510140618696 12.486134047467313
Zr 5.479156995770865 7.8681951994295645 12.22617581906335
Zr 5.230450540378079 5.652312279383818 10.187891384507354
