45
Energy = -332.40481159 eV
Zr 6.140698616855894 12.160565461600706 4.605721826750535
Zr 8.565111523183491 11.948117083700039 6.246319770512978
Zr 8.039577098474922 10.031025492177976 3.739319844307039
Zr 5.828032741489892 12.535149202518998 7.356487546167242
Zr 10.605444449043967 11.215998991386334 8.037615151281324
Zr 7.7543187884333005 11.642362063129791 9.205808103816947
Zr 4.909897140808132 10.028687590844646 3.2234686426343253
Zr 3.7581414007839005 10.921724385783802 6.012117188526117
Zr 10.339547802156574 9.29277354198884 5.649257227754613
Zr 6.413612474297602 9.77061426300668 6.393648144670839
Zr 8.670608090712065 9.054298983256588 8.155161414875298
Zr 9.916392186464021 10.069490108172477 10.549284034723126
Zr 6.694863456686475 8.002917493364393 2.2649875852796666
Zr 4.903886904196595 10.144342477019512 8.969420410569027
Zr 9.431415857253176 7.11278944601713 3.210145489418379
Zr 11.597505223290812 8.48803465191576 8.402555852402587
Zr 2.4323549922127636 9.009270179568736 4.381627223102981
Zr 7.046765578686148 8.929877903522769 10.647454191051853
Zr 11.099910298614184 6.3708481488425655 6.037523861275296
Zr 3.795319349157515 7.0112410841205195 2.541615454141448
Zr 7.944577857453827 7.288648670798922 5.362369749864779
Zr 4.9403093024871225 7.456922789586068 5.006455619311922
Zr 6.515321434273952 5.388673993970335 3.1060004291675685
Zr 11.786790753284944 5.679095968230379 8.916578053353614
Zr 8.993411225609265 6.2005498558478696 8.077002837955613
Zr 5.994197490211488 5.020632266765512 6.149566890024314
Zr 2.1357075375117804 6.404056182155045 5.126953842976592
Zr 5.922598517938052 7.128764321376455 8.215367543087519
Zr 2.937249165537381 8.349045227799797 7.385850586741325
Zr 10.042705322369358 7.282751684112583 10.76288263348858
Zr 4.085154414172489 7.21337136501349 10.11891868579786
Zr 8.84805290552222 4.335853573684217 5.230981472245828
Zr 7.164392596208207 5.888583573766538 10.730923599476402
Zr 6.395497214606469 2.7109346629145055 4.4508379888234435
Zr 9.65454486169877 4.219036961889376 10.35478954169939
Zr 3.2877969442124555 5.401199116717173 7.5438677102270155
Zr 3.936766026180224 4.341888650385117 4.241712455071488
Zr 10.349289865359278 3.497359181003691 7.523321110976121
Zr 7.390415248685446 3.860110177278006 8.36755560043028
Zr 4.708664051691425 2.4446673340032543 6.924816850830357
Zr 4.720921067280845 4.112918569380414 9.685734187966087
Zr 7.701823902613316 1.5054732065705179 6.655084381918307
Zr 7.047441204524461 2.9655406475500956 11.189259288646134
Zr 8.855249673069258 1.4952822393177925 9.38544135208415
Zr 5.9870424316543 1.3130090018707503 9.106739574847111
