44
Energy = -324.84008205 eV
Zr 1.8567959242806165 6.3896674366060635 6.327678377006636
Zr 2.2037279905736478 9.193176247082423 7.671259750883729
Zr 2.207595598440355 4.104691727814562 8.392602856689034
Zr 2.7428003680596373 3.666859351528011 5.4673603997162905
Zr 4.17128079787588 8.733982926623334 5.417618266909979
Zr 1.5440707090706183 6.833959636741546 9.152475531396853
Zr 4.224173054726995 6.038587165899792 4.495776591072741
Zr 6.215847279681531 8.01054837106107 3.172282379078487
Zr 5.881115450987637 5.135149198525021 2.3616411570276528
Zr 4.1185608084623375 1.9204436262299738 7.205513004172329
Zr 4.624821972146098 2.8715074576551682 9.73307011687212
Zr 3.4541873189153263 8.7019856586087 10.324487253897782
Zr 4.9860179959068915 4.678142538832455 7.326064061930696
Zr 5.132867818510203 10.114366059076422 8.079949258782023
Zr 8.088516874206814 3.541405972965597 2.9032517373865354
Zr 4.325980560950137 7.227166362494427 7.984312218375993
Zr 6.474013340518678 10.72545343375001 5.082844184467861
Zr 3.75073415490809 5.56598898812175 10.611402728925352
Zr 5.687046515026993 3.0756586155978636 4.82403564466922
Zr 7.146138554353593 5.476813340303313 5.054290680752002
Zr 6.873468321076553 8.217573569752302 6.309725466997111
Zr 8.56225821998328 6.445158672220074 2.1608593957758724
Zr 6.254775172615053 7.679393329223813 10.261714449092462
Zr 7.138898169873577 2.8939070877178805 7.886021457250226
Zr 8.876098130382807 2.9724643838393594 5.558170930952275
Zr 8.90557487115066 9.319178342126804 3.3012209624884936
Zr 8.009016479474072 5.947106816006105 7.95432566224281
Zr 9.480904760890558 7.092530309964784 5.2315690988598575
Zr 6.4603289297372335 10.729823397644275 10.531304461114107
Zr 6.5899715920125095 4.801512172737334 10.203805058890413
Zr 9.228315058694445 10.455513661074669 5.945668475485639
Zr 8.424614574316758 9.12490034081985 8.881271051994947
Zr 11.223390282322848 7.388980971186031 2.8203009642246673
Zr 10.611101308997453 4.663406568202866 3.773822393053973
Zr 8.425027028757809 9.00784771621806 11.947317951160455
Zr 7.7751796663745045 11.897995765147112 8.058442530937295
Zr 9.421353188887535 6.6907213100302805 10.358935462477262
Zr 10.569742064100547 4.746624842952151 6.948184129728497
Zr 10.878889962641258 7.739502147425593 7.770084640683124
Zr 11.5619890693139 9.230427492508527 4.992352930079646
Zr 9.214365864564623 11.480425340508667 10.640713353229986
Zr 12.355254004048616 6.487039712963534 5.387055083152497
Zr 10.762002388240662 10.943483501773647 8.223876467135732
Zr 10.986499130199821 9.178959824738483 10.469496918905046
