47
Energy = -344.36412795 eV
Zr 7.819673454965612 3.4872040586839543 4.063474840785735
Zr 10.77718437056161 7.234909339065482 2.2183727757470146
Zr 8.538734379665112 5.603811330537115 2.349174375802182
Zr 10.689172210568215 4.985972025023705 4.192563751719017
Zr 12.273136716364851 7.479387943765274 4.600657617947332
Zr 9.824323590584354 3.2964271318555487 6.575772198121869
Zr 10.862733996563515 6.174592909313342 7.037418767362198
Zr 4.913576615620772 4.051445135512277 5.267233306515037
Zr 8.00019902903544 8.479442807238376 2.159545595201012
Zr 6.918103851991637 2.777080561030215 7.021348410578864
Zr 10.785824894640081 9.873122532345533 3.52622082089014
Zr 11.117182405688897 3.9708319614537553 9.10529509196786
Zr 6.062789115706437 6.138774806102371 3.4211831438546576
Zr 7.814601812185963 5.57481579058919 5.903202643820023
Zr 9.318274274723583 7.856562014482531 4.841200063370216
Zr 11.474276905068972 9.216919451847982 6.623079855600507
Zr 5.373515562812215 9.106462939832788 3.7520111074196643
Zr 8.843014938552942 2.2369246290904607 9.141342428573083
Zr 9.042934515277421 8.370753549124942 8.222945546148576
Zr 4.106233111549473 2.7665583886819096 7.903540717004632
Zr 8.335656728442249 5.25947265196666 8.857408547281677
Zr 10.753413429458302 6.598853416435343 10.139223867774573
Zr 7.903985769903141 10.78729243894854 3.759125766666753
Zr 9.145914889038764 4.143905784231774 11.340283459873143
Zr 5.268290312570602 11.733542341944869 2.6495446182810776
Zr 5.43273097067219 5.46715044553308 7.982849463009155
Zr 9.90139410637503 11.15086769203636 8.981414092009409
Zr 6.723092078651673 8.44958421663835 6.246466986208732
Zr 4.0093056711391855 7.033491435259 5.569277282598011
Zr 3.215442153323054 10.974897618503828 4.324393066839121
Zr 6.162082546828272 3.0958807229956715 9.964309290844094
Zr 9.14877200457385 10.817567498729952 6.325073735944714
Zr 2.613690898597409 5.007464242690184 7.095801622393312
Zr 8.47779880864161 6.879692688244198 11.805127053650532
Zr 6.264999475033884 8.000830541227305 9.518334637087762
Zr 6.079698027792441 5.505438763311363 11.455249709401171
Zr 5.858030316127353 11.606020325444078 5.4650574650056685
Zr 8.71756241684457 9.507574788679458 11.00148426345492
Zr 3.4171512390269165 4.759129101980968 9.98163159914747
Zr 4.213890832309056 9.679273921046734 6.825343669103009
Zr 2.9891276693774818 7.457596009823176 8.486470112040305
Zr 6.930260374321158 10.687047522750623 8.412237444947205
Zr 6.159302841232313 8.568772581376072 12.503201025588695
Zr 3.7375443555898014 7.55110075586066 11.312819666812779
Zr 4.196503197841755 10.130951270398468 9.882619838842869
Zr 6.467870154803444 11.270894820925559 11.305415682606375
Zr 3.9801802872036576 10.424901554160332 12.560883654234345
