48
Energy = -355.54518771 eV
Zr 8.821545653414272 2.4922373093446626 6.786516216609753
Zr 11.338283988285163 3.922269321728263 6.093124306651525
Zr 8.978055112400634 3.5040290110751724 4.010233010530988
Zr 6.080602736234394 2.769506529670312 4.711922799012998
Zr 7.340925937584226 3.361166274654757 9.932038315281668
Zr 9.978944094715748 4.110195399598454 8.809140635840707
Zr 6.873953140880923 4.527265088662124 7.090079617043076
Zr 6.744177679803977 3.902826955553086 2.0777779412004276
Zr 4.803214128997706 3.1634755013193727 8.314206595134644
Zr 4.432612637701177 3.549778545725281 11.111161451067838
Zr 9.393961523783508 5.832503277669622 6.176316154296778
Zr 8.866069077315384 5.776441543275437 11.15397100661037
Zr 3.7943718598206337 4.459373180075868 5.862347407913539
Zr 6.449307683204466 4.8921541638564845 12.4851382264131
Zr 11.158025998785407 5.485916746677943 3.588730468131146
Zr 11.067715233516815 6.647279752529027 8.586855054150787
Zr 4.211799072971581 4.584605501913203 3.056593038841981
Zr 8.843594286261068 5.807724857877688 1.885374142151877
Zr 5.6890464134162 5.887121430839043 9.836692655491056
Zr 6.549234157501295 5.7773841105308 4.446242701937321
Zr 8.127301512643522 6.9189851523734855 8.516128945406223
Zr 6.671789120959678 8.566489316536043 6.393951182272741
Zr 5.811850747826397 6.833693336056597 1.850391383291037
Zr 2.660523514316704 5.069658777206885 9.228433409923726
Zr 3.9921090559371186 7.288182166426925 4.446569455145479
Zr 8.884153557970452 8.016033863613975 4.2778313962238395
Zr 3.8387468244052583 6.446293986345375 11.882567750860014
Zr 11.85946073841115 7.455955502935109 5.376804335309617
Zr 6.733326616772433 7.750040488111879 12.223018041722213
Zr 6.228666360658785 9.469599305141212 3.6466580856560773
Zr 4.624389458270932 6.589066148462228 7.378918560027423
Zr 10.075834838583505 8.980642686482069 7.193599483722351
Zr 9.17704525938744 8.724861667401669 10.52118876572203
Zr 8.106154746163048 8.490643592012447 1.322253959615268
Zr 8.30457234461597 10.874751224761575 5.521574298523098
Zr 2.7818167810403955 8.009225544946002 9.473029743348352
Zr 5.837052734371957 9.071366369266116 9.225263022891786
Zr 10.940098321815341 8.264540336913473 2.3467305929150473
Zr 11.03495892031092 10.178595316058784 4.669882801571337
Zr 1.8961875114464766 6.891990915705795 6.74232708751715
Zr 9.011798986097142 10.599908722045006 2.7308661436539614
Zr 4.375333106269033 9.712548381956454 11.651098498306299
Zr 3.62608405497622 9.340477752688413 6.632868887481203
Zr 8.126683145601023 10.928550650755298 8.671546741578014
Zr 7.264839378317656 10.512753314622353 11.589484517503772
Zr 3.261977911000367 10.839927518419916 9.11175446118493
Zr 5.555576640870068 11.377557891481128 7.186165632594383
Zr 5.644962114571856 12.014621218774169 10.008894526629936
