44
Energy = -324.8607543 eV
Zr 4.492330963156226 1.1781417577490785 7.166313306030475
Zr 2.842410191736642 3.7122579546706986 6.722342309433227
Zr 4.540106700908035 4.938051188292493 11.430266562449656
Zr 4.081598116493537 1.9456459291263684 4.540246707070913
Zr 2.9814233068015827 5.646891339722046 9.074680383546188
Zr 4.379124799645587 2.8940464309714886 9.378486135145257
Zr 4.081938134869569 7.795992712610549 10.883466438968092
Zr 6.71959650028952 6.693155464331625 11.627860318975323
Zr 3.0449044661381373 8.399042832490213 8.080473272582244
Zr 6.773537962607006 1.146360512806772 5.398772058726169
Zr 4.0510072861436806 8.58237645400084 4.069567436614569
Zr 7.1165424450870045 3.656478592491762 10.807263338270362
Zr 7.162217993246661 1.9755187934406568 8.277375563474829
Zr 3.6842734492381672 4.631760387429893 3.987805170027225
Zr 5.708422025306352 3.8356601963409602 6.19032214305598
Zr 6.020627752296905 5.351431119653422 8.857699735897004
Zr 6.121998169777722 8.240020992450427 8.53959773510389
Zr 6.5188320547604075 3.2724897919268527 3.4018399375821193
Zr 6.581813124486595 9.535197066722883 11.15941695541676
Zr 4.357839250098847 10.422135706744083 9.537114636383803
Zr 9.067924586659679 4.1687532153152 8.57104309947956
Zr 4.445152820451381 6.670008571316189 6.203315952462933
Zr 8.757152126968904 3.2510006219002796 5.864939149804219
Zr 7.658138259471412 6.155116370174306 6.487416941548306
Zr 5.940592748442542 6.172355627431355 3.360103693403536
Zr 5.050322854804641 10.144480066158335 6.554943893123886
Zr 8.664005598156873 6.899020593165861 9.55378506487425
Zr 7.073463573289125 11.25244534952389 8.781444155709641
Zr 6.986480458407304 8.528030088745336 4.760876873507135
Zr 8.973222353384294 5.360062431221941 3.816511834252621
Zr 5.662775889842573 11.013880134772647 3.771916747057126
Zr 5.983754683953939 8.86886826290992 1.9187112258147065
Zr 10.383539870522455 6.176901749843524 6.612225395812332
Zr 9.483482646925802 9.928478025588264 10.12298417329196
Zr 9.204395984375456 9.071641478578941 7.271807559828325
Zr 8.411349654363327 7.546517561488992 2.128305554240426
Zr 11.330378401391158 7.742331955438956 9.036941457352928
Zr 7.800674855251096 11.571214722268076 5.694904617467607
Zr 9.618545329083656 12.078365195875492 7.942349077947737
Zr 10.205960410407585 8.22740078778477 4.288762313004357
Zr 8.4743662317835 10.366575980607731 2.9598492194835524
Zr 12.14292135050853 8.510183628022972 6.34964484147434
Zr 11.78961674518883 10.486518758430302 8.284489295699343
Zr 10.725317628214462 10.96202798386067 5.4363354826474835
