45
Energy = -331.61080008 eV
Zr 9.372304168866055 8.27649855261979 2.979614347589213
Zr 9.83845450411535 5.431067445649412 3.1907324671494814
Zr 6.55356792302833 8.807631592558199 2.628728190328464
Zr 7.078637413729582 6.067446576962429 2.776906991295399
Zr 10.98749699883812 6.91341763318041 5.238308883537337
Zr 11.076300060551374 3.8548473025606684 5.5272609619381
Zr 8.152237302420382 4.15586853497722 5.001545690944866
Zr 11.922722910618075 3.32364067854925 8.253538097820783
Zr 10.200733609136844 9.642541587159394 5.974286432640355
Zr 12.5158799986732 5.83479893733819 7.284208816035159
Zr 7.7217913340075155 7.602010050520736 5.354812566878894
Zr 9.659614459898988 7.577668900306508 8.035526817905351
Zr 5.177189926177571 10.277308113598744 4.688636306077005
Zr 9.228136067407803 2.171648673608552 7.38014810502846
Zr 6.2970506739211345 5.8300744764373365 7.562946240656862
Zr 5.411577419446492 4.637023113088399 4.736066688832292
Zr 4.617076621542997 7.336640769021277 4.24570423639423
Zr 9.247919697164303 12.345998489794539 6.60482631597649
Zr 7.978706989047703 10.717438823409475 4.436770515789871
Zr 9.348335604694388 4.924275532686775 7.865259955360292
Zr 6.26523016750072 2.8609528527180843 6.902126139695733
Zr 9.975441256785292 3.0579617246323125 10.17365418855291
Zr 6.268437366660708 12.604924017888266 6.5510522294050055
Zr 3.3858462992446214 5.899680527363487 6.517247430417287
Zr 4.802637973164695 8.650580549127955 7.361972162505395
Zr 7.147640434342599 7.855149881765686 9.436338758891491
Zr 2.45621367742217 9.076324671027006 5.739479156136369
Zr 7.191100623402192 3.351264196283145 9.589398898946653
Zr 10.062571672301317 10.54227492132506 8.96805069073242
Zr 5.702334406991724 5.69493423019351 11.115639144010562
Zr 12.18085026800917 8.430277147481204 8.655358158640398
Zr 7.48193394038092 10.097869363721033 7.373322835305993
Zr 3.5847971369431777 11.471843339226059 6.809580763682812
Zr 1.4308776914174817 7.506658813382923 7.857448968481487
Zr 11.55741616555012 5.712586599317202 10.038610686931351
Zr 4.34951662493796 3.9230666359158652 8.811181847335751
Zr 7.858587344575612 12.6271817327526 9.006095227803037
Zr 10.02764396367654 8.296404525265821 10.9820591820313
Zr 8.675777075093565 5.579854048861227 10.969715490666758
Zr 3.7137839629698655 6.679134522755375 9.363001379713747
Zr 7.363591831336277 7.857116384712388 12.307423353961362
Zr 2.5685331976640375 9.851184613612388 8.875846044089695
Zr 4.904618152829889 8.940861076473556 10.93284003187116
Zr 5.223108415560965 11.44646633445069 9.270171266696451
Zr 7.619019323808194 10.435508729979473 10.89037922407877
