49
Energy = -362.92654235 eV
Zr 5.090594620077936 2.417513141991804 8.136830376904726
Zr 5.042924633444327 1.416607672024143 5.40064089106336
Zr 5.323390760353294 4.410702958537272 5.734765341205826
Zr 4.3925494911463 9.96586561960301 10.406903664173196
Zr 5.776750226424275 9.731617512260406 7.360092040364077
Zr 10.219286048803808 3.3821696430817596 4.496355225094534
Zr 12.08458704545776 7.371800041523149 7.948622797960533
Zr 5.260270435908196 5.5165142963294285 2.8562971522318135
Zr 2.3276609824626897 9.800544455182562 8.210725722251299
Zr 5.166174186504963 7.6777706465042845 12.122505087640207
Zr 7.423096754098394 5.932761879532789 11.424446244513438
Zr 8.518228032077696 9.57341758770067 7.901489562311259
Zr 10.794367981038038 2.5928766480935286 7.154598923007172
Zr 7.753168789063068 2.6709570779530667 6.299701611356925
Zr 10.838464754977648 9.357742994436416 9.664707577412306
Zr 1.9361999537300052 8.702504293319278 5.339349651180049
Zr 6.911269626858336 7.113366234728518 6.04424542676807
Zr 2.8371022086132616 7.4306864991339 10.161770582605097
Zr 6.880253912470284 11.536341098199074 9.626942542435424
Zr 9.944240945885225 11.956189388255233 8.463814246210841
Zr 4.838280792743158 8.229771202495098 4.2154285936409694
Zr 9.353389191354182 5.138562769992107 6.780903337897073
Zr 4.303421202406665 12.043391101175871 8.248597919027834
Zr 6.624333852230829 4.875670220818005 8.469113171040975
Zr 5.909062093311303 7.427335626799054 9.336639835371088
Zr 11.789726234762442 10.161862466590408 6.8045716498225
Zr 4.006753498218671 7.536654406230504 7.080502436035191
Zr 3.42424351417517 4.944630913307345 8.29564440705202
Zr 7.999328719818249 5.08413797565665 3.9327667793706933
Zr 9.703442635002322 11.633798847874303 5.586104224285304
Zr 8.891130650763259 3.5048471298884563 9.279205822951853
Zr 2.780370926945293 5.826404767733614 4.988480943994467
Zr 11.478722809191217 4.724472022249789 8.932828137564869
Zr 6.445845421586704 2.8058868416885985 3.3634197539186914
Zr 3.5785332554779483 3.228663680176033 3.5884347671966714
Zr 1.275546279081061 6.939266084297294 7.522600361917673
Zr 7.682395524077161 9.034426212306014 10.949043510076987
Zr 12.669299125681816 7.884302944168327 5.140909820574717
Zr 9.754749075562653 7.964562292256071 5.856097395995706
Zr 7.256934993154105 12.244087240300301 6.940155320558673
Zr 2.729741871739918 2.9544887319655166 6.313911102872649
Zr 9.183409538655475 6.7562186096693075 9.358795858961821
Zr 12.254309552316304 5.063341208444379 5.976132785330282
Zr 10.634333643746618 9.531500684246561 3.7758219665330373
Zr 10.758213108065373 6.2621093547840365 3.5722038987165443
Zr 3.7468981917944504 10.780952613406747 5.64247870058252
Zr 4.704650600787526 5.053098187661367 10.885168863975494
Zr 7.476202273716323 9.971926620793905 4.752861097965391
Zr 8.092293337521472 7.782749190791491 3.1273996761228533
