47
Energy = -345.7339989 eV
Zr 11.99114907240002 8.688746055269233 4.411018379479076
Zr 11.22463715806211 6.203471032513575 3.3343667177472742
Zr 11.295722856366684 9.424737310475992 7.169834442370284
Zr 9.558257181671596 8.831713955434726 2.613590622641271
Zr 11.659012513532067 6.470575259363349 6.5262448001549584
Zr 11.595005195518386 3.9462666236876753 5.035741894783511
Zr 8.571392994640968 10.990677170862112 7.025799615965989
Zr 10.141777361140305 10.784544827344275 4.719356110238844
Zr 8.711893668158554 6.178606409734636 1.9729723936558674
Zr 11.386985807197863 7.705234554265526 9.596259915240735
Zr 9.613505247973924 3.4555780973012746 2.669995659952056
Zr 10.028812083721716 5.340944046643273 10.483781990371652
Zr 9.620829173791135 9.993851452944314 9.421943238518914
Zr 9.902883546728301 4.130438432827383 7.613966588084516
Zr 8.897411083713143 7.076988915161216 8.326444597176057
Zr 9.25337929738322 7.862255611341708 5.301064719027154
Zr 9.685962698414894 2.047660752263747 5.4180088903618016
Zr 8.623499931180042 4.849976356249106 4.93495158863105
Zr 6.733518125583529 8.55619445647842 6.802043241490026
Zr 6.735461366649207 7.504267626002319 3.6240795029994874
Zr 8.929284445949165 8.077616377260028 11.362808466693377
Zr 7.297424549289621 10.302698149829466 4.338762808987821
Zr 6.5594778430070555 4.524269384001028 2.6626107257730167
Zr 5.481739062480484 11.15911678988232 6.725292968741258
Zr 6.762684471605799 9.755576838288176 9.677339934733203
Zr 7.331503169979863 2.0964855451015287 3.962508753204157
Zr 6.397696085810077 5.6915888322341255 6.62330915853484
Zr 6.075020288862755 6.856987520887852 9.436854733035178
Zr 6.109831177004887 7.862341276646287 12.249450323215463
Zr 7.263590914302708 2.573309805695662 6.927242365144105
Zr 4.349179975137304 9.131503801467463 4.7595296761676975
Zr 7.496027764078841 4.073235390421575 9.476872161788142
Zr 7.690336767860589 5.560514361781016 11.96904384373566
Zr 4.168823331357458 6.1568958403551415 4.3654443705390475
Zr 3.9654540745604945 10.190413656664044 8.9604293869021
Zr 5.154608325309067 3.4433773148421283 5.1275252333724906
Zr 3.8248319882195867 7.516708516846036 7.423850194997065
Zr 4.738071493187814 3.9647322657459165 8.439698208288608
Zr 3.699609097165514 7.997189641512498 10.86126748861678
Zr 2.3356587786312266 10.359214978019407 6.528671496633865
Zr 4.932482679294661 5.1409028685879425 11.32243855241813
Zr 1.7491201270243009 7.658671982079243 5.2225734060464415
Zr 2.7400370628295043 4.857722400741711 6.523642198460784
Zr 1.4495680637748467 8.698319371395964 8.912675071265083
Zr 2.5108939933069827 5.662977187598887 9.48744950384945
Zr 11.99114907240002 8.855377624879154 6.716817403282999
Zr 0.4798799374341688 6.263152964856996 7.540280526522219
