47
Energy = -347.8089097 eV
Zr 8.830448736110192 8.134705852451116 2.5315139544531347
Zr 7.9202588951864525 11.055644266437737 3.227348234825917
Zr 6.089657484026041 8.860796818903617 2.6016679932731273
Zr 10.620066446167328 7.116892476446394 4.581572204073091
Zr 5.266112285013816 5.697825485764291 3.121799918559782
Zr 8.281871663135556 4.83397131586734 3.315986988416166
Zr 4.75122525827311 11.181097919344943 4.0517711930509925
Zr 4.398559362577612 11.904211799500823 6.936980066268059
Zr 7.38108157342255 7.00832279217385 4.8903742155164425
Zr 8.855944459527484 9.38026123339792 5.597766359732295
Zr 7.18534324248982 12.369845354697787 5.869374331449418
Zr 2.9775710511794555 9.4918241305726 6.1625619029646295
Zr 3.8240139238891984 8.194453179169953 3.9370308266558043
Zr 8.324927686007724 2.1216268118234924 4.484630103185347
Zr 3.038527867762093 5.349823828203984 5.330136652939579
Zr 6.546317221365271 11.734973737021164 8.877801740497368
Zr 5.8810914192713595 9.540246844721354 5.988931272105745
Zr 7.5420549767748835 8.965879090164785 8.316769509077714
Zr 9.516813112018818 11.666060131133092 7.886415650502029
Zr 10.030359621283083 12.053826086343728 5.070897351565081
Zr 6.241265913676349 2.803716837197966 2.7406438165981952
Zr 2.925244208836213 5.320401919822216 8.28855648779633
Zr 3.775145723285212 3.091385909146079 3.820848684790311
Zr 10.816630049505944 9.922741120436239 3.4277191755573115
Zr 6.121880463237085 4.076021374462127 5.505188411784986
Zr 4.3301385182038095 9.592841797638075 8.81880150574457
Zr 4.886860988582212 6.997891791273627 6.752498849031088
Zr 8.857796259111907 10.45736321870572 10.556260540621016
Zr 7.606477778201768 5.996170104926226 7.614089272901895
Zr 11.568586831666558 9.791210185220894 6.346004966884806
Zr 3.0303327640131683 2.6288908756278917 9.465154975511256
Zr 5.565045795089705 6.884366092339319 9.69468019226264
Zr 4.033433453113409 4.84734411580469 11.035848004598009
Zr 3.2984218038940836 2.580046311774241 6.645132843611419
Zr 10.727220266177234 9.195932785610454 9.018291455872808
Zr 6.343732127587174 9.476340369140924 10.950051214866928
Zr 8.700545981507734 7.262708866661868 10.254231292153003
Zr 10.230040373198179 6.963303866529195 7.424374341832788
Zr 5.631691267137192 1.1634041202849958 5.299286331571468
Zr 9.519940920611647 4.2131790769662185 6.063459215170009
Zr 5.679452773492693 3.8682877932492064 8.656302442568165
Zr 7.036929680450685 4.667433572876885 11.259430296545803
Zr 5.193278348465303 2.241492792990254 11.235975898209956
Zr 5.304776662345632 0.9593791449714408 8.432229009220713
Zr 9.208541732792742 4.058116087938385 9.135308808987153
Zr 7.978760176606719 1.8807951445406945 7.279251681695063
Zr 7.641019146546476 1.9525749490135318 10.109479873647294
