48
Energy = -355.70970664 eV
Zr 11.908033201321654 6.299054733390416 5.283574159761328
Zr 12.040185431560442 5.301048341569651 8.45633577503084
Zr 10.275482858871587 4.628781664441486 3.1901122334323504
Zr 12.209351668608758 8.22111442041052 7.507314776897171
Zr 10.526985675168326 7.466636100211211 2.874087631080121
Zr 10.561091316698246 3.8561077927619984 6.038175068368473
Zr 8.916008326175612 1.5462351375245955 6.251627782666063
Zr 11.089661659212215 7.817850638966704 10.184027040766642
Zr 7.861839898726377 6.254399829655506 2.2166396932684553
Zr 10.635948557648344 9.081512941896843 5.243238933283564
Zr 9.51426529131614 5.440813620639394 10.590507049609789
Zr 9.723981497627907 6.52226611487339 7.683807399784141
Zr 7.6245026337882855 3.642728492096167 4.161563692406433
Zr 9.84672647642191 2.9863045900943566 8.874960818277678
Zr 8.838106634999791 6.345605824573973 5.055118702546124
Zr 6.065439790445564 1.6659666774369084 6.043338407781708
Zr 7.29893363448218 1.4197905801570656 8.665419440704046
Zr 9.978622476862805 10.008919195157127 8.160231910852438
Zr 8.109151007572018 9.058915712419017 3.439404145155161
Zr 7.622379971747935 3.97121613119864 7.115054976702722
Zr 6.377353463755548 6.130430540579266 8.274746046667481
Zr 8.085023087563437 8.071799239528396 9.701637628106946
Zr 8.493307620750539 11.160777123418084 5.550691873080356
Zr 5.292798327517869 5.1087123770139105 2.888196177971302
Zr 9.440399977115346 10.27474999898656 11.106711754013206
Zr 7.469011412027359 8.811281714048508 6.745911171313299
Zr 5.9641767001093475 7.012705970122433 5.095247254900226
Zr 9.082125169456054 7.773097646896325 12.483005016030067
Zr 7.103123772181221 3.7758304440072443 10.355208166838775
Zr 5.17025673491974 8.094313979524314 2.5804028734083757
Zr 5.788994051929779 10.658232241034067 4.294478863373632
Zr 4.878486326964804 3.1300171085635236 8.440188857121317
Zr 4.832792124144242 4.220493374329352 5.616827126788054
Zr 6.479766470523042 6.563215645541434 11.821811272526931
Zr 6.065678384619174 11.99394329383495 6.929406345674269
Zr 3.17385979599165 6.551727424180615 4.277497456272176
Zr 7.0781060214239195 10.76110159406112 9.158390059574586
Zr 4.974668944986787 8.330957776920028 9.771794683417902
Zr 6.742904154141358 9.5051510575386 11.897860480752112
Zr 3.496910225094613 6.071274346831626 7.564437886827733
Zr 4.284447511959492 9.030041698487349 6.778008553240862
Zr 4.410912311556942 5.328741888086233 10.304230931647675
Zr 2.86894141414929 9.524946235850894 4.167656126442306
Zr 3.642991765449938 11.891490354546765 5.805034654628476
Zr 3.8083727179424947 11.138759970760454 8.802928490892079
Zr 1.45929768794355 7.783674859459665 6.219120129155716
Zr 2.196517595429981 8.509756392961547 8.916338186502617
Zr 1.5826091131341122 10.46128930747907 6.846117701643884
