40
Energy = -293.99569699 eV
Zr 11.073212973428864 5.215019462384611 3.2465674348411735
Zr 12.454965841677488 6.502302396205786 5.36376629424037
Zr 11.331109477225944 8.76963937858981 6.566990682129984
Zr 11.970188399449652 8.492834354985597 9.346884810355437
Zr 10.462400848572592 8.165664522224107 3.604672272635319
Zr 11.2728815965827 3.9398988525131386 5.792540565139132
Zr 8.87136132348082 9.675870359249666 5.976479026644669
Zr 11.113777431685017 5.824361479578786 8.08094485544216
Zr 6.7908453338453985 10.92931753584771 4.453945424581962
Zr 10.172592007519821 10.770493542473108 8.505113096273563
Zr 7.5268709179102995 12.095732399336388 7.109175114198845
Zr 8.61486151943319 6.120559794068232 2.5382299495797724
Zr 10.516539755546622 6.702297273000565 11.024894140862585
Zr 9.38117606621418 6.388914264515511 5.557744711881797
Zr 4.7969437778676856 12.144318773953138 5.922552603336047
Zr 9.916285258704997 9.52668134192831 11.108068856572604
Zr 6.972066452023447 8.081232431816241 4.132750308158734
Zr 8.756620657728247 3.605792950558477 4.346985513932159
Zr 8.99372136693907 7.967340195120803 8.670451959805359
Zr 7.424870435077584 10.412656754709689 9.738157617807966
Zr 5.163107864292046 11.9945161229918 8.730354022024589
Zr 6.212564984666422 3.381298872227316 5.919511713864722
Zr 4.151116094458101 9.500075406746783 4.698610780573889
Zr 8.4856699632089 5.147891718485381 9.770702614386234
Zr 4.408649587637353 9.414323990007633 9.8990680636894
Zr 4.3348139699738 6.465000926806692 4.96415337686495
Zr 5.930151681060086 9.457693293602208 7.083605285845054
Zr 6.713458868263072 6.099001251561554 6.827701743822189
Zr 7.663616758255944 7.65212729547986 11.444400008088259
Zr 8.859327190262736 3.5865009827700014 7.3543310857453505
Zr 6.369912598607779 5.16703950786232 3.6956996484777904
Zr 3.0377734147076034 10.527586579395669 7.42152066413979
Zr 2.6818928620803937 6.922359384599011 9.80983222558071
Zr 6.448185747220161 4.892352074723511 11.754193512564065
Zr 3.8495539927873743 4.941901319827665 7.645740652585987
Zr 5.736792540653618 6.802868600583465 9.392698997967653
Zr 6.10141763572819 3.6878100371217672 8.901469140149521
Zr 3.2437403420144917 7.7671010876141615 7.189536954246166
Zr 3.8936700830345647 4.557155405774193 10.660221463516462
Zr 4.5516350848822285 7.060269619320784 12.016883886777542
