47
Energy = -345.32859842 eV
Zr 11.857920862747195 5.699786590943437 5.880227641017733
Zr 11.67345308240948 7.648112916308496 3.676546004660042
Zr 6.644789125074607 12.361468788300483 5.267888188378604
Zr 9.303092596721356 8.988638298814527 3.3670845129010094
Zr 8.539759937888727 11.666507772479251 3.639172542057427
Zr 10.287075998611947 5.0976792061156075 3.4664595404966914
Zr 9.2643883634791 4.038256857891913 6.564833179304995
Zr 7.579821883584147 4.333737911147883 3.92223687803091
Zr 11.356771511094674 8.708326167857944 6.322777453335126
Zr 6.3505998409491795 6.739931647093671 3.4168217777270855
Zr 6.7004214338981445 9.211389810911607 4.736255747810979
Zr 11.149625333229592 11.133289936938572 4.5248705864637175
Zr 9.444057651437083 13.25014568796878 6.104664568521236
Zr 9.812220719019088 6.748340374520774 8.048479940313747
Zr 6.484103280751782 2.7582009897100783 5.896636701121446
Zr 10.43851864396012 9.39228408852224 9.338802493383652
Zr 7.042682454384654 2.941868246446287 8.651118272700723
Zr 11.682914258221599 11.431162202139626 7.305156327844088
Zr 4.097583251666918 7.835878084479401 5.356289839710649
Zr 7.01347175742252 12.7149104182823 8.024909480773855
Zr 5.335187821112233 10.446215575225743 6.891662619686571
Zr 8.838478064257185 10.44600641082565 6.576252418794591
Zr 8.94498866353398 6.909709164641404 5.2857949286269665
Zr 2.646946182988594 10.002726984861708 7.808864769095309
Zr 9.690294707959902 12.323981781175336 8.965010535864346
Zr 2.558040984222711 5.475060293228945 6.2751236377739685
Zr 11.746885800765213 4.483734014928982 8.491396121976615
Zr 12.654792973748469 7.235878378553494 8.471892715962131
Zr 4.635600848266898 4.554332393554595 4.633876526467076
Zr 7.332170803794738 8.533217907025081 8.351521538156263
Zr 8.663681011670544 8.00979524183176 11.489469549387305
Zr 4.400567317393412 7.45309740969378 8.278303464004804
Zr 1.4369725267382418 7.709055190983507 7.455988304684375
Zr 4.763813061004842 10.378744022516745 9.626774419040418
Zr 7.745599109351107 10.770096435817141 10.208526293994712
Zr 4.378945759622572 3.8705987176406627 7.730128236426719
Zr 7.49676889461441 5.7926460409917695 9.755833499262266
Zr 10.993241938014192 6.246741086545083 10.730129181169007
Zr 6.481840004329868 5.852595693714904 6.474395745433592
Zr 9.58771740647177 3.5722264923782117 10.040466211048502
Zr 2.128665259460577 5.469148953961857 9.032852109852183
Zr 5.776019822023482 8.225600238445175 10.997598208438733
Zr 2.5586049082739883 8.183915475579711 10.259096345495722
Zr 4.6294947240761655 5.31123454797133 10.500955242769754
Zr 6.5076090469704795 6.093525629542134 12.65328856780831
Zr 6.870841185728576 3.453616189375996 11.498343417444186
Zr 9.042702096086485 5.092769287808381 12.446604123738307
