41
Energy = -301.36718476 eV
Zr 4.336824292944886 4.286019172197078 7.841618847855057
Zr 6.587185234594546 4.062798412605639 9.544680604009173
Zr 6.854140331427181 3.871628866088047 6.436953872621947
Zr 2.996508045849798 6.774225062379324 7.464971006585534
Zr 4.821651426912869 5.665996355763671 5.299325208085787
Zr 9.659130407771956 4.282370791315135 11.25136940935984
Zr 4.32166063619349 5.941668440494551 10.254249321577413
Zr 9.052487978182723 4.342162647610895 8.307345946947844
Zr 9.67810722393262 4.151898392066691 5.5254971634969925
Zr 7.392792391191116 6.354696896583687 11.281582537787756
Zr 7.512136844167108 5.404336287931312 3.776982111485374
Zr 5.670975089032944 7.483799660326678 3.3011620894833755
Zr 3.352920134946482 8.340181135058494 4.727548870125011
Zr 6.0887016635543 6.817936543844909 8.317036684115688
Zr 2.7225219499855453 9.60650020170146 7.323728614729359
Zr 9.882916580036946 6.7758944922429185 12.717222095217119
Zr 9.983091181389266 6.901504953022234 9.646172807470647
Zr 3.6785357160368894 8.676205765436894 9.599212793074594
Zr 11.760876751685947 4.353094592293194 9.173321350888797
Zr 8.290448908162151 6.759710813647838 6.288714966450766
Zr 12.210027061948168 5.73796134631214 11.6735614962654
Zr 5.782687156603138 8.925326519870497 6.280220724148557
Zr 6.1987373978210885 8.90817805672804 10.626257627581325
Zr 3.842937523437058 11.204732103595704 5.588129986840021
Zr 10.31825199912646 6.3991794795128865 4.0840080025704495
Zr 13.08082154047264 6.875408300400015 9.277298280668901
Zr 11.31447558167108 6.3491395248162465 6.919888729467991
Zr 8.334060251402814 8.37573687615943 3.540480950063067
Zr 8.448321094802427 9.51744608105014 8.233622922670794
Zr 8.90700070405117 9.238987125458454 11.69904897249099
Zr 5.793469384739178 10.29162167731059 3.638401603784427
Zr 5.289163501122972 11.028054782374165 8.496926383942062
Zr 11.804064339793085 8.660719778903676 11.302209361679283
Zr 11.887807320542999 9.230512163764557 8.3458686778271
Zr 10.578155010349034 8.95426252931947 5.606876985563542
Zr 8.537258415714629 10.936749312905688 5.145569252790301
Zr 7.495327851526279 11.41656825565767 10.528292892218085
Zr 6.308774984006043 12.18287460810456 5.894672699590536
Zr 10.339020950008466 11.239304304850227 9.928401648663064
Zr 10.68262102902481 11.461061366687067 7.072317645564994
Zr 8.196497429251208 12.476703208861016 8.021152978499808
