40
Energy = -290.51747234 eV
Zr 8.337613630174738 3.9484111206746166 12.983691164494786
Zr 10.014161451113866 5.040162332890386 10.42705497009387
Zr 8.564080824531729 6.58531811864109 12.270617899019639
Zr 7.1463648666152455 3.805409036966187 10.50943230374845
Zr 11.66733815064105 5.194355923280235 7.661916623862482
Zr 5.956515871882416 5.569715523533159 12.466900037868108
Zr 12.11231020910629 5.764979085142126 4.757170122510039
Zr 10.297533084017482 7.884213422570835 8.73552789706422
Zr 8.855803075161933 4.019610499367639 7.929732207124885
Zr 9.321395008263735 9.075438286045584 10.917910488014453
Zr 12.276901064053275 7.847624333676045 6.657932361512959
Zr 7.57044348535311 6.560662563445875 9.352998505129843
Zr 10.421708224935651 3.6935699527581356 5.546056458651675
Zr 9.63410131869207 11.351288183129872 8.919302446659648
Zr 6.4141952056093325 8.457422780881936 11.41386171871239
Zr 7.664722823414099 11.322040608517892 11.058054592887162
Zr 5.818546963303649 3.916923764657978 7.594387124612519
Zr 9.410981641500536 6.570236328387866 6.122168063549943
Zr 4.767695991168365 5.412823388308506 9.828240358725894
Zr 10.98969061699561 8.242972975583514 3.9329038591704615
Zr 8.094574571349543 8.979373927774576 5.090459752289086
Zr 5.070073324005172 10.878851263720938 10.408848700721833
Zr 7.443748365026144 9.477006275147708 8.41129244430484
Zr 10.528125330320234 10.004608886330475 6.456281853471009
Zr 6.732340215808803 12.446250279204156 8.5589618933797
Zr 3.419609869416119 5.754740759003426 7.206288082052227
Zr 9.565032218800582 5.602738636522641 3.2768147987895246
Zr 4.506135757162671 8.32150806100258 9.014925107825682
Zr 6.083438771667233 6.837164589255541 6.539520553395452
Zr 8.134041381476171 11.720018904413124 6.294377629546987
Zr 7.551404494556948 4.038344732194537 5.157569042517902
Zr 4.720481834239554 4.573332642852926 4.983814712438355
Zr 4.0113658862304575 11.154684532209053 7.883317968669198
Zr 8.497431338086916 8.161367040864972 2.388808514279807
Zr 3.759062687454617 7.294812627155815 4.457005679679616
Zr 5.626692126162151 9.881468474089983 5.984722496123506
Zr 6.5496204702126475 6.234479778189642 3.410517874775014
Zr 2.830813524218468 8.594120755623676 6.856934843220224
Zr 5.809177463896503 9.045700398665057 3.1769423099218175
Zr 3.3433439869664183 10.313554890215904 4.696662615203188
