49
Energy = -362.58195428 eV
Zr 9.551514061922948 4.850486119457425 2.1488745997848473
Zr 7.169872361427594 6.3167832886623145 1.99842536391733
Zr 4.880643544005498 1.8706324226581985 4.847100669810034
Zr 9.962078246317327 7.855710681458527 2.247393972544948
Zr 7.1966490465686075 3.9328723771608054 3.9915521666123475
Zr 10.306545399805545 3.7453513323435144 4.712687138940177
Zr 3.9307811558311134 4.446578429915134 4.041231161526214
Zr 11.714718628821336 6.038290717088309 3.671784903983001
Zr 7.393023712137632 1.7133108270140673 6.283754639260233
Zr 4.602925575567842 9.768467365613793 3.3444146319293075
Zr 8.832150340502803 6.384917926234041 4.601898870979645
Zr 7.28056899248257 9.122682883863684 2.688374553858205
Zr 2.8163630322373265 3.234900005629492 6.527410217132805
Zr 5.637279332292938 6.9461012825032 4.386903211582207
Zr 5.64002477367823 4.1224719788194095 6.5688923533118375
Zr 4.805364000436838 1.5634136573667226 7.79600580060394
Zr 2.7251878906206337 8.358503910593678 4.588731271435761
Zr 8.679266113952751 4.349556034591211 6.989555080291198
Zr 11.380321919155085 8.710809783588978 4.923080725477002
Zr 11.338631462524067 6.072140628156788 6.568314150922681
Zr 9.54355029666099 10.465008029923995 3.654097431578789
Zr 3.2543470574030544 6.129478710297307 6.415989395303551
Zr 6.827511882218192 11.206566190554232 4.784916028452367
Zr 7.080744945091323 2.7238975822606135 9.015180562853196
Zr 8.392682126476224 8.928279910505228 6.019544081220694
Zr 1.9825851099335345 8.889081363832599 7.34335801405422
Zr 10.503170390884222 4.454114748045922 9.130980499669102
Zr 3.5542104869247932 11.097747596986634 5.7531708499300045
Zr 5.077664945404695 9.001589409033844 6.4524015176085125
Zr 12.35283858632356 6.738232516503794 9.310164815477819
Zr 9.492057063966659 7.371304584025755 8.626593972251044
Zr 9.783041161643753 11.306963515377598 6.446428929558256
Zr 1.6067895911716874 6.03604016603222 8.767831136764144
Zr 11.705701861588226 9.35176933529714 7.866444432724241
Zr 6.768861917887008 6.692725597510526 7.204740009636292
Zr 7.563245233849675 5.530935936397282 9.787139698539534
Zr 6.900576832287791 11.172555895297448 7.626097774843331
Zr 4.275334781824557 7.308738357404674 9.038954671176874
Zr 4.299616433459934 4.350144799877269 9.272444945618082
Zr 1.8134611401227252 8.648868144803831 10.222449186800624
Zr 3.9103551306537727 10.392288036996476 8.976082536046524
Zr 10.273251755784234 6.16774269079102 11.340818785704068
Zr 9.309979187954239 10.548157304981007 9.287481327409813
Zr 11.13736382297023 8.87763525412413 10.701488826676057
Zr 8.34280334263166 8.312301871182466 11.447607701590654
Zr 6.610190405362829 8.85613272044716 9.439094705129737
Zr 2.8703923974667522 6.208716611034527 11.372846796925147
Zr 5.714404484635952 6.31646620135561 11.63506074123121
Zr 4.344096791633932 8.847767594629204 11.607708999229052
