49
Energy = -361.71415945 eV
Zr 4.580931718774896 11.412519057844149 6.231546389639667
Zr 3.4073282007971604 8.830001804049568 6.915349778868316
Zr 5.059745876831292 10.753816645449929 9.155064875533068
Zr 3.564450319364609 7.95929638031538 9.784338080171965
Zr 2.610893714730795 6.052493117655475 7.710464644574244
Zr 3.8553191038579375 6.470664353387638 5.11871463106439
Zr 6.8661776244339014 6.824509651605863 5.342844796769114
Zr 6.468251840696981 11.745060953445007 3.9945272999456862
Zr 4.675366848843588 9.279130849080703 4.242109710774468
Zr 7.204446656886175 12.204735490879264 6.9441237357897565
Zr 4.248418295866802 9.710195134736917 11.899889091050408
Zr 6.470024434341561 9.259308132211025 7.156822410531375
Zr 6.563969731554917 11.379558661678294 11.699986989781719
Zr 3.7917691339108006 4.7572046189342965 9.774449549916755
Zr 9.01420252824681 11.317501616943042 2.4376432651630773
Zr 5.592286153616573 6.4592887242095465 8.181157976742536
Zr 6.011503495765879 4.435988303290918 4.000698000447294
Zr 4.873184605125249 6.876973401625363 12.3123962581496
Zr 6.808299084158381 8.438461360837001 10.51606896264997
Zr 6.441534945112764 9.104715973192974 13.50757767540325
Zr 6.845615259730997 9.293608855218563 2.0926815525933677
Zr 5.298788856038012 6.917291932470929 2.66130298568924
Zr 4.638232883294482 4.032285060596601 6.651258682081587
Zr 9.290864576667488 12.36086999344474 5.02162666712878
Zr 8.05345834771276 6.480878939489259 2.5484368579702092
Zr 8.276772803050983 10.852938708023068 9.418650146030837
Zr 5.891972043358503 2.485050517906364 8.751224345339486
Zr 7.097729430056136 2.2091839788988046 5.754742137601974
Zr 8.985586477367095 9.792692151089208 12.18855748571781
Zr 7.859032925845605 6.756575417441474 12.7791449808896
Zr 6.442991107479014 4.92186880991055 10.784026535450211
Zr 7.974307252590961 4.31876672586297 7.5794863388328855
Zr 9.852043103819167 8.654756098635744 2.201632615177828
Zr 8.25084650793999 9.476447611473827 4.712496852912184
Zr 8.905394148591078 7.258690547122703 7.644548838863872
Zr 9.041146840973184 4.466812499655754 4.528994567259774
Zr 11.11808641669735 10.247899724552893 4.263836609824692
Zr 9.930926414568992 10.218021044468077 7.101853370671577
Zr 8.479169276297402 1.301143382290957 8.13089658923947
Zr 11.28562192797789 10.794714683366136 9.779894990975853
Zr 10.068061615925705 8.453847422379553 9.911391070830488
Zr 9.192840825086497 5.611435262502734 10.274030058443724
Zr 8.303371760745105 2.8033932892360034 10.476228934118433
Zr 10.266165545200435 7.312534018592423 4.858077160255322
Zr 11.17339399477338 5.16214494766187 6.645799655459476
Zr 10.049100400918135 2.468118653257488 6.169616413936861
Zr 11.842127717681082 8.13854384162492 7.412894955061286
Zr 11.818926065615399 6.059142590661398 9.33177983749796
Zr 10.683077060877709 3.2433306145775607 8.890758461495219
