48
Energy = -354.34095014 eV
Zr 12.670354308055902 6.220709421627025 11.521246841888074
Zr 13.236314467845483 6.407038476698644 8.554248629755977
Zr 12.657924193547265 8.62890252751711 10.196910874337672
Zr 11.183348207059431 8.685086078483607 7.4866849246805645
Zr 12.07544119573134 4.082594636129803 9.864875651466772
Zr 10.37964556703973 10.218043473186176 10.098550880011878
Zr 9.585860413039027 11.223909683596089 7.1862883305550955
Zr 11.691251202021816 7.019379911591583 5.060274580265412
Zr 8.298178081390498 12.20328061927763 9.750377545767394
Zr 10.350360315453312 6.604729287513607 9.41202364436137
Zr 11.173387874410505 4.759998073776876 7.032736762823624
Zr 10.399862090912377 9.66428023165809 4.711309713037558
Zr 10.319949309004537 7.964667876622208 12.066097428104769
Zr 7.254862570474496 12.948445086024844 7.164871830405653
Zr 9.25710525185156 7.188488157972317 3.193733185524698
Zr 8.155119047654173 8.635351813783835 8.700571739460319
Zr 8.326201775203442 12.087922690454441 4.543253122516139
Zr 7.8370691680421745 9.963384855076404 11.523346505726511
Zr 9.336201227560597 3.612235049725115 9.236382391675342
Zr 10.215496948331513 4.708316594395855 4.286247593842281
Zr 8.987382056282723 6.751546989359958 6.2427205188091195
Zr 6.034233060106606 10.70150947167045 8.465209712380776
Zr 5.571914237045756 11.855411659119513 11.050080004349473
Zr 8.488535435118635 9.866058737485194 2.657425211964013
Zr 5.206726293630997 11.868980779135336 5.5257184931314
Zr 7.27006692600373 9.55485162641034 5.63578575037249
Zr 10.04617280651611 4.94016721989142 11.88727296308125
Zr 3.3123158630365843 10.630764940154345 9.795457152076834
Zr 5.252218415121931 8.82096269016435 10.964332858448453
Zr 8.44029431772783 3.428120529021083 6.13762218563846
Zr 6.0018281929127255 6.611162212154171 5.771775899677664
Zr 6.346305799859188 7.765177713069576 2.9488240128012677
Zr 7.6019653939556076 6.697983045574004 11.104296740190355
Zr 7.30764570231195 4.862991347550302 3.7852799198617384
Zr 5.133715917738016 8.152960761213674 7.8898744914665295
Zr 6.941010034596846 5.314217011580552 8.303978346595814
Zr 5.9963849072801505 10.79854681362061 3.0903436876551007
Zr 4.198722280667333 9.09133837744762 4.534836428814185
Zr 6.861170589728587 3.772644093066806 10.885431556405647
Zr 2.974815918917266 10.139110378095742 7.006197610541564
Zr 7.024501440197839 2.2167931579615154 8.391967492850112
Zr 2.599832209717066 7.903510201881595 9.16208397596605
Zr 4.03584335008024 5.816483113384514 4.232939444178791
Zr 5.505991603766728 3.5193421369607147 6.0719171202124675
Zr 3.694746141148729 5.375627836470375 7.461353129051289
Zr 4.768710149249098 5.888525500476692 10.433366222915812
Zr 2.4672917123264853 7.501757293058442 6.192751245382525
Zr 4.601924088564728 3.2882242204671135 9.071496845604912
