48
Energy = -355.00969767 eV
Zr 10.544328011161268 9.493656014064122 4.5832030211994
Zr 12.141188714791461 6.983312301226078 5.439119916068944
Zr 7.912762950074629 9.98924162242864 3.06876935931337
Zr 9.796985911712804 7.295437365789884 3.1095030890732147
Zr 11.1871309776309 9.381415256874412 7.346200545309759
Zr 9.84210595252036 11.701327682011572 8.651012274754951
Zr 11.920894375522943 6.794212033369591 8.679307640744922
Zr 8.564482880522394 10.94693577486017 6.092912382230277
Zr 10.833056826172028 9.318759622637165 10.369869909616014
Zr 7.143269323656441 7.331017408121089 1.6191229222779786
Zr 11.392784090500035 4.483112678811962 7.0404576843283335
Zr 9.588617899712874 6.8450276598788 6.329529419740764
Zr 10.092439264226522 4.551632537788521 4.392383247471962
Zr 5.8040971775142305 10.748628938883112 5.305157628999098
Zr 5.113968363519013 8.832708807625192 3.268071688015759
Zr 10.842665796288573 6.52829854078252 11.475478292254403
Zr 7.468085626129902 8.21442389826825 5.138301377270993
Zr 8.456365069890573 11.13887022575756 10.991030348162768
Zr 8.334649876577366 9.178884929688673 8.75886795543042
Zr 8.944269166647356 4.830806751734253 1.798608986798329
Zr 6.805439896364258 11.71652647382126 8.502380719925332
Zr 10.362253537442324 4.211891664806188 9.725896740485947
Zr 8.863185500982757 6.480769708792493 9.272227969724003
Zr 8.466011145956383 8.299669595843147 11.914626710690642
Zr 8.264739671708863 5.293112807174064 11.829404116115784
Zr 6.302553405889333 4.332622542052876 1.3346950423422934
Zr 8.530539222719153 3.826307867605719 6.78299687846843
Zr 5.797815927844504 8.809954030680817 7.639077784169136
Zr 4.457488850998975 6.240254033606017 2.2356692948063457
Zr 7.108696458675131 5.4468367548546235 4.121893787991095
Zr 6.091878333969155 7.0988951772614035 10.43386897945693
Zr 7.612584208392155 2.730150484829681 3.560411555188656
Zr 5.928750575353403 9.887820900538182 10.7302213027657
Zr 4.472296698728755 6.352094492724144 5.20529091693066
Zr 6.919885972622397 4.0908961806464506 9.553172434353403
Zr 6.608849667175651 5.937376650710683 7.350653597886711
Zr 4.596632274707286 3.6855684598932794 3.535071726696221
Zr 3.5713453674665416 9.913514827301203 8.890838112973837
Zr 3.111737712372509 8.956652962063215 6.085229890390669
Zr 3.8343744180428225 6.448883492176116 8.047151648547816
Zr 5.608102659833098 3.353631377468374 6.106541801936836
Zr 4.180519614263348 4.97368183803309 10.823419947000728
Zr 2.979827184805507 7.563624742419273 10.71993364756995
Zr 2.6693191545477566 4.01105927532026 6.363748440456278
Zr 1.5184856965297715 6.487391646637415 6.110821609957358
Zr 4.059166603902501 3.3052480699323987 8.672417325484117
Zr 1.3455851299081305 8.17451672275541 8.404708646223428
Zr 1.6121531757946543 5.170237841109495 9.074397925742991
