41
Energy = -301.68762497 eV
Zr 4.132532110114694 6.013985436369462 10.892037369923463
Zr 3.241846478587023 4.008265946270736 8.599510796131481
Zr 7.653188179264273 5.786338863507149 11.900888493682844
Zr 6.175493172294535 4.39147481263058 9.719029440047569
Zr 8.677563379273261 3.2802882109314826 10.763802242645825
Zr 1.7834750179786205 6.521176737894076 9.309554772194195
Zr 5.521416720373674 2.541576476302311 7.621480789582397
Zr 10.527789986234938 5.387924555139231 11.551341790514662
Zr 6.5160969088514475 7.841110127769428 9.940840816081367
Zr 1.9190637595170488 5.760379658047447 6.579892819172109
Zr 4.044314822141953 4.1128701624560975 5.624559452346286
Zr 3.6046638359544914 8.703285261575104 9.922744849394597
Zr 4.547347757354951 6.582447463429814 7.980563531612594
Zr 8.611651790057998 2.9760583364048965 7.5876519069945285
Zr 9.391624782171544 8.018127628482713 11.10072150820745
Zr 8.833333392388745 5.786918955708031 9.064457032874708
Zr 11.062067686227124 3.8167222804253544 9.174879654185661
Zr 6.611728116566902 2.6634615444903447 5.09169974752961
Zr 6.893387762390007 5.214531883051972 6.565702829604418
Zr 2.284905121250612 8.53567419025949 7.267158256338234
Zr 3.9872783678723813 7.225542436705537 5.0303528762082
Zr 5.138731809926801 9.520120732894732 7.519097459035326
Zr 11.65969727445943 6.750946203447055 9.223627044459892
Zr 6.3001414916161655 5.595640599333879 3.800488587741951
Zr 10.770046994924515 5.07178718360743 6.70045896462731
Zr 8.876696585476154 3.977645498572114 4.555481205467684
Zr 7.937000764322318 8.093299754017742 7.346504479551941
Zr 4.081753610375772 10.006208247211383 4.77869643246189
Zr 7.608319355551921 10.625922402044242 8.858137341075356
Zr 10.254270830635063 9.4224540844438 8.834121497316572
Zr 9.179761315419684 6.703892774219992 4.705092684969708
Zr 5.088077812790278 8.29114107495197 2.335594549525388
Zr 6.941733914961694 8.813467174186647 4.476032958598619
Zr 11.096361793310615 7.991151527297407 6.543703533900403
Zr 6.492284402199731 11.54944731166688 5.907595895045316
Zr 8.037037962751377 7.123401760862085 2.086879952475129
Zr 9.319508551574883 10.34540713051855 6.140283313547708
Zr 5.666828288031469 11.239841778488822 2.988076526587248
Zr 9.871762866732826 9.134169493505327 3.281194337635623
Zr 7.57597734110175 9.818153431537455 1.562628339996135
Zr 8.406285704970141 11.552886133850533 3.7122407867360914
