43
Energy = -316.92616493 eV
Zr 2.7277846075344607 8.104947398078641 5.068215355472315
Zr 4.321628863024943 9.97321125426879 6.997783343372192
Zr 4.038331205748121 10.528648244971961 4.030952939462456
Zr 4.116134423244154 7.597771384153383 9.366538208245574
Zr 6.711092576790137 11.832839867370438 8.091917516376688
Zr 3.9305500011776076 8.150047801768014 2.3566337458828186
Zr 4.832919840913042 6.496444496629302 6.696841700570788
Zr 5.551862752570553 10.091188608784872 10.020785009996997
Zr 2.610552909597967 5.290316985462947 7.85740215666756
Zr 4.026933811550329 5.724388713352666 3.9530572710978844
Zr 2.8179377615293077 5.133811950909306 10.800119561914348
Zr 6.832192371853765 8.960946254138637 7.562933865024206
Zr 5.105378339358231 6.262445028646142 11.936967776333045
Zr 6.62249513410302 11.170119799681308 5.261439331560559
Zr 5.71073379675966 8.203030927297698 4.746692027589723
Zr 8.578721706902048 10.152633162734078 9.756636318837334
Zr 3.0364594528951305 2.8053296265933017 9.207065931681761
Zr 6.455644440095591 9.761661300978972 2.3732085971558106
Zr 7.113135275961819 7.454600343647466 10.16588671092943
Zr 6.451458585389038 6.57757928876221 2.220546861932955
Zr 9.35420702863181 11.015512413970741 6.993260966104986
Zr 4.578338400742815 3.3190532722272232 6.592932586957594
Zr 7.3817687896230515 5.675304724870476 7.473373123876028
Zr 9.423156474806705 7.81262056018958 7.413403650052747
Zr 5.407615809927019 4.683956885544603 9.273652169433987
Zr 9.18937036120935 10.265747652961641 4.089508447759462
Zr 8.755171405064655 8.180628211171644 1.8279040479511617
Zr 11.326045597833003 9.526244293298527 8.782161969542123
Zr 5.471525745624063 1.6001744260018087 8.910611441102098
Zr 8.538891020182257 7.332892956290518 4.752184413674798
Zr 6.780562039607426 4.816685579773743 4.73655683555766
Zr 10.020711848662193 7.414815624595739 10.27869649555232
Zr 7.46227506164518 2.7147694917693825 7.155819919355127
Zr 5.0397830140808235 3.1269040062746734 11.587764300787253
Zr 9.476258588293954 4.802723201668092 9.179649433145068
Zr 7.590082450242878 4.9336418484417095 11.691508812228042
Zr 11.636949728511441 9.133456838822745 5.898477988333735
Zr 11.075140281758793 8.148123147929638 3.167496982438554
Zr 7.7400205406182545 2.6390683642040385 10.118427010273802
Zr 11.926625853881594 6.7384747501266515 7.965275375572313
Zr 9.705793615986186 4.675527893684505 6.070343537202735
Zr 9.607796833106624 5.487775561429013 2.9652413069175942
Zr 11.658623233206846 6.2886358176246 5.069194825000313
