40
Energy = -293.60758315 eV
Zr 4.478832071641755 4.517767196518527 9.32999033980425
Zr 6.8503890595058 7.108641854406183 11.31921668307745
Zr 8.361346775497635 4.577552553840354 10.64742828115754
Zr 3.467539303743528 2.683165627906873 7.496300867858766
Zr 4.095421472308928 7.5500469960536085 8.78486836466293
Zr 9.737507523770645 6.770262641824873 12.19181589270356
Zr 6.56988064488098 3.0740675026583575 7.298575289005486
Zr 4.6784054561656445 2.3771997551651483 4.836727540914221
Zr 2.089439673835427 5.4792190681936885 7.618255761439993
Zr 6.672077737182883 5.97198718259555 8.53336292201295
Zr 2.209454616459138 3.7684416480414207 5.172054969810114
Zr 6.82489836000593 9.445700647221736 9.345108871488238
Zr 9.751363099337961 4.38292548398446 8.006578824315993
Zr 1.765396509920249 8.363523875637306 7.146792857957782
Zr 8.88916347372884 9.321644654148189 11.372643878720119
Zr 11.248772036403441 5.304878847908937 10.299040727759674
Zr 11.565123955779207 8.343423876326339 10.207528654952338
Zr 4.81934945291159 4.975235101093499 6.225745062619375
Zr 9.081132945945052 7.168547651784906 9.349412587540428
Zr 6.857686204065912 3.9297330795065784 4.044647047741243
Zr 4.14453926085233 7.569454144693531 5.633746522564665
Zr 7.889367430122622 5.639369704859701 5.9286767463202725
Zr 4.180284464742626 10.149924408413405 7.0241595215244885
Zr 1.6462687733610666 6.582694202937236 4.612259089527175
Zr 4.0404756067194105 4.994047684465718 3.213903843858701
Zr 12.088542964134415 6.439815347211792 7.721494582801184
Zr 2.3792852136873823 9.599575898323215 4.6436239236662225
Zr 6.610954055070734 8.365321964439618 6.664944917010639
Zr 9.66475582801435 10.471112203515862 8.794510130595416
Zr 10.77999898116499 5.239014410621464 5.38688358851635
Zr 9.549090339559632 8.002752831163024 6.679591326921394
Zr 7.646945716713922 10.968607491896408 6.491786901847309
Zr 12.120626418519484 9.336721658141517 7.514101327873235
Zr 3.6942368224733144 7.930486686221203 2.753187953049486
Zr 5.425282827739902 9.909518101043211 4.292546189659562
Zr 9.373838166408282 6.530629101371719 3.507167758721226
Zr 6.3959423654549665 6.969733226422863 3.5416947743021723
Zr 11.60299743538377 8.12484594950746 4.780337462582093
Zr 10.406111439346288 10.734535961104893 5.8309605761335455
Zr 8.591864027755545 9.307062161690032 4.042200048657736
