47
Energy = -347.7281334 eV
Zr 7.614594920441402 9.67481993000583 12.12391825064021
Zr 4.958895678908874 8.685567546001774 11.678023714400778
Zr 7.300641803564961 6.733542745326491 12.268673927697755
Zr 4.354329099956698 8.771710433100107 8.515944285997184
Zr 5.815691296002996 11.139166013732115 10.266924428823966
Zr 2.2265542760939883 6.7680040685860225 9.248289914475537
Zr 4.729402030389458 11.797157022758014 7.469986310397945
Zr 8.930329699145924 11.112247182539534 10.04032550460823
Zr 4.61363684678419 6.119089766898007 10.692171633310158
Zr 9.972338752788245 8.411766947553401 10.962298195029632
Zr 5.147163502458689 9.941541451207708 5.163055360353813
Zr 7.294195660143967 12.849298082969163 8.381586211411777
Zr 7.013034283365901 7.803246882199765 9.714101618815247
Zr 4.482605916381568 5.6746644114047475 7.691064685486349
Zr 2.706471606363565 7.784167057869935 6.2691263180216845
Zr 6.99510885770952 9.977791730200474 7.578895050580165
Zr 9.360141557451934 5.811362333783398 9.979567756068212
Zr 1.5956686256260677 5.08057428641236 7.097275201583212
Zr 3.199767614835873 3.7497207995980597 9.324647044397267
Zr 7.027432841972995 12.11947037488858 5.6172649346343775
Zr 11.478497297564125 10.233244436959124 9.04902233193613
Zr 6.5324651785478896 4.345116916818596 9.771441772896026
Zr 9.683448973489988 11.58287999483143 7.044804744571335
Zr 8.030943621216242 5.967364961812162 7.450595478167772
Zr 3.1417678049078512 2.884323881421303 6.511227459052108
Zr 9.58855016020384 8.321772580807737 7.833420209503574
Zr 5.833415489369553 7.412211355324425 5.821158597700969
Zr 12.227576884605261 7.482597795330504 8.326521195206718
Zr 5.572599517353521 2.0616450353053577 7.646307292797214
Zr 11.688720229522763 9.569233674410608 6.206795309267212
Zr 8.621481854056292 9.375886655905944 5.064180440875664
Zr 8.535169231839534 3.005833354564996 8.10786232666093
Zr 3.246491842750567 5.229650038284922 4.675724455916859
Zr 6.598568670465875 4.234613798046828 5.9824992005730655
Zr 10.918449878865847 4.9786274174462966 7.746606154950756
Zr 4.03788172078242 7.710291554810263 3.4671321815232368
Zr 8.301924191926986 6.311454152799674 4.451811927640399
Zr 6.809310809958646 8.372291458315265 2.746172045129152
Zr 5.047036564281048 2.5993896206205553 4.393555559279317
Zr 5.654494610513069 5.4180445353627205 2.770498749952911
Zr 11.07039502280059 6.8324910808776576 5.4807987782458705
Zr 7.684654568471347 1.6220796411887088 5.550977195813741
Zr 9.857395696822522 3.665730076698986 5.432585354137299
Zr 9.934436208619745 8.035046825453902 2.812448024009193
Zr 7.917128071981997 3.4856423493941717 3.1614913912559133
Zr 10.505329408996815 5.144674518810372 2.919712268709486
Zr 8.184800918426005 6.046247760454785 1.4946105948652404
