42
Energy = -305.89286533 eV
Zr 9.281712185774474 1.2471023345139818 5.890374770741729
Zr 8.416079059003792 3.15886630580488 3.8630166865541744
Zr 7.653307486711225 5.152094830368194 1.8711859806366757
Zr 6.779085660856711 2.614579917071189 6.216753076778932
Zr 8.503788188580954 7.733390564436607 1.7555912106336578
Zr 10.299863752447349 3.9028617037597506 6.07022883069631
Zr 5.791461529328492 4.550529095456082 3.990566087944981
Zr 9.678176798598079 5.839292518793377 3.835615852460179
Zr 8.879642524528874 2.5814159159933125 8.29967331083255
Zr 4.1042404946420765 6.950813239746685 4.840646195481649
Zr 5.559325606475765 7.055712994095971 2.0649290389763464
Zr 4.764361946353147 4.974471939946279 6.913098197408065
Zr 7.724132794392696 5.477595216556859 6.511955300266956
Zr 6.815586879483034 9.733781199415057 2.377570844370402
Zr 7.1097351879542305 7.580291325403227 4.466546405282852
Zr 6.508828087912128 4.122932003103578 9.001715029639888
Zr 9.924787506774507 5.349198149049192 8.781001202050975
Zr 10.243832252146587 7.130938144387681 6.488999085051964
Zr 9.56601426010025 9.30693074883587 4.232276034346739
Zr 2.4707632967327773 6.637954077466445 7.437585679445992
Zr 8.628741330991039 4.155241289697083 11.057701928000538
Zr 6.102253666112883 5.429970929132995 11.809148019220482
Zr 7.4464640205640835 7.046518798329854 9.43888350015852
Zr 5.180997887198965 8.05794830380192 7.510014216099012
Zr 8.35163135408589 5.212890601877066 13.692870536903449
Zr 11.0027379014285 9.884510677662236 6.914289302546478
Zr 7.314382849306392 11.378850707862066 4.442440031071765
Zr 7.997007449904781 9.272313121161671 7.039730172388508
Zr 9.624338167523751 6.834709055565753 11.603225495629179
Zr 10.421994354396494 8.501529961235564 9.22330837313299
Zr 4.955297303406037 9.909939319124307 4.894927828553868
Zr 4.029311604112101 6.04591068758081 9.72369503043814
Zr 2.547091339797669 9.106724389388452 6.3314617684682295
Zr 5.1889603566839515 8.178761381176347 11.289731388267043
Zr 7.336173083643529 7.681869475680674 13.174803037101151
Zr 6.0147900621236285 10.442491485137156 9.618218308475653
Zr 9.43111863254931 11.862744411100925 6.009460529658116
Zr 8.324479795122516 9.44573048816676 11.099999500383332
Zr 9.059309126799494 11.285972308300723 8.88447229598855
Zr 6.685914204313596 11.997947632256643 7.188638673740406
Zr 3.0592850487830785 8.9436137678726 9.34367426477238
Zr 4.039072634719977 11.044307920609292 7.597411900978571
