45
Energy = -332.72083727 eV
Zr 12.072772307863481 5.010077719998392 6.552766281784305
Zr 10.71579027687331 3.319633870699924 8.576140631751423
Zr 10.22338493174254 3.0370494376103148 5.649973862727605
Zr 9.683768132872158 5.2486940556774835 10.685292566004597
Zr 11.465453050956732 6.526994363533244 9.00253818281891
Zr 7.767061476943575 3.2481923196758964 9.871179361120683
Zr 10.428766678956258 5.51221805987038 4.098716855875697
Zr 11.023138936116226 7.733359070899961 6.2696181789433485
Zr 7.505342780096252 2.8040589139941843 6.915082365960527
Zr 9.630248651421908 8.248404409898203 11.27494698683025
Zr 9.168287506450003 5.265312045950796 7.372821124596675
Zr 8.558156550636598 7.628285555564032 8.907446377364362
Zr 10.85359128431265 10.635175880285626 5.637814233079535
Zr 7.150364188879299 6.155141294230692 11.633530520419566
Zr 7.836683288265925 3.8773241710013497 4.128561356674916
Zr 10.75149077723862 9.800348600582332 8.439432834350631
Zr 5.188645742139187 3.914576662704201 11.092153376056714
Zr 9.734531251079408 8.614408010575664 3.684045125894718
Zr 7.805893233657257 6.790495398680069 5.286570876273725
Zr 6.206097069173528 5.4333084968953544 8.83158207985818
Zr 4.966599733154623 2.5685026161442517 8.287009155644695
Zr 8.194156793398957 6.357976607545424 2.392493102238576
Zr 8.733172508816818 12.066067073388188 7.191667883348961
Zr 5.521870095897832 5.509459779880446 3.169934550082277
Zr 4.894387201571805 2.814999788777155 5.01491595870925
Zr 5.392816185498889 5.13736805099123 6.231234593146345
Zr 6.355175339582518 8.977844408287183 10.926999424498067
Zr 8.461050414767417 11.279054214988065 4.221511381909169
Zr 3.121830503672185 4.59064563911132 9.363684845856643
Zr 8.265901792522913 9.426710354172457 6.525232829392275
Zr 8.466533459311924 10.60792567451867 9.81965208092673
Zr 6.7517406812756615 8.963212450705635 3.313136730581821
Zr 4.320498967138967 6.821666023878105 10.831845642410466
Zr 2.943781107638071 5.542647609002532 4.482765758199276
Zr 5.678571753774639 8.26114038067422 7.930131834464597
Zr 4.842774858682231 7.9634941068299385 5.193445538110006
Zr 3.805872628473831 7.8310266818101875 2.5057534953285643
Zr 2.714587663677299 3.889150354154149 6.814939284727041
Zr 3.6612644441633244 9.421258032775759 9.669118007852838
Zr 2.94264984553306 6.9711433209856235 7.518949295722884
Zr 5.943016979890887 11.18998680800362 5.61636968208243
Zr 5.945508257780793 11.10154548952023 8.605251926983719
Zr 3.894265984935271 10.3560009341013 3.801651710774531
Zr 1.9948068426904821 8.341430960673836 4.821240778945699
Zr 3.3893344995340677 10.069219204451802 6.860661406433384
