46
Energy = -338.51096962 eV
Zr 10.826120634982038 3.336859406182872 5.913221716304976
Zr 9.709519110721457 2.751216408207142 8.802837040924711
Zr 8.656572396474784 3.035322774931143 3.8418005267755087
Zr 8.206606934767825 1.8034765985453705 6.360887990569825
Zr 11.999347354551471 5.977139275804454 5.740963724918746
Zr 11.61981171153251 5.039154254015197 8.48887532754348
Zr 7.163574547254466 1.3896242312655946 9.142010820094438
Zr 9.87783370265071 4.86219741575697 10.778240878283665
Zr 12.07305566913023 7.820772969343598 7.825634698230335
Zr 8.86983981084005 5.510824778624312 5.671344670718932
Zr 10.353227089565653 5.253238459857631 3.3968976804161857
Zr 7.465623552540135 3.5141515319454704 10.910600827152859
Zr 5.966548704820215 3.446451935984548 4.862619940743511
Zr 5.328445100978417 1.757846265222464 7.0828445921509715
Zr 10.822474179114732 7.511177031543636 10.387143758561168
Zr 7.1687751558302235 5.4968318814098325 3.048001121033617
Zr 9.013835701000167 6.883233308701254 8.278180603121015
Zr 10.627574844815063 8.607258324034312 5.42033294099277
Zr 4.819368561990416 3.0845704725360745 9.578754568616306
Zr 10.09542346437781 9.941702785127488 8.117052660739125
Zr 7.578276718968901 6.640342763297065 11.012156654626867
Zr 7.085592937185289 4.278325316785973 8.01604029999525
Zr 8.699351084812282 7.825307709172906 3.420999415927667
Zr 7.878520010774596 9.163287918277106 6.215105817085066
Zr 6.2538787932751045 6.518271545689684 6.058851557856686
Zr 8.383770674891226 9.433102187024343 10.259847791763276
Zr 4.095147877664219 4.360399400483952 6.953362454522121
Zr 6.228645172937769 8.477215960286538 8.540345059523801
Zr 4.808329708532097 6.023122714297075 9.36138699058877
Zr 7.154908730677018 9.176846848774694 12.708377576562876
Zr 9.127737921421279 11.616143548443054 5.76072540372268
Zr 5.741857983199647 8.227992276197542 3.2610237603456342
Zr 4.1289844229179335 5.965701118077586 4.2588369570538935
Zr 7.606089672965513 10.60016960522093 3.5165300595566835
Zr 5.009026899361788 8.0647444629692 11.440786431648599
Zr 7.338638442711803 11.568080112934378 8.214832544696087
Zr 5.015415024963079 9.574222634794985 5.959649048524037
Zr 3.2035021533936496 7.252488898136066 6.785128550014659
Zr 5.526103154117364 10.752110859518323 10.564638227907176
Zr 3.411255379527986 9.101500826186149 9.234813851601276
Zr 6.193348157054587 12.382326870775355 5.612706866423004
Zr 2.8158044775551536 9.083388498159888 4.157797615350113
Zr 4.858623008410944 11.011199581275555 3.206153810012974
Zr 4.308853109682512 11.788739049959702 7.959415679945005
Zr 2.1167695493719507 9.992120254081609 6.853218098071505
Zr 3.244759319518392 11.949911707427974 5.228227307864366
