47
Energy = -347.33402295 eV
Zr 12.780024829903118 5.75346803340604 8.730909576898716
Zr 11.8880120322012 8.412271423868294 9.305304040082284
Zr 12.761067812539322 7.934284087773821 6.607648665966382
Zr 10.198197198800068 9.55332595011691 7.092132249086655
Zr 10.243007220715121 5.982429729111585 10.407797588669688
Zr 12.323365535231213 5.082464351064007 6.0023755011932725
Zr 8.531570796836572 12.123159061321173 6.318349274645147
Zr 10.614560141687415 3.825930396362837 8.162000372670201
Zr 10.316991053879695 6.617494230191223 7.452277944450735
Zr 10.428534602531158 10.399630072006447 4.522439115639807
Zr 9.644770448967064 8.858737947663704 10.915365295452215
Zr 9.0276606600227 11.206243244004654 9.106634311806008
Zr 10.697227180845491 7.236151672757389 4.505500336978698
Zr 9.38124510035379 8.996339307959195 2.384459087580644
Zr 9.817986121770414 4.194236273619739 5.227034923712604
Zr 7.568739963954018 11.147013655656933 3.5490914430625504
Zr 7.071255427490648 7.037727456969399 11.18865920886119
Zr 6.739874345363261 9.900056067854223 7.187077057084651
Zr 6.20829674038444 12.184834092172247 8.529686066697879
Zr 7.916746172280953 4.640875206895159 9.19105800055687
Zr 7.120212397515737 10.157198171827343 10.753345440275291
Zr 8.003288694077591 8.614295308166303 4.93797680489553
Zr 7.970245988706015 7.914270060785276 8.783994423232627
Zr 5.763349037305105 12.197910914130636 5.592535811360418
Zr 6.638334823737571 8.635469927840916 2.2243990659383326
Zr 7.60306520725806 5.907633407036084 6.281283929991384
Zr 4.907974677450379 9.093240645326492 9.484307107286103
Zr 8.24632852031115 6.271503701211228 3.110177842342926
Zr 5.698839813762454 4.424365455414848 11.28292193443008
Zr 4.902557676854479 9.760613149512606 4.32527035682298
Zr 5.355317039358419 6.094024363260831 8.92909428593786
Zr 3.8784729532094775 10.631426492894294 7.099057766394687
Zr 4.036806525527035 6.813745945761944 11.42499269433255
Zr 7.478467843955717 2.8534402324776087 6.824636034287526
Zr 6.843389235198025 3.675748947100233 4.362917547323634
Zr 4.5249479685774405 7.864768538494898 6.700174295303462
Zr 5.386384778254436 2.729507570519743 8.902846015657861
Zr 5.593567733677615 6.688032186967419 4.257467833248404
Zr 4.682297831398343 4.592344155156821 6.412881843135677
Zr 2.5921180696871033 7.4194637412840345 9.05832801373216
Zr 3.050878285436408 4.445124930514412 9.901012853287089
Zr 4.696356647848426 1.8956028653497565 5.6239244758097895
Zr 2.762207167524035 2.612593331956727 7.733421729142329
Zr 4.235243174145695 4.070130821540443 3.4549353745921114
Zr 2.7889939348535786 6.347458486088289 4.6603454824659005
Zr 1.7901758627072306 5.376795875854069 7.367441243990353
Zr 2.1746545971481215 3.540450371201245 5.198952858229684
