41
Energy = -300.19216161 eV
Zr 6.947561476297365 12.694762344424449 7.9410676496712345
Zr 4.403838720639948 11.119156080430532 7.752610842824715
Zr 8.852041794730713 12.15053883294549 10.330790803398745
Zr 6.179925030603028 10.38637112105461 9.954233568349164
Zr 8.106748884745645 9.812037306533758 12.003561425667144
Zr 5.495651300936185 12.031350187085804 5.340375744982219
Zr 4.143252737937702 8.277936609802277 8.04103755391112
Zr 6.129844802520907 6.97932170849911 6.044436078957014
Zr 7.144634737500638 7.549036897375875 9.165802332702508
Zr 9.91642212701118 12.10121840958326 7.368382133059724
Zr 6.562436655124637 7.69736174324815 11.90359902002242
Zr 4.758963049041008 6.206687622435586 10.042172769927825
Zr 10.739494418470748 10.083426311233659 11.822039278652
Zr 4.324829106698197 9.399843336000638 5.2577183497223885
Zr 7.074569705203239 9.910378984967497 6.941283364391343
Zr 11.698528673120126 11.540397120503789 9.562259007605725
Zr 9.413865265828163 9.60252540816339 9.099065104897084
Zr 3.2044350432238713 6.796166113786251 5.512413745015104
Zr 7.568781881757602 5.0779937510219915 11.115186220921304
Zr 8.143434422227395 12.282014863902354 5.1777519830283945
Zr 4.013980562975041 4.521029038336212 7.453236508881972
Zr 7.057634043267419 9.758642015767869 3.9583003551896594
Zr 9.019181309496798 7.407818654986675 7.026458227091433
Zr 9.889245886134747 9.993181717467984 5.099442439702522
Zr 5.244690102737066 3.574172612616432 10.183042439111787
Zr 12.317714471932433 8.7712485777514 9.96989101879908
Zr 11.942233305413954 9.69880702259802 7.2113849986615755
Zr 7.001869311211539 4.700416510288693 7.805138430043235
Zr 9.740940918004258 7.244189099228619 11.000276084878305
Zr 7.987032846893561 2.5554797657301647 9.79417680788116
Zr 5.527653319738075 7.109489510685369 3.335345919447216
Zr 4.60913163284098 4.6958902306744426 4.449280819271605
Zr 8.817034002421371 7.302451249282363 4.02480398832979
Zr 7.5681313444348675 4.704353196557683 4.355412429891691
Zr 5.961948868522391 2.6964158644894782 5.5924909227339485
Zr 11.472682151825616 7.481858151158094 5.331701716881905
Zr 10.087499057504647 5.018155561487857 6.013781546356564
Zr 5.866773124703299 1.8805161587636272 8.079455091784066
Zr 11.745462666225238 6.795434333079752 8.134030014271433
Zr 8.64117923654563 2.5103863895258667 6.910131754679989
Zr 9.740912398525202 4.7577098744657595 8.992479792699438
