49
Energy = -362.51997128 eV
Zr 10.28425065912082 2.7771703865362727 10.46477111150178
Zr 9.28900376115709 2.4152450573625392 7.835360433672354
Zr 10.797609364468363 5.198926472470059 11.407536116802568
Zr 11.161799761158248 4.828638288709282 8.292612904032042
Zr 6.226459736573969 2.689479296230251 7.871380984180785
Zr 11.263515807698655 7.480775041707364 9.775190519556023
Zr 7.575899941728302 2.078046222813831 10.245555339457697
Zr 11.084954580290038 5.632623181954001 4.372103598157274
Zr 11.812613380515979 7.740152217456586 6.493004212278008
Zr 8.946517933369263 4.914817644298836 6.2730129063370565
Zr 8.140944471268329 4.164656428114199 12.19852644049861
Zr 12.093225887745414 8.235602797726425 3.5821569505480104
Zr 8.325811080609054 4.9913577667726825 9.427505457687817
Zr 10.933765895071996 10.66623149524733 4.921357374132958
Zr 8.748392093347865 7.244330477392937 11.63869555916598
Zr 6.960989202481222 3.4203251317577306 5.121582680095642
Zr 4.247438378736806 3.191735994132541 5.690107591469335
Zr 9.521559818076343 9.619295147969895 10.394312390017017
Zr 9.155422932099484 7.421200208632002 7.831286821063831
Zr 8.132130668912284 5.478262181302477 3.2772720799283848
Zr 5.466675081194593 4.199475801387653 10.302568133179559
Zr 9.380490309154615 8.062093993257848 4.691414512186846
Zr 10.018628235582097 7.048237936048087 1.923835590555976
Zr 10.575430475121996 10.185249382763615 7.837220501329935
Zr 5.908690072807958 6.710203225463749 11.862108643504857
Zr 9.952234754076729 9.831179531254158 2.318921103957406
Zr 5.6172889385046325 5.515681460936734 7.493841181132518
Zr 5.097503885632228 4.914698450174546 3.4957222597932747
Zr 6.522989899797137 7.980789577012356 9.335668772274545
Zr 3.1354318953289795 4.138385981559152 8.083514505761505
Zr 9.095551519030339 12.314292741449611 6.446818628033678
Zr 6.611890652935489 6.965995733035885 5.338771578065748
Zr 6.928757014109248 9.785205248300654 11.557050358383183
Zr 7.605889949777016 9.63762571951091 6.600339477981987
Zr 7.968824996666823 11.50797158534965 9.003462409361465
Zr 3.5845694379614255 6.571895498765332 9.861342664455895
Zr 7.209914490719356 8.383944877102596 2.6743808950314616
Zr 3.1706105925671855 5.897338728868651 5.41948483921988
Zr 4.2142654322752575 9.049594484187217 11.097406929196092
Zr 8.028412708136464 11.198651715201589 3.9923925163894656
Zr 4.646796026355432 8.532525256842112 7.1573165679982775
Zr 5.049899809695871 11.039813581117015 9.170700108729825
Zr 4.230812019476126 7.6926747631733 3.429965800645336
Zr 1.8101217073531626 6.821132283274924 7.6431071660502985
Zr 5.154491621755483 10.105162396439125 4.4623626277085044
Zr 6.127228022438839 12.05596436899808 6.532707544096313
Zr 2.4363806637679892 9.386034313247904 8.810185931185343
Zr 2.338087335383531 8.855172546840977 5.477600843785926
Zr 3.328036141584644 11.225494784154028 6.714013798269182
