44
Energy = -324.97435422 eV
Zr 7.975926637141972 8.912665278092831 2.5710520243904185
Zr 9.036264856898581 6.138712030535595 2.7902294429676426
Zr 10.157278529035153 8.555284910040793 4.553743535575728
Zr 8.003664818570797 12.621394347563603 7.211347901681618
Zr 6.050742828156589 6.7653658572161515 2.026451263173258
Zr 5.329905999334523 9.272117464864463 3.6902133558562022
Zr 10.26699192493134 5.821098966815045 5.7634689724005765
Zr 10.389918664466355 10.742582739277099 6.957007370857058
Zr 7.673440839079259 10.312179638723672 5.253207330259531
Zr 11.691300212718835 8.029967188711279 7.146001062375304
Zr 7.321310922954739 4.165407284116475 1.8108397468457353
Zr 7.266594546634263 7.206480647561609 4.891045179078868
Zr 5.410524914921595 11.617662981938913 6.953134566249583
Zr 9.544918054027217 12.017235747801442 9.46155753493232
Zr 8.89405426838133 3.479565541907255 4.407405505217985
Zr 8.846900898799129 8.081599304574633 7.149700444248555
Zr 3.8211030743935384 6.8552707461554405 4.060865739989887
Zr 5.179521495620641 8.662315590129356 6.64297957551428
Zr 7.463377422031503 9.992169007747867 8.604387831294009
Zr 4.31660733531144 4.099339756217811 2.4367788886604997
Zr 6.518856733838457 2.0042479663730957 3.1778031488542293
Zr 10.548801855147474 9.2227305341314 9.607209113076872
Zr 6.446587582579593 12.18861231805541 9.886127979177404
Zr 4.237448929596302 2.0519156846466173 4.720374210351667
Zr 8.471480435766466 10.511946056912643 11.485574057629552
Zr 7.642964139460835 4.868210981181994 7.280614542607397
Zr 7.0815006303454435 1.873551029422539 6.081738847498818
Zr 10.186337618969514 6.093782178343 8.908141367431552
Zr 2.4164091863449566 7.25747557371835 6.780186789827416
Zr 4.320548146865332 10.140064530230614 9.050488597901913
Zr 6.803343025242083 7.1503311619145755 9.165342074926953
Zr 5.972303023957613 4.540325337941916 4.569572751653346
Zr 9.54903822389713 3.0945918055320685 7.716577494508658
Zr 8.652315616313418 7.670209607116942 11.378210567073298
Zr 4.851929036588176 5.805859788827264 6.994058683553096
Zr 2.709024922456485 4.51052473374519 5.315789341794936
Zr 5.906375770215208 9.247682396929802 11.386715203867876
Zr 8.161821139836526 4.607387215567971 10.35514904051133
Zr 6.878327987938766 2.378949198225941 8.919618019266602
Zr 2.4848133388860623 4.79421903066268 8.351935331819263
Zr 3.9121802796239473 7.228858592783302 9.576696127015037
Zr 4.406724929850786 2.7342187335127024 7.401018146044505
Zr 6.050475923932641 6.3403686380322934 11.83152019845849
Zr 5.1271968081983355 4.445127468114872 9.872902756238048
