42
Energy = -308.42761581 eV
Zr 4.632216543650992 11.047368826572214 4.343637879540523
Zr 9.038141844963597 11.530159521333461 8.132115628599296
Zr 6.880408640779787 10.789574631731627 6.130943189979969
Zr 4.518504363592514 9.34691299448917 2.1781707932946466
Zr 7.165667338600424 10.148336835257012 3.1478023832899447
Zr 3.8832655939228684 10.113898109096668 6.94181704286209
Zr 9.66017577655771 10.357568983213218 5.339378692078346
Zr 6.300216189258158 9.9439423773544 8.847950604967247
Zr 10.961524679706825 10.532663635259551 10.009877433029422
Zr 2.6950854322669056 8.820740617991671 4.488423421824743
Zr 8.757796188480734 7.791598615058397 4.2756450467182
Zr 3.7499065651149732 9.240092007479255 9.653704696769804
Zr 5.661357453912978 8.197012802705189 4.9570940950312545
Zr 8.806576361064694 8.69963214777283 7.666665599039494
Zr 8.34577692239998 9.59694442776466 10.878959416063562
Zr 11.59974680383646 10.212057115248776 7.345677138090575
Zr 2.2136269151944648 7.760726129430498 7.597203462629877
Zr 11.084776745907757 7.610450714053624 6.127127506671026
Zr 3.932365689212246 6.743079138153814 2.7647702117292687
Zr 6.735733678936964 7.387423639504553 2.1587705360396745
Zr 5.965239088741517 7.504460444342998 10.868688226638682
Zr 11.693681359175851 7.859239401369831 9.131146490305955
Zr 10.71820268154718 8.406683562707986 11.81256137499892
Zr 3.202091185930643 6.0021414767373535 5.42267664243439
Zr 5.27276026033841 7.061344779951877 7.92071215953422
Zr 8.053314361912921 5.767944055145244 6.462370314116089
Zr 5.897050425518414 5.1872868870539435 4.1507781813734175
Zr 3.159101397493745 6.662927669959584 10.224254952570252
Zr 8.451888876903443 6.581339054475697 9.568830642867775
Zr 8.418190300913215 7.001585003497161 12.550951970402236
Zr 8.500447403194128 5.0476654553563804 3.1510152761640393
Zr 10.502238933458134 4.774834428832271 4.996108727545932
Zr 10.865440536498081 5.359816138015426 8.034075965536193
Zr 2.93024422740349 4.971520911007611 8.07007600223243
Zr 10.749747611962107 5.5858705766736785 11.258874594694408
Zr 5.241456017952823 4.021683253125007 6.745067096157254
Zr 5.320329253532292 4.661009639275889 9.750301759467277
Zr 7.925495473429314 3.094024576457715 5.194787135230569
Zr 7.579169317906859 3.451378896125324 8.458408594775827
Zr 7.912463445407066 4.422910003881363 11.430381358752898
Zr 10.031921916987471 2.8054779341287834 7.001452282319567
Zr 10.022344163171665 3.2646384029416518 9.832456779782918
