42
Energy = -309.34356306 eV
Zr 10.056243488580234 3.96687209802091 8.815891354545718
Zr 9.565925353268414 3.3675571813840763 6.009630333963884
Zr 7.489818482091097 2.5561819033834063 8.220323490152582
Zr 10.482778515429839 6.212039021701415 6.85033871451778
Zr 7.942911549764909 4.12791045098474 10.837393681152006
Zr 10.298060185745078 5.983576900492032 3.4700258149095626
Zr 12.12503357077831 7.864029734882763 5.17690787466674
Zr 9.64322345719597 6.752804226295562 9.84998800556656
Zr 7.759288072671057 5.374625836405191 7.601760921498764
Zr 7.801588898062581 5.559544469566987 4.625401775089549
Zr 8.031777954509305 6.655103613244306 12.496536305178443
Zr 10.974624121774315 8.765163815653487 2.6871851659081867
Zr 10.78600913647588 9.295373686729672 7.469644188119471
Zr 5.049873125643274 4.345181722161445 6.655225641394905
Zr 6.8986726693046245 2.523607743003733 5.3835465534376095
Zr 5.552123660696796 5.147435819043335 12.3204779921699
Zr 5.098958656441785 3.839222656827375 9.776935978617653
Zr 9.1393796602692 8.396255104775822 5.085715870834092
Zr 8.30674476711342 3.2181035888147376 3.0711261860885357
Zr 8.1106403894714 9.015635420791938 10.989841968710522
Zr 11.275584412599652 10.613049925953923 4.916582153184717
Zr 7.401810762585514 5.412082145826719 1.6814107498663156
Zr 6.558635236118968 6.630333858978982 9.953381236373952
Zr 2.793549620430846 4.8612648529865226 8.247075782121378
Zr 8.114012683606724 8.149264126053987 2.211036645985984
Zr 5.425849002458025 4.194739077189241 3.550849346875482
Zr 8.992365650751106 10.829730893752494 3.2412514433877857
Zr 7.952258019271282 8.605094966644847 7.9776725373889885
Zr 5.9277341997480555 7.363436429591777 5.767133360101113
Zr 8.632350538084328 11.11044841912588 6.186861059400741
Zr 5.3550039143384405 8.135216246745214 12.137419434565206
Zr 5.46249207531589 7.145722793435056 2.980711640892817
Zr 6.48006502114213 9.946661472767536 4.089582864499778
Zr 3.2649927301311736 6.1485710973545915 10.797253848007179
Zr 3.0236441709432254 6.2216704789758035 5.697358087162621
Zr 4.496583504121065 7.541963755938678 8.143454711896196
Zr 5.729973068247647 10.123466968807865 9.839503523305439
Zr 5.662462753162814 10.345244358509422 6.829164754559884
Zr 3.3439495077959065 8.948463577782643 5.668956701310748
Zr 3.0756318909469575 8.965388348657955 10.552125620772859
Zr 1.70313543981514 7.631114886277987 8.241371595654064
Zr 3.159324244993047 10.321857506570161 8.19724423995112
