40
Energy = -294.07901676 eV
Zr 8.211972960064651 12.115206419725375 7.056910409593477
Zr 10.651554915196568 11.065567070974543 8.270689355508983
Zr 7.122833925856897 10.804224111946588 4.766745795307957
Zr 10.33022702935294 10.853543588226795 5.256794717940333
Zr 7.9445119999820974 10.596648959061067 9.616138331002619
Zr 5.765366414172056 10.250815391630544 7.4024822737265445
Zr 4.387551122562695 8.905644790550957 5.0575623686598945
Zr 8.84709813894577 9.245410808575908 7.0398200003855305
Zr 8.92798433253374 9.231418401828028 3.269646184513585
Zr 6.27573682137141 8.222368340516727 2.625383882662575
Zr 5.183987949634983 9.25701092154158 10.260173747319538
Zr 11.76871556682176 8.610556671338394 7.140539543548042
Zr 10.782133763779708 7.8128775125688374 4.695938699603097
Zr 7.699042360412921 8.775772203565133 11.833453352682772
Zr 10.172527156819944 8.479089415212913 9.811371972196964
Zr 3.3779960815226002 7.065587563367936 10.411847532177733
Zr 7.534675415957839 7.399319844452809 9.22725566321066
Zr 7.216450770931702 7.802602924148815 5.429904056788657
Zr 5.022863936147236 7.090522209719953 7.781710827022909
Zr 9.55160909681876 6.334612700694945 6.786472902092512
Zr 8.961190482012723 6.32583560804492 11.695851399668815
Zr 2.869930369982743 8.626382934254424 7.878867499227771
Zr 8.57188987621474 6.235246956532396 2.948592865281311
Zr 3.0093431365664927 6.151128426710248 5.607579822128784
Zr 3.8277269449026594 6.7765473750047605 3.019248406756868
Zr 6.087675015882852 5.469859804981575 4.728177706322365
Zr 10.037604131640833 5.341398738691757 9.300282577983571
Zr 5.875908170387937 5.46260103391114 1.6915877642774766
Zr 5.912208978582377 6.438947910020229 11.548161077433827
Zr 6.913448027179091 4.870562832829928 7.626232109667571
Zr 2.3708352836650115 5.645578416986916 8.319064620503317
Zr 8.968811069523086 4.0289850121893505 5.032432873317636
Zr 4.559726458752159 4.357174619536538 9.882199845361054
Zr 7.582455218539221 3.9965460371512007 10.499180292131694
Zr 7.207017724697818 3.40405091682344 2.921659678361568
Zr 4.016509630942108 3.6183754724972648 6.935735095388255
Zr 4.191262048065593 3.7892728987331825 3.706117865691926
Zr 8.888284505174772 2.922440938823722 7.852664791213127
Zr 6.567851019451609 2.4586961096990194 5.681000841236192
Zr 6.092756524916585 2.2471699339503464 8.587864468987995
