40
Energy = -293.51662142 eV
Zr 11.987190256219291 7.103427378380618 8.064922019652
Zr 11.386050203010225 4.4021285244953985 8.49071174972747
Zr 10.32864715398934 6.465597949524232 10.546315009337906
Zr 10.494691098154483 8.502417061431412 5.92713994550536
Zr 10.159197221488173 9.170443978754614 9.07446250540218
Zr 11.016753688538765 5.464855484496905 5.56724245031123
Zr 9.01644469909744 3.873809763781868 9.845553693155876
Zr 10.460737315265243 7.201507326959989 3.1267252859230763
Zr 9.288769560473174 11.221109904537407 7.074152707913541
Zr 9.158122535698125 6.149651154432919 7.729424492734142
Zr 8.311132819539843 9.360382164074458 3.7410686956259007
Zr 8.532361812681737 8.659204305098212 11.510052269753603
Zr 9.087661160017497 3.332859786674864 6.747381502595819
Zr 7.3344963648202 5.920950695896577 11.422550902312219
Zr 7.477164332625963 10.642972512355376 9.587865090088018
Zr 7.608558995506323 9.174935108910576 6.612214984209084
Zr 9.115650856829783 4.49346380615653 3.0880340055251687
Zr 8.239268440435778 6.650477468240368 4.872868041711236
Zr 7.27273078537898 7.536607184873112 9.11340578774586
Zr 7.839684801749257 6.9610989451853325 1.9772928454928813
Zr 6.107743054406651 11.918080559179133 7.287621013853959
Zr 5.31526269676444 6.888608961559119 6.5634855438828765
Zr 5.52305161907482 7.702043560015836 3.6173557780006775
Zr 6.54306878254203 4.295952357984246 8.75154413431858
Zr 6.506187103758801 4.585988648389281 5.795341883256776
Zr 6.277017818267148 1.971917538910767 6.90845740629026
Zr 7.403361639153001 2.3627979099201797 4.190362420733689
Zr 5.011057046566878 9.097697077010524 8.103492459935277
Zr 5.215652933156607 10.188174036216111 5.143436894647691
Zr 3.9207024156406853 3.957895889648765 7.309069913236496
Zr 4.529840149053618 11.37678067395329 9.759370203864357
Zr 5.5162971101474785 8.728068236287912 11.134908907883172
Zr 6.083647504393887 4.72647528495201 2.797120671084495
Zr 4.517054012623289 6.310582617432892 9.759892781549368
Zr 3.576455686158071 5.489982038950791 4.736689577145145
Zr 3.239375095089586 11.298433261296983 7.14663448486178
Zr 2.559401776633779 6.561051159105996 7.611843858226795
Zr 4.580798770702882 2.7613417008441505 4.5834717981444975
Zr 2.7819263074635425 8.699414091161804 5.926608697934844
Zr 2.4704356945419903 9.13796157819891 9.08651366150048
