46
Energy = -339.99519031 eV
Zr 10.981398803953775 10.767869432545792 3.2421390588761714
Zr 11.429745632014141 8.03085187023595 4.017248531691069
Zr 9.078264480331246 8.77059506076855 2.225984472890031
Zr 11.659309017441991 10.365624118292072 6.132970686564671
Zr 9.718235235695804 12.523099922974444 5.152092344684551
Zr 8.131204213178316 11.419408229830584 2.942796152564989
Zr 11.766473091830887 7.298482593422587 6.808010318397447
Zr 8.776251021504516 6.700088387577067 4.258190141595488
Zr 8.869196611950418 3.840574093212231 3.2859906699612766
Zr 10.596137521283895 4.620492903154321 5.247183122682909
Zr 8.967459578305904 9.613494405027343 5.163687556205185
Zr 6.41147135069034 5.66446257917863 3.032343805203846
Zr 8.911116416492469 7.459519784724111 7.192303161858149
Zr 6.853557216803757 11.741188868272403 5.538212006746645
Zr 9.007775083268902 11.441450922658523 7.678518069777687
Zr 6.404096520722534 2.6575773869992503 3.8296422037502262
Zr 6.339935548372155 9.102856635456826 3.783188595486484
Zr 10.781921562711322 9.376153014884597 8.680865544245071
Zr 8.659149712993075 2.1255360800812744 5.776568510680481
Zr 5.990053494462105 7.054182904018255 5.79246813651401
Zr 10.389759950644454 6.670121261374168 9.71151804205423
Zr 7.3566350130051985 4.569408760739043 5.983121942389032
Zr 6.627287120014506 9.597914215280573 7.474261834174844
Zr 9.714234718540348 4.502360847768641 7.861785019205693
Zr 3.8743458319680193 9.284468753454112 5.8880111099573735
Zr 4.256427118473197 4.364884881990659 4.691555290462686
Zr 3.8824163587872125 7.156141223015339 3.7437319422395094
Zr 8.305260338351268 8.806382867426445 10.227195892109926
Zr 5.355942269743719 2.2582440899219978 6.613836833190849
Zr 4.701718840439568 7.687828216578467 8.625256702914822
Zr 7.3787920034293535 6.11886246958044 9.309611711801605
Zr 9.209980954180127 4.017659886021028 10.623758059057572
Zr 5.029157851749848 4.900765600960807 8.055658700684758
Zr 5.67250332905382 9.983324751397467 10.422602284443085
Zr 8.506578738830225 6.322549638545337 12.080440891815208
Zr 3.797984269693071 10.501980208047978 8.535597248826912
Zr 2.519244386906162 6.449687797689989 6.175241176922213
Zr 7.256868650156962 2.8309742352541596 8.757706114059548
Zr 2.6168903898726805 3.618276061485238 6.959494790284385
Zr 1.803007974357688 8.495025677346446 7.974272806420491
Zr 5.899818441775101 7.401637689445879 11.82356968860719
Zr 6.368429911891933 4.177400062581505 11.366803953243883
Zr 4.023164970439309 2.939487788572289 9.548484351399338
Zr 3.0010977732307023 8.457042686287135 10.691767092483873
Zr 2.154414850073075 5.686745959616396 9.099271155207328
Zr 3.9164038231853797 5.567697734688095 11.13238131695329
