44
Energy = -324.71228958 eV
Zr 9.253357920419843 11.60048095986672 5.5348529266319675
Zr 6.688867872233779 10.538640617409683 10.46533473801327
Zr 6.6757142141153 11.947324103921945 6.548069666971266
Zr 8.580843005078505 10.165662463493799 8.264226970352528
Zr 6.437992428059401 8.654054945482457 12.53530891304733
Zr 9.07752106144365 8.631121142591992 11.124194048809562
Zr 4.277826899511505 10.71141847143879 5.203909271987196
Zr 10.430143886349622 8.613055482735403 5.905531189979346
Zr 6.797508417715049 11.343189005414548 3.5894918449976925
Zr 4.185703297185857 8.9102659720174 10.495793904478749
Zr 5.421514533675379 9.792207485561221 7.929982477024014
Zr 10.993385265112078 8.570827025162053 8.956427304208399
Zr 9.459376361848015 9.840270223867359 3.365338099528551
Zr 7.832713390833437 5.9666757621066004 12.187698307702233
Zr 3.0929229185509457 8.427826156382652 6.980659716214826
Zr 7.506582970894929 9.239418875640236 5.62157945191665
Zr 4.454214275527657 9.517433133196018 2.3054011768372176
Zr 6.619189743104086 7.525382582882491 9.81543465192262
Zr 8.77748016463525 7.130255357503495 7.633608485835459
Zr 4.764589809164673 6.53150481392847 12.066064180049944
Zr 5.250159634089877 7.78229293234719 4.449169629989681
Zr 2.3797588275735744 8.649546584474793 4.253434501552617
Zr 7.317390245061028 8.99257844298466 1.9677086687489616
Zr 5.694172612597427 4.03894321433407 11.579455633736611
Zr 5.488594834503404 6.676891626681815 7.094510193697014
Zr 11.60309417430288 6.210123482434654 7.6321869643506215
Zr 8.423719017196422 6.937941703866257 3.772221790485518
Zr 10.042630809868754 5.8996032118977695 10.174965307025547
Zr 7.133240692779511 4.843664036655203 8.915271326789348
Zr 2.9903431873385693 5.92748708545064 5.492475320566664
Zr 4.04832659565035 5.372648012188362 9.333302515137694
Zr 3.2884908110188786 6.604773501096485 2.5594616250937925
Zr 5.934571425983676 6.71949925853024 1.671683360523611
Zr 5.439542838646165 2.50718949427767 9.375048583615222
Zr 10.54947921482487 5.228872125568687 5.087509999691183
Zr 7.676120508496449 4.813541619702543 5.926875172802893
Zr 8.347686569796776 3.1462785578671486 10.600149080106592
Zr 5.290865627106654 4.741415541928407 3.8594384908048145
Zr 10.064008369295784 3.7761269825063284 7.898582512717544
Zr 8.307864516205365 4.174812455730248 3.126115513673526
Zr 4.9579130531374895 3.603782979684656 6.757819034413016
Zr 7.6826860570269275 2.078810022098742 7.531576460909477
Zr 9.519991217546893 2.5112722844575748 5.244111896428996
Zr 6.713300549344899 2.2663726342439166 4.687828034338911
