48
Energy = -352.62089706 eV
Zr 3.5690546305869515 8.446032833576801 4.571818458101906
Zr 6.107120565267171 7.37819137609858 2.982477064516024
Zr 2.248293601269297 9.053023259404391 6.972852747650993
Zr 6.407269717638114 4.480876184062134 2.5009638339301983
Zr 4.282554008037405 5.416094075601837 4.375337022753766
Zr 2.8301157489368713 6.389837920097957 7.076330043953821
Zr 2.674346556846785 10.848225189406207 8.932091082909793
Zr 4.409851255151768 10.853168967160604 6.37498049133487
Zr 8.632554677088761 8.7814984931929 2.6605612235389935
Zr 6.365796114143634 10.098289330258412 4.120898980867016
Zr 5.8608690062806605 2.800618637877343 4.825890090708922
Zr 5.048663975010915 4.406396448166398 7.025934897225392
Zr 8.941426564538922 5.918871591333202 2.7773199620658224
Zr 5.269409803154735 11.931908490272171 9.083318251639213
Zr 8.254212526993133 8.30476055827329 5.572320650096968
Zr 7.437152286529649 10.963832888680917 6.949665722095425
Zr 5.5440801470565395 7.565873568257383 6.325579917238127
Zr 2.332775195815406 8.04434170348079 9.80165527363761
Zr 9.406911065096246 10.73768206553465 4.48884933473981
Zr 8.521999260310553 3.093739493589813 3.8597495514421403
Zr 7.922520923289442 13.181294241666508 8.914568183791953
Zr 7.333648430212924 5.4305582131073535 5.276407653351788
Zr 9.85782652493784 12.757116798667619 6.951256284085699
Zr 4.165885677294178 10.162245996445387 11.327897612680227
Zr 11.013187886460946 7.7195194643825165 4.723076272159667
Zr 10.290652369847612 4.688073517832922 5.309608854936421
Zr 5.059226506585175 8.860368381235727 8.902034447829848
Zr 8.101066593101246 3.138065624579732 7.035106967524863
Zr 10.078298804007568 11.483378759461267 9.6287855226961
Zr 4.44462121961647 5.7520594073812275 9.636144964549544
Zr 7.320280705363942 11.070424923534961 10.901228720099342
Zr 10.222215431936752 6.852542846209745 7.516233869941177
Zr 4.381335157786752 7.400260920388032 11.835279071514675
Zr 10.644610262846058 9.96464952822879 6.965788997574214
Zr 7.393978529371012 5.819501022977601 8.547606770529477
Zr 8.40559331557837 8.929980640021418 8.9105991925427
Zr 12.927375472949645 8.238711740274036 7.161641092132257
Zr 6.059224508525787 3.19354383172997 9.388702074981843
Zr 10.893154615657123 3.9657374033346624 8.44170771371875
Zr 12.69896110847002 5.584609293535857 6.470145619117187
Zr 9.536585957565647 9.332454836450335 11.646001464522115
Zr 6.985014895072603 7.906984117724564 11.182706953076117
Zr 6.987033991308292 4.956923519754759 11.5319002940778
Zr 11.6203712221753 8.818765102149104 9.775710580902677
Zr 12.57569656581362 6.110005321328892 9.358319753891827
Zr 10.843617266988437 4.1891738114422585 11.425137540197749
Zr 8.733618663012475 3.0694869804347866 10.002132214075642
Zr 9.64214272064832 6.454731765919443 10.4670068093573
