40
Energy = -290.27608295 eV
Zr 6.573760106380666 13.058660789261292 5.853622673998675
Zr 4.00162141067365 11.69812821443427 6.095340567559417
Zr 5.729999737803557 12.23721186902743 8.447759754154449
Zr 5.892401061138138 11.124896039347735 3.872325518936736
Zr 2.001451945100576 9.580822977885063 6.507481970008431
Zr 4.257529691097482 8.965793824412929 4.890265847205586
Zr 8.661315761182994 11.330387334398138 4.7251014406219385
Zr 4.118557846990691 9.810652821373129 8.422719895862816
Zr 8.528451895460545 12.076445787391705 7.769043170300976
Zr 6.709690205224499 9.993951607614951 6.6037090198416815
Zr 7.185446454948592 10.118592947737929 9.854397808613856
Zr 3.110522585914904 7.101912636992767 7.250018410947355
Zr 7.442696686367421 8.573989097152232 3.72041736924931
Zr 5.8569342432014855 7.023105781901514 7.044018674328981
Zr 8.224647113327848 7.488405635382493 8.893516729832992
Zr 10.511998136832418 8.961924529004799 4.170186870218311
Zr 10.250309467330744 10.240612980064517 9.256581274295897
Zr 5.383470862619454 6.295098299718976 4.13862840063742
Zr 5.181267032176705 7.432468305948438 9.927879749410645
Zr 9.882568063613288 9.397224532887115 6.729977490741635
Zr 8.534189797415584 6.6223478480952025 5.775518223547537
Zr 7.81275502152062 5.498331817397069 2.9605219595707863
Zr 11.184425832662946 7.487776233031178 8.968672169134814
Zr 7.348403486411747 7.719347591098466 11.846280204321348
Zr 4.210779387554545 4.576240733044939 6.123936807254178
Zr 10.237828904901598 6.574390504993534 3.109155875598079
Zr 11.480056034685832 6.663614161680512 5.784500555202072
Zr 9.763631940128475 8.672288831523504 11.331718294352696
Zr 7.207864354767628 4.486311519199646 8.2486603020702
Zr 4.2539834700951005 4.712491748719319 9.021698319445955
Zr 6.756627257807805 3.81792605475232 5.008080418632929
Zr 10.16740072295288 4.846012727893103 7.883902725657922
Zr 9.934069820301504 4.219437344457961 4.7861335560799105
Zr 9.585045689395411 5.743779923159655 10.868352492275166
Zr 6.529481786327881 5.129008906636844 11.18432540378848
Zr 5.450529114952405 2.2679088611477085 7.338712194725731
Zr 8.531520289179012 2.257453263483154 6.60527321420039
Zr 8.700594624760253 3.0824000464040036 10.519111909711784
Zr 5.8326514228281825 2.538618701297683 10.274020041973724
Zr 7.704569123418419 1.1561821407521815 8.824348925995313
