41
Energy = -297.99862821 eV
Zr 5.530968300912002 9.68058033032391 3.5443167019297404
Zr 10.655632903541061 7.774227791408149 3.0835871642957886
Zr 11.422607550465738 10.475210863756237 4.166959155702765
Zr 13.307222202256732 8.621847029573118 3.8245470325067537
Zr 7.645733414677508 7.4931898268828485 3.1040955838390425
Zr 8.678923480680336 10.177788075555343 3.7067516622071692
Zr 4.836014979867731 6.912052847896471 2.9343719787358933
Zr 4.275144193607385 10.608672342474039 5.900013464582403
Zr 9.570467030137001 5.223252828435951 4.566070379525328
Zr 6.590868663862387 5.005648104402389 4.243968744354808
Zr 9.202513148415028 8.086068711604494 5.721231798273421
Zr 12.343128959170908 6.140459793488269 4.919106113343089
Zr 10.017366957183333 10.92216575613731 6.499221734176971
Zr 3.783255319173677 5.128939668211324 4.980973088683277
Zr 12.117207021090387 8.698331723023012 6.465761495358733
Zr 5.639795035057788 7.8477105069261945 5.760251148912164
Zr 7.220599990857578 10.446182855027887 6.528717856396949
Zr 2.9552585134830345 8.308817052101366 4.689183668917146
Zr 8.906527576693847 3.5949057907496247 7.352158652653984
Zr 5.008851363262529 10.55484113420649 8.735487261891095
Zr 11.441003029816548 3.564494243848899 6.017948369732359
Zr 7.888695787754551 10.911445022380285 9.496610162674314
Zr 7.569350250359532 5.970260656870199 7.088634071294199
Zr 2.777263500959277 8.817543509096875 7.754384134803305
Zr 6.807930669259279 8.1965140937947 8.807416161505392
Zr 10.9347731643057 6.013617228396851 7.477858870508268
Zr 5.709511450742627 3.369919657901665 6.711321479498883
Zr 9.862690950280696 8.84696111701761 8.554319875398685
Zr 4.634674124363359 5.964195380454391 8.089077356618219
Zr 1.8297281650195127 6.375414821407149 6.516971030816404
Zr 2.622877852907685 3.9031289123358093 7.847117303342469
Zr 6.96326645481762 1.5230889281084432 8.491540349512382
Zr 6.069442612594344 9.639345516774636 11.411375402770458
Zr 9.056646392564952 6.113051150640542 9.872310351438596
Zr 3.9257307823711773 8.094868795474879 10.473147742372998
Zr 8.654349644307375 8.634512188775625 11.187723127583418
Zr 6.8502291196338225 4.216050695033209 9.601941016475319
Zr 6.4396137050322535 6.6481029279476545 11.409516770848645
Zr 1.856313587207937 6.375695068653738 9.28316919295014
Zr 4.5400942559729955 2.4343797803113247 9.32732975287069
Zr 3.8706782197844802 4.965952139566035 10.697386368141624
