41
Energy = -300.31792165 eV
Zr 4.069152661928166 8.16784562276538 10.797953124166
Zr 2.801064060836325 9.953271404291513 8.062152364963092
Zr 5.522784603377743 10.712235849636873 9.756130720254259
Zr 8.536296300109814 10.754382284906248 9.91053337333687
Zr 2.934718985160681 5.540984641815477 10.492708421137555
Zr 7.036168638851555 8.287760034283686 10.777193077311635
Zr 2.056500065433238 7.3464983299650255 8.632177793934254
Zr 7.262339352598792 12.247194381550377 7.910726414950818
Zr 4.954707741899431 11.337819023123298 6.882737087529553
Zr 5.626725097494599 5.501773195074429 11.708054638267507
Zr 5.751534836112264 5.932360507185425 9.000836550825298
Zr 9.708244039806274 10.943085155465853 7.058020905683363
Zr 10.1692313640514 8.479273653583208 8.942940669808594
Zr 7.416009367042578 9.064664823148965 7.770208801493666
Zr 4.857332842634365 8.262537284103693 7.8590884421114975
Zr 4.385179335234739 3.357489416381089 9.748934503064435
Zr 8.642935445926351 5.684573113369805 10.71583899191602
Zr 7.454390982592875 10.84993856147984 5.21726770951351
Zr 3.0414914782862943 4.816646761086087 7.568732557370097
Zr 4.903234263025878 9.198022493364661 4.9063127961032125
Zr 3.0687872096562607 7.096968259094429 5.681620909643029
Zr 5.528475869625823 3.3553813421422767 6.990926614457124
Zr 9.312199969227951 8.070850902918899 5.826348918554299
Zr 11.989748346132727 9.531016826379494 6.2199358844725925
Zr 11.330346625401146 5.698792514497686 9.347449817754427
Zr 7.268359942551107 8.586107401988935 3.236353381242013
Zr 6.275112241202746 6.329489126998628 5.645165565491026
Zr 9.920002568413292 3.4338365034745433 8.993983963955902
Zr 7.195231225986176 3.375015533622624 9.604765804015948
Zr 10.247113014505633 9.904049705817679 3.9379045254816205
Zr 8.644063153078767 5.8813346223686205 7.810233595038365
Zr 12.273293158811642 7.09873700305598 7.281853989494815
Zr 3.8677649368056986 4.415844688627311 4.758399122808478
Zr 11.062759959679001 4.583196429915755 6.492643569505677
Zr 11.794702632023741 7.106267075464121 4.449078836458821
Zr 9.159297897594818 5.253119518287709 4.409415211140086
Zr 4.8020126377045464 6.6685860676325195 3.1395495693048834
Zr 8.33437376022514 3.2081710976786892 6.468336779390477
Zr 7.432231454856857 5.9034667243602374 2.2275709469635383
Zr 9.800304817155848 7.418352557743324 2.527064122739166
Zr 6.438439758661395 3.869580740909438 3.9641211156778193
