46
Energy = -339.62424203 eV
Zr 8.379596235571904 1.3954437863342746 6.92633179725234
Zr 9.487699949476113 10.91110715380521 6.556982382014018
Zr 10.693336487620591 3.2522680615456525 6.835946397688115
Zr 3.4889323070692093 11.176131263916243 4.472822119517394
Zr 2.171427985738738 8.575319536277481 5.439200229538343
Zr 6.1969577752934395 1.7918712484178663 5.208349286316293
Zr 7.12873675400398 6.562300109097051 4.884208543036821
Zr 3.9617526625338453 10.425353198162945 7.182169633968683
Zr 3.169115615524381 8.858612031249422 2.619510450101609
Zr 5.561264825972574 10.522307641042982 2.48989140959569
Zr 6.693267758261929 7.5927677295212375 11.649998554879126
Zr 3.590750395776069 6.1954024343254686 3.8598591202703356
Zr 5.887765159819217 7.4108196954372305 2.241858845171155
Zr 8.614619077157093 8.510241052912166 9.073517462672338
Zr 3.599654163363526 4.785908876894894 8.75517375829459
Zr 2.0793804797578175 5.785786437912007 6.450235901670379
Zr 7.752267626576227 4.113893503295589 6.137594702795315
Zr 6.471395467247013 11.437220010060303 5.377085335430979
Zr 5.139816605183128 8.836476033419798 4.7883093465126665
Zr 4.146210599175412 6.653531627748034 10.762115961022454
Zr 4.699856066769146 6.893488144782339 6.800540072639611
Zr 11.310307137496821 8.935235400758486 7.304101308803144
Zr 12.226820200143923 6.057275091987801 7.000535137896638
Zr 5.708317233460886 8.821936880560278 8.926298459298991
Zr 4.237685213998951 9.50334303919474 10.946032163077767
Zr 11.451404803650526 7.541817056813408 9.74933738528797
Zr 4.4816090892592815 4.0418663028119415 5.90919568376972
Zr 6.636727885608979 5.79314727750409 8.58606573047226
Zr 9.115782984089828 5.7795883579953555 10.945492230028673
Zr 5.914860742326893 2.6828529427878247 8.161317521538795
Zr 6.110199099173256 4.083873762569278 3.3332620824675856
Zr 2.619179446326163 7.983304789424079 8.588469579526429
Zr 10.252765119611215 10.613324849207608 9.633870571117155
Zr 10.175163415326114 7.769183840175864 4.926656198225513
Zr 10.622472087901798 4.97413966249421 4.648015938871491
Zr 8.869874535904216 2.564315345130627 4.084749002167785
Zr 7.339078850642052 11.416071153571227 8.387587732455264
Zr 7.416756305138897 10.44357858534476 11.036116348515364
Zr 8.587574847666852 5.441054772688654 2.8144592977461667
Zr 7.913781112322619 9.284668710106489 3.623298145859234
Zr 9.514567736882979 8.573817392640818 11.827761961136904
Zr 6.227712947167354 4.484405840430605 10.965467465050182
Zr 7.5771828309578675 8.763605160051524 6.511321897464553
Zr 11.285233314276482 4.565771501825165 9.437145513866135
Zr 9.541801760366509 6.1108488560404535 7.560146512049916
Zr 8.607728363016752 3.2991930353287287 9.208509861831683
