44
Energy = -324.46662592 eV
Zr 9.246482114522472 2.9775635851195053 6.0570724628436725
Zr 8.355596799238176 3.1733159187847355 8.885571612514498
Zr 11.809555991557586 4.475923334369413 5.524408908728495
Zr 11.209177605043921 3.9375905266836884 8.348649341151726
Zr 6.210340220389974 2.3083112883015624 6.831476508753106
Zr 4.219278285138984 2.9645374544361496 4.922467628879961
Zr 9.492118694455378 5.04633177122711 3.8191392863818674
Zr 5.702119455326777 3.6311815751966066 9.473242426395373
Zr 12.599441121868635 6.390308889843508 7.498703348529766
Zr 7.874247430314541 6.164305695278793 9.352769804201595
Zr 6.826218114412042 3.584655650644462 3.894597876754741
Zr 9.702659815711932 5.928234946260729 6.952377635461535
Zr 3.738740714013123 4.69786874482056 7.461963621607404
Zr 6.8453618695617 4.974576461082161 6.779517266975049
Zr 11.281039055017894 7.403849076646155 4.890144237769075
Zr 10.792792428545232 6.723437290194241 9.741701242401845
Zr 4.142270122916477 4.619662081795351 2.4371383650798557
Zr 7.018621664244471 6.088786421598048 2.1864874359669764
Zr 2.109976959456184 4.677034584285885 4.88570981905575
Zr 9.315407875398414 7.864387848050373 2.77365037801203
Zr 7.418603958886272 4.707173285626544 11.599645895242391
Zr 4.785906309662979 6.079075638427727 4.740635699435992
Zr 4.570856210578267 7.592575900944567 2.027994834606892
Zr 2.2693565112014187 6.9928657648661146 3.3679708253015064
Zr 11.272465735565264 8.939881426397646 7.668738336249155
Zr 7.554297002578187 7.307137395895067 4.999125837716175
Zr 5.100947843719989 6.39584596062997 10.403720125060833
Zr 8.421112321061642 8.460280906675765 7.651340279614683
Zr 5.0780851988786555 7.496546689989783 7.373081138055732
Zr 9.357587581492057 9.733568058549967 5.153435851511799
Zr 9.685271646737107 9.404904224505398 10.272002118101426
Zr 6.697459304683529 9.148368305414488 3.00056932065949
Zr 2.4155843631163445 7.295703043136595 6.327700816820548
Zr 7.6934342832366625 7.891308246355406 11.72794741096632
Zr 4.042646616108198 9.108149453941063 4.621419092970388
Zr 6.171139321560572 9.15818247518214 9.307944621616144
Zr 3.223530218430099 8.539715463336602 9.670035861036519
Zr 6.4677769748178395 10.224239642144731 6.062272353149098
Zr 8.846469003415066 11.231080694880758 8.286423223747393
Zr 5.034927614584877 8.991582777026418 12.010380355175794
Zr 3.833989902288193 10.362202225651513 7.560020145344143
Zr 7.282969486986668 11.075707449063986 11.084870632389709
Zr 4.3472196079227725 11.244081619606296 10.362936331242127
Zr 6.168841744020072 12.064213063822569 8.343329010284513
