44
Energy = -324.65394128 eV
Zr 9.354411004365115 5.262716963877218 3.435697010747137
Zr 8.964474738496207 7.2168745367868965 1.456022712703675
Zr 5.223058819142091 2.7050714681767327 3.961466709952244
Zr 6.459090998633453 8.312942189289766 1.2402071905136018
Zr 7.927741350970573 2.890886509876243 3.996652652889019
Zr 6.481686832113065 5.315453441878056 2.2591572083948406
Zr 10.763618360939553 7.959842745756053 3.712137137877755
Zr 11.531892545073918 5.381386790684179 5.191284161654231
Zr 3.621852654505574 4.8453374568676875 3.752022739608161
Zr 6.600511233779272 2.55372719509704 6.676911624007097
Zr 8.590809814262522 3.668976929710846 9.230758071428275
Zr 11.065241223002756 5.517652445253633 8.153429592813549
Zr 8.62740817069451 10.054362413357053 2.6142362751205397
Zr 7.5149368722567775 7.925057910317398 4.002092023927305
Zr 4.42488092271234 7.525319476139312 3.2154993313848785
Zr 3.9584582034526288 3.725944501917963 6.545920462412129
Zr 12.119148739895861 7.849274827056561 6.34565267053217
Zr 6.31389601057382 5.260686212740772 5.132610834521822
Zr 5.722004097997356 10.287979353075862 3.01718923232408
Zr 9.010251643622047 4.192568898268417 6.444768420767317
Zr 9.91394751777048 9.957645255390426 5.575523473628595
Zr 9.261150488105672 7.174497275138781 6.360751510458453
Zr 6.125282069305771 5.295389779836714 8.09472910653811
Zr 10.873342712912015 8.312409699446649 8.880270238871645
Zr 7.172853618847042 10.812934549644659 5.454479723156538
Zr 6.17404870245783 8.099891190502339 6.798638181438464
Zr 10.068578245074397 6.103937669462435 11.172722816784681
Zr 4.209956091645429 9.616812287176828 5.312909668892525
Zr 5.097247061279358 3.3687279228822136 9.636520898907717
Zr 3.365232563626476 6.658145806773762 5.93464638068256
Zr 8.333873059385382 6.838433596383576 9.255326932445092
Zr 7.307231723020009 4.663525959937302 11.344315861142169
Zr 8.300890569428427 9.905933943588462 8.344230026152474
Zr 3.138715915114581 5.72010937831735 8.862355540726503
Zr 9.347111721292542 9.039850990835697 11.09522838644721
Zr 5.591183896967303 7.999637179677165 9.799612891197826
Zr 3.1843190257024667 8.739591172750599 8.075175083268302
Zr 5.494401332411966 10.641193114534437 8.16537473703116
Zr 4.641567393698759 5.658164371491663 11.54919420218963
Zr 7.35787618765399 7.351173676071569 12.399210336808345
Zr 6.779103656499977 10.247100094364585 11.23381300105735
Zr 2.706541832602306 7.734897012187117 10.8376330983431
Zr 3.8559774437224053 10.320223607802772 10.529352116932287
Zr 4.757426776918647 8.563593507184255 12.635836813736239
