47
Energy = -347.41759532 eV
Zr 11.251947372055527 5.211325822828954 4.154711633385071
Zr 11.119039417779119 3.4975176100841647 6.655499751877837
Zr 10.25633378425771 7.6991263538135835 2.9628604349448113
Zr 12.643373645735455 5.8277964064185905 6.720980881867412
Zr 8.717123569043258 3.3963751246691785 5.045696736191682
Zr 11.895200826125572 8.204771693031898 5.224613885837201
Zr 7.98017224790449 5.948012691851457 3.6399191632602896
Zr 9.775253216110613 10.589057862962159 3.6129627551534123
Zr 10.815884447952799 5.28103153594091 9.14886810045069
Zr 8.562019382369723 3.5627566999497873 8.147505281093618
Zr 7.593200483566288 8.589608993822575 2.748557037935332
Zr 8.92188517082884 8.893566781802138 5.542530525442735
Zr 9.643219702892226 6.064178116708798 6.3444911016478
Zr 11.444537274952033 8.060286438725845 8.207039186092416
Zr 6.073665998590301 2.2978395879517635 6.688280696399106
Zr 4.643085970743611 6.93335383565569 3.6277186070050806
Zr 5.81452579771097 4.0121673956005 3.633115133821476
Zr 10.93038579161345 10.848780718696743 6.900054217734375
Zr 6.678318786391945 5.095458029454354 6.353473581927468
Zr 3.02645533607769 4.639431691610356 3.2956597366599336
Zr 6.6730069145644055 10.670005184429156 4.230934428206278
Zr 6.41214513219744 7.926345769554637 5.768085518510527
Zr 3.8956577058230706 2.3743709888167666 4.894022003894591
Zr 8.555750529890537 12.038591805013702 5.878874202870891
Zr 10.962949313134478 10.45880996219772 9.762130181120462
Zr 3.1444710383024783 2.8126783474111807 7.7406116463663865
Zr 5.755381830396644 3.897133179363519 9.170390010209594
Zr 7.916905234065954 6.398491576905946 8.903913191512807
Zr 8.503518725744069 9.235597463747308 8.511878829445457
Zr 1.4327055657051553 3.5929573729434416 5.339850548107378
Zr 3.8055454512814015 5.366359075917244 6.295848810466337
Zr 10.010633353801419 7.7576280113960925 10.906151539096273
Zr 8.35028868564306 5.066356672903136 11.227818629969187
Zr 5.266811335470445 7.550246356974121 8.497928736245225
Zr 6.117746141716759 10.897887516678098 7.0167552903424975
Zr 8.59998024944585 12.074507713077464 8.782370647952687
Zr 3.6418795789617775 8.908323160579554 5.625818378622702
Zr 3.255769686600906 5.4132010853909005 9.435256650247885
Zr 1.5692640959846837 6.626340917626683 4.962605159098667
Zr 8.6282960194539 10.459252671532973 11.269951277758704
Zr 1.0437473398463712 5.046561971307506 7.582681301662113
Zr 5.435531549968428 5.796899625356849 11.296971946886105
Zr 7.0507047544360955 7.977836214352789 11.398008685330241
Zr 6.0338622783344364 10.376935247077098 9.901689854383447
Zr 2.157020326602551 7.656949167422348 7.871732955674099
Zr 3.6124211960897425 10.091517717392033 8.292232340447221
Zr 3.7458278349826335 8.290793424629491 10.709522619029533
