48
Energy = -355.59688349 eV
Zr 12.59753922625012 9.308039847723869 8.965473208754718
Zr 12.229177530978719 9.028841108672143 6.069652310931365
Zr 12.137447057306726 6.097164001821802 5.0231377130591195
Zr 12.239159298610119 6.5931270161605475 8.028435432250442
Zr 10.393137133350667 10.523150347044778 10.261192749367407
Zr 11.157322482099502 11.433099940163613 7.654210772569629
Zr 10.648108401607406 7.561631550634437 10.551535445395865
Zr 11.549085257670466 3.9734767459319253 7.096743292648342
Zr 10.462653626640893 3.52756016408199 4.660947885932638
Zr 9.877703690518366 8.714324431898099 7.825322119354935
Zr 9.998952235599521 8.418338229054502 4.025920236578678
Zr 9.951451565484728 5.752259517415954 2.9164429751944896
Zr 9.936422190106608 4.9560906288501165 9.287414720963838
Zr 8.037457559781231 9.133728275758214 10.83847297895031
Zr 9.463688169800951 10.751248686479503 5.545322612747581
Zr 9.42664380527305 5.990987117115686 6.179990355160814
Zr 8.205952943944533 11.16419502519284 8.271837921791098
Zr 6.848956527557155 4.344804370052019 9.22767283395943
Zr 8.644846445598786 3.1132100234508293 7.067136475531549
Zr 7.448467166811515 7.148263288584809 8.603944836790646
Zr 8.089285720290356 6.199914070670435 11.305927039645459
Zr 7.6526572893698965 3.939562427592183 4.30100337479482
Zr 7.240494855466721 8.878461200952197 6.1791333301174305
Zr 7.309137197122665 6.887826096693728 4.074033683894362
Zr 8.361504461790101 7.825837054209184 1.4264805627741675
Zr 4.371185564968331 4.091008470132638 10.869079215972562
Zr 6.177996560945931 5.487746708959554 6.459103057032885
Zr 5.623226156249271 2.6624647914324293 5.802528095719802
Zr 5.719774511809752 9.86928183731109 9.092960819875376
Zr 7.194282946343454 5.17572569475859 1.6513106969401614
Zr 4.659060310486407 2.343726266644307 8.481302514656084
Zr 4.611137634421141 8.296169165044113 4.389848467050316
Zr 5.30628090280629 6.95844924551192 10.555980135163738
Zr 5.037221318868992 10.742459191695868 6.1559930388114354
Zr 4.3191391196315045 8.099299948534528 7.452532286953152
Zr 3.9355948702138086 5.28557108901709 8.194793909860008
Zr 7.037750104853549 9.702175099582696 3.17644789450852
Zr 4.723309394775289 5.026511851354672 3.947668286660546
Zr 5.493978137663044 7.458150455558827 1.8262114633017672
Zr 2.900367286479352 10.601213659167293 8.193181716700124
Zr 2.083924278947457 3.2457133088121797 9.182136864031317
Zr 2.8316259676957145 3.443585350855019 6.17610337796249
Zr 2.101959701579311 6.072149904002267 10.332184715129902
Zr 2.2593663594153615 6.483146356805874 5.446704325403227
Zr 3.1202688533593825 8.821961084577826 10.273057402556665
Zr 2.327193170538145 9.496395701460287 5.625820782891099
Zr 1.287323601851472 8.027741079887521 8.020388755757915
Zr 0.9298406727480238 5.2205202374279125 7.615554040912513
