42
Energy = -309.67309253 eV
Zr 4.263151314343247 3.2086893625997837 7.123700506001224
Zr 4.201472736055076 3.134190884667897 9.99702354249451
Zr 6.8463325950011455 2.496224689616865 8.400380837637188
Zr 5.006899251096658 4.3717941767733395 12.628626911834886
Zr 2.7988953830597443 5.518261037906185 11.169625730908557
Zr 6.527150307932901 3.1754322766065135 5.249396330624824
Zr 2.9598806187991125 5.488118999423319 8.3168705328867
Zr 7.072238957890539 3.2720040066688587 11.159452243282109
Zr 6.517040455385411 5.19868316057446 7.386272604622335
Zr 4.474894452996907 5.290854304194881 4.860861523910613
Zr 7.511199737561397 6.016146563710083 12.262502235091779
Zr 4.695987422667105 7.187752644451413 12.552781296396695
Zr 5.6266803156817025 5.79452466659889 10.025795177693125
Zr 9.14336841579485 3.9831607077218227 6.426436222616079
Zr 3.6321456209336187 8.101966160714905 9.955861988027463
Zr 8.834373305912445 4.727946782010945 9.631426350400314
Zr 8.879469838335314 3.6896392989439826 3.471510462107729
Zr 4.714307633044741 7.627530591231393 7.318809419046092
Zr 6.308578247101107 4.375627356553614 2.4943463701901605
Zr 7.66598636021828 7.9098971337384 8.26303361951083
Zr 5.6071788917894825 7.190051555530188 2.4031836995743703
Zr 3.639611926428006 8.046847380942811 4.390635616315949
Zr 6.476661828578861 8.751558063893864 10.989969420682574
Zr 7.395258252527942 6.018289064485678 4.69965653872509
Zr 3.8870402041327528 10.303871587009109 5.942124965038656
Zr 10.348895296134526 6.346258962382621 7.555770451909669
Zr 8.777087347903372 6.274187629979271 2.1083328598131628
Zr 5.825967357534589 10.41747282535309 8.255925982639873
Zr 6.403829315261843 8.892115442398017 5.379721464269903
Zr 7.735784998505878 8.930619501740418 2.245030313598067
Zr 10.747141859834747 5.786085552240087 4.356403608196639
Zr 5.30730480233331 10.385390156214338 3.249894145594113
Zr 8.476330068833864 10.34323489092476 9.764572412151669
Zr 9.18037631071161 8.216623624324901 5.437441326542552
Zr 9.404151631614212 7.637528485259921 10.514431110259956
Zr 6.193429096617866 11.945092327953969 5.659808080325155
Zr 10.602604239863021 8.675755474543264 3.0515438253029306
Zr 8.435262465253947 11.00984093226966 3.891820250327568
Zr 8.569094239248473 11.163030202921892 6.950956113630513
Zr 12.051467887258543 8.009769444329166 5.666489094586563
Zr 10.595605887995479 9.193886335264969 8.053184050354094
Zr 10.960349113795516 10.609571699923363 5.389878540256451
