46
Energy = -340.22739732 eV
Zr 9.903578461171419 8.660641321760105 10.597964790605397
Zr 11.568513837321158 7.939038613786682 8.202615529000147
Zr 11.446259589177723 6.152584256988364 10.517738393066947
Zr 8.884555389483276 5.945076892884156 11.981993799434989
Zr 9.892037156929668 10.62837722709294 8.208469402533709
Zr 10.187935979912684 3.722685145977601 10.316443537840517
Zr 11.169136975000866 4.88909786419369 7.6723619033668395
Zr 7.257460504670583 8.616138955067546 12.00737157268097
Zr 8.176383103005902 11.088513203414168 10.540459803494054
Zr 11.333185618425652 9.598769011073493 5.803136090588589
Zr 7.266970790731918 3.630483069186385 10.28601616364948
Zr 7.0227459192084 8.740025302892526 9.147599926554577
Zr 5.779970725486339 5.857195010653795 11.62388123920868
Zr 5.542203119367933 6.098607882734207 8.691350522904255
Zr 8.783600110704676 6.0463347469573865 9.15762768224156
Zr 10.019408235786345 3.937017450526455 4.769662130032869
Zr 4.505292594809617 8.31102577047658 11.158261927286395
Zr 10.977716488801049 6.733574570696979 5.303030507054602
Zr 9.066417296975258 2.840015583759273 7.7817627368424604
Zr 8.81819700582212 11.012130535285008 5.297949272884196
Zr 7.205515154362976 11.890388932468776 7.747145856092067
Zr 5.37172694830171 10.965420056905229 10.032166158871203
Zr 8.925889971394051 8.154204200792242 6.892645428728159
Zr 4.319547088745786 3.727419330897349 9.97938595912157
Zr 2.853317661495819 6.147039377360445 9.827152873839207
Zr 6.008876504752335 3.1031611258521936 7.611509215277339
Zr 9.893533520794477 8.906513252597437 3.3631541083686454
Zr 9.924183993793369 6.019310213451208 2.6780532239226615
Zr 7.638231262355051 2.4320217509122557 5.2309819784908065
Zr 6.228219416754215 9.353125385991122 6.253277579939747
Zr 7.919718521602678 5.182954994119072 6.440613629381421
Zr 5.759701538512602 11.699872374065839 4.913353096476848
Zr 5.04228443576243 6.795690780394436 5.941999676683016
Zr 7.5171677794409515 4.350831780879236 2.972531534171118
Zr 4.29172895698992 11.487121752367973 7.385065252545747
Zr 3.7159417210116037 8.878897643422363 8.539592953058504
Zr 7.317378642126376 10.08445350474575 2.9990549767265993
Zr 7.624429113270789 7.164847369270661 4.33956423464695
Zr 3.2140925281498327 4.439582345506116 7.26350519336235
Zr 5.157371825283828 3.9350200603624783 4.816514169713855
Zr 7.489859754519247 7.346574731359488 1.6644900425773892
Zr 4.925263184672067 8.6385310743216 3.3910836941372584
Zr 3.2262760798113757 9.30437064374985 5.623253476071411
Zr 5.092104832758333 5.875913134908476 2.674974989907972
Zr 2.8188683825173104 6.069316521514016 4.540335842139561
Zr 2.065452567534823 7.056098088754267 7.167030818717991
