48
Energy = -355.37517856 eV
Zr 3.51452567518111 3.5002832817649163 3.9381390020763636
Zr 3.144419778542783 3.6253513300034306 6.813465720151745
Zr 2.739375046001212 6.120595087549007 5.0215841277613205
Zr 4.680073411449802 6.0794085237802316 2.833399950859798
Zr 6.018782231143686 3.372717990307361 2.818195327020751
Zr 5.63477145848488 1.946725376527053 5.43597369987225
Zr 1.229912252979599 5.852262887210067 7.520207471241491
Zr 2.8257821495981066 4.665567240601226 9.798577227058125
Zr 3.643659769235208 8.91947578382349 3.814575276187703
Zr 5.776840155788824 4.714054202584434 5.618717161379548
Zr 5.3940194165499395 3.1294068993480897 8.443560823426541
Zr 7.66952332936674 5.726373332207516 2.886632034626533
Zr 6.604284378213319 8.477708590543612 2.787984017621903
Zr 8.325581993066757 3.168297456124721 4.353113245460651
Zr 1.9406489344734503 7.595297479767918 9.571869176921352
Zr 2.335542588179956 8.590940572854562 6.707301319743805
Zr 5.382275335466149 7.783913398029433 5.581700941511073
Zr 4.109634055659926 6.412704568181731 7.897445466848601
Zr 8.233850660314921 3.4537220186215283 7.254172539312994
Zr 4.340609290628747 7.074577763924755 11.058842997765263
Zr 5.451789035836125 11.065491248753979 3.641069564661703
Zr 9.55238815809177 8.34535090471656 3.9948497565465786
Zr 8.247426292446418 6.60568140837511 5.905154552746505
Zr 5.453870245454754 4.382719787514885 11.088806150659986
Zr 7.553143154806734 9.897124711749736 5.726846326969782
Zr 4.005945502502728 9.5500583069176 9.062037221017986
Zr 6.786904194029992 5.75507597400425 8.740672367335579
Zr 8.163058049310804 10.950853310684456 2.9799804867765096
Zr 10.229927363104467 5.33710761568524 4.111814220483664
Zr 4.5168541910331195 10.832996983789432 6.358651014068782
Zr 9.991526514130477 5.7958348574514 8.126757819084997
Zr 11.242865258740622 3.8104254783884017 6.233246637549374
Zr 10.194193325612659 9.064879303678161 7.213313371518261
Zr 11.837491133114584 6.9061963832074635 6.042719111156542
Zr 7.131531443807773 6.489574741411393 11.796058451863923
Zr 6.882932362335554 8.590961548859843 8.188154786822055
Zr 8.460258951438943 4.140949286685471 10.32495184518152
Zr 10.037310583344055 11.254126610421748 4.93306557502612
Zr 10.861389573115378 3.0661751996934155 9.02191232409221
Zr 7.151976002357242 12.647350545737249 5.456402592147519
Zr 6.466297980661595 9.29174456325093 10.861668114191513
Zr 9.201764428932798 11.973143522890187 7.436314196087282
Zr 6.439439621233812 11.619230929782978 8.478451350428747
Zr 12.892514437639896 5.0427565528259475 8.26083474582981
Zr 9.170786435724198 7.652186902397202 10.175474148954725
Zr 12.067291295829936 7.7020891321097205 9.053575990286166
Zr 11.313109638064747 5.430878522155223 10.738814314270053
Zr 8.880222604574973 10.432157487096841 9.625962644142012
