42
Energy = -309.39675945 eV
Zr 6.670007190737389 9.90461761285468 10.19390139397993
Zr 8.699051676249788 7.539776682475728 10.900164353442339
Zr 7.368855775517217 12.170615774765897 8.470641870414749
Zr 5.764207850713436 7.081379483798181 11.120587188490077
Zr 3.87494726428743 9.122874466352696 9.91942014545563
Zr 9.474093506125728 10.150051739502674 9.304059912364893
Zr 11.200847579341998 7.7326337555427225 9.287873159322857
Zr 7.80005936830593 4.459361691035007 10.92078290700856
Zr 4.751624753256247 4.372927483932725 11.187714925118708
Zr 4.851246008570349 11.023129559913135 7.731075187801269
Zr 8.574534388360767 7.169716353210696 8.133732565666751
Zr 3.1900302923649524 6.3212038554015555 9.556135763087692
Zr 10.206761522944767 4.977147865006342 9.134739178290795
Zr 9.644507781256069 11.9777243084473 6.917693476464111
Zr 5.748295622637742 8.072743253504767 7.988743568872029
Zr 6.92157018778677 12.174867199374862 5.416818169438294
Zr 3.015478243487415 8.273405975788192 7.030017208473368
Zr 11.14319376575174 9.504479739230689 6.867634916880614
Zr 6.160426002195166 4.963733656281313 8.728872793705174
Zr 6.020710081231457 2.269430950787001 9.649398656192071
Zr 11.486014890782906 6.455812284214557 6.636777266167438
Zr 7.615903317860363 9.854135509429534 6.545137528032822
Zr 11.704410227363612 8.247083065066995 4.265805904272068
Zr 4.798495582349061 9.94598770771538 5.085829237846396
Zr 3.400983334495473 3.3731600886497195 8.63198723283579
Zr 4.419480982808728 5.537150246719493 6.742645113773522
Zr 8.940346277097104 7.810918975996774 5.165439676980415
Zr 9.723699811245732 10.6612008743484 4.277336705124147
Zr 1.6120371939941136 5.505440794879771 7.15486414089262
Zr 8.369346078735497 2.8588227423610775 7.992379194698294
Zr 7.6474852652546295 5.2846675879653136 5.996333232304362
Zr 10.457678157838284 3.91502079679977 6.330277544966333
Zr 5.654173392489133 2.563856611789934 6.600537092013024
Zr 5.651630386777885 7.345163518633433 4.758281787281382
Zr 2.823043614332003 6.176573556006238 4.5203096169839885
Zr 10.206337377210804 5.5308871656476395 3.839913294294084
Zr 7.132289982499134 9.678515143590886 3.327677255474182
Zr 9.568708283400078 8.251905456738982 2.419140035766155
Zr 2.917212932319284 3.3906321021493833 5.6094905208149
Zr 8.167165828709244 2.9212125124526773 4.794207411131603
Zr 5.278952720421703 4.294474292654952 4.079082481572691
Zr 7.501123821483271 6.247831856392227 2.986849773149214
