43
Energy = -315.77901974 eV
Zr 4.001194921135676 8.695335513409681 10.688460064633627
Zr 3.4514125928437926 10.121134907835943 8.311750536407493
Zr 3.7417555924156036 7.102618143627748 8.084133255999806
Zr 5.055554609952337 12.144770795025343 7.113679945566611
Zr 4.413476792519932 9.227017515771923 5.626250246915874
Zr 3.509162445381706 4.298578914055896 8.868295833408121
Zr 4.0914636877091315 5.126869676862127 5.860528368078733
Zr 5.61874219530279 6.079540191982769 10.700552209130452
Zr 6.876134957059149 8.669739755190001 11.725547537268012
Zr 5.697256906541663 11.217214704397664 9.93233558876411
Zr 7.2768344834791145 13.319366933711008 5.515162234332116
Zr 6.064981898292857 8.643165865908879 8.605195452706699
Zr 5.363223358324427 11.542696708256644 4.1681706026519985
Zr 8.017339902070997 12.611328448544892 8.165551240265273
Zr 5.769986473224238 5.8085421581905505 3.4049690146091534
Zr 7.249279984004208 10.428288654653807 6.253355661324911
Zr 4.646538849979255 3.2907921904314543 3.810785233597162
Zr 6.446013257501543 7.117682085811499 5.991308774374491
Zr 5.033008676803074 2.5458231126829234 6.996444605264335
Zr 5.65869115603502 2.8117785858584705 9.930333234729925
Zr 8.262342592300271 3.8845271731687836 10.525713463369106
Zr 6.202178856144232 5.060833841302638 8.12907502106326
Zr 8.566747150333237 10.007868118031658 9.730517048327128
Zr 8.10329244492733 11.48788947379927 3.453895635951485
Zr 7.057810008407943 3.956838796740201 5.344564191462701
Zr 9.943822893476337 8.330401711766054 11.805459577144644
Zr 8.22242846545627 6.041193986452148 12.450587809963688
Zr 6.749748785227475 8.884968571623766 3.5649456265828414
Zr 9.20513460539105 8.478024185060697 6.869679051636821
Zr 8.404041457959892 7.026364352198532 9.708591553818556
Zr 8.001119185954051 2.4837425684772962 7.8515223459559085
Zr 9.934821540284222 11.951464409586341 5.658639953839628
Zr 10.643308765224038 11.090527512246778 8.305899148381583
Zr 8.799538657001035 6.257255784707714 4.336487881039598
Zr 9.042798709688224 5.463082253137793 7.372346852961821
Zr 10.570907077877939 3.280715444662339 8.941498886255339
Zr 11.253257238072832 8.167179811408333 8.962823743590379
Zr 10.794284869763311 5.617708765649432 10.799676737598025
Zr 9.782702094235672 9.277134009209751 4.034719550048593
Zr 11.305938394149795 6.835220962373309 5.598573537594591
Zr 10.50487440103494 3.753989873220028 5.934787569626039
Zr 11.839145688168966 9.670715196960018 6.19180338070109
Zr 12.039025476636757 5.469848998148966 7.993624980095913
