44
Energy = -325.00540929 eV
Zr 13.028943688378524 6.983098417737874 6.516546766934318
Zr 12.194136301596116 5.369513523655269 4.2819122134038725
Zr 11.364943966908392 8.262515852112275 4.330148863152768
Zr 12.17880074700018 4.263401351856382 6.887260313400458
Zr 11.30260589568072 9.006277763027661 7.348010320637702
Zr 11.347963331804921 6.328311350053508 8.916424094563046
Zr 9.59211689955449 10.289033707037907 5.479667522140163
Zr 9.660367321632334 5.832142158211302 2.9940872972637376
Zr 10.09353049287541 6.344282517622591 6.239807603038183
Zr 8.552460992238212 8.648179746662334 3.1725326140988
Zr 9.985497453549831 3.5162353534718096 4.993596357006878
Zr 8.93958427760749 8.281577260402061 8.901396089005704
Zr 9.682308457645378 3.6831730530706883 8.167814204987655
Zr 7.731312689008245 8.097284058230484 6.025440626594912
Zr 6.718754248918354 10.617281295726148 4.782730478962886
Zr 8.783289951104953 5.441900987767954 10.49741554997201
Zr 7.502527746616236 10.90359993382973 7.734396339157499
Zr 7.300710700947765 3.6506721547099965 2.92382477929429
Zr 7.233234652696454 5.453331967364806 4.896321268455603
Zr 6.9745495635002355 6.4220636886294225 2.039977019101406
Zr 7.292953585258169 5.4924409806333445 7.945110277866827
Zr 7.4499160988934685 2.641948076164146 6.494301196145094
Zr 5.303601244861319 8.147749600347879 3.80661699335733
Zr 6.878184522807172 3.3209615959174936 9.700087732126889
Zr 7.472920779626202 10.26556777906433 10.569429472816958
Zr 7.936768577177407 7.816623378604234 11.754715028957975
Zr 5.0224931523937 9.069830046224434 6.932872685901196
Zr 4.898810932891138 12.045856198200145 6.7626425946170565
Zr 4.581946982540419 5.332450639555409 3.3521497474082955
Zr 4.995705040591238 3.0800923377810343 4.82736258468842
Zr 4.895318438219545 6.020861970719152 6.409284735446985
Zr 4.85812036000823 2.8651417477106693 7.545537942817059
Zr 3.701423765446997 10.520817202757929 4.707438868950101
Zr 5.842126483199282 7.823217175578736 9.458822662864355
Zr 4.954927174684614 11.120144647112783 9.483099831370229
Zr 5.9625240881797 5.659664004959565 11.610428824786679
Zr 4.150352466071459 4.861179698187364 9.23989716989668
Zr 2.726707857442178 7.850675720270583 5.328974115523809
Zr 5.2013733575264816 8.900141562246276 12.059481199872193
Zr 2.5013760852094906 10.260139975216395 7.40192527369118
Zr 2.668276680640171 4.524202701866148 6.428460846419644
Zr 2.4617490393659285 7.192524578363824 8.184773161199825
Zr 3.3673344610325553 6.825821877206148 11.09562201963143
Zr 2.9841705331980655 9.300862263018795 10.088834490754074
