46
Energy = -339.00036455 eV
Zr 12.220089833684158 9.146877011705177 6.892758490699136
Zr 11.104487535031629 10.600577015080544 4.44789176498446
Zr 10.947865020218241 6.5831606918173575 7.150926557727553
Zr 10.623566158840687 7.484937516885997 4.2138002061408635
Zr 11.863475489955519 4.930983999697298 4.939023184553703
Zr 10.138626117640179 3.671042100450076 6.872553779758213
Zr 10.67571392461371 11.777030872080049 7.054206905423429
Zr 11.872537138764523 7.780920950484163 9.913332208431429
Zr 12.120613240136002 10.749679701378515 9.339651859107757
Zr 8.909586326874226 9.665716000043227 2.96119875201682
Zr 9.28757024512806 5.639184864689322 9.28624602074173
Zr 9.210502635856065 9.082996866460096 5.998044497659272
Zr 8.072272739785314 6.0016127342282655 6.422461824823785
Zr 7.581812639610252 7.232897124664377 3.331236873873456
Zr 9.196321328910438 4.605556801012289 4.146255364259435
Zr 9.522266093284253 12.028108562836726 9.798375864625685
Zr 10.47003385755592 9.976984485192272 11.53091394100597
Zr 7.542371412828243 11.143861967450805 7.8844454841423
Zr 8.310591565188515 11.819540501857334 4.886622890186972
Zr 8.229001171886248 2.779896363257213 9.147295584920782
Zr 9.665968443839196 9.05362279178304 8.809278809041484
Zr 8.97513986204128 7.552114606104654 11.45619608738432
Zr 6.427388644137365 8.921668715071705 5.773066140545041
Zr 5.5373592793909285 11.795508131424155 5.886758376749345
Zr 6.972762133283336 7.796348634009868 8.688500945881897
Zr 7.565211488597663 4.624418452913586 11.51996877549754
Zr 7.349362619168197 2.983103411326892 6.153847394461619
Zr 5.68867649059039 1.7779865257203264 8.186189332230276
Zr 6.1229192995125 10.290172989364411 3.3382466091185505
Zr 7.498390424439469 10.05084619672404 10.730682343478527
Zr 4.518766756897202 7.565615035691763 3.4556453783949515
Zr 6.119918775502815 7.179117930766479 11.562556843161008
Zr 6.016213492968286 4.833811566402588 8.737046040851618
Zr 5.790133036771155 2.477616933288676 10.834194686803684
Zr 4.634906976728802 6.819635224405251 6.4571913831622565
Zr 4.745540841373973 9.978866368867537 8.176918811294218
Zr 3.5807976305693074 9.772564044228023 5.291204118294114
Zr 5.998069463217473 4.9460401489290025 4.253237035457078
Zr 4.5669964664382645 4.878171511435401 11.54265335778233
Zr 4.299034575730426 3.4623707063850033 6.295040908263567
Zr 3.981198745604091 7.0104259454042035 9.520835503779544
Zr 1.9018141147548395 7.463304120474217 5.079454375582055
Zr 3.0812583505222118 5.1226132362338905 4.373595963498655
Zr 3.466060314228657 3.4375375247375644 9.22056115809977
Zr 2.1709863560953693 5.455196201536768 7.257549206498271
Zr 2.34475624036245 8.461435147584043 7.655847897233501
