44
Energy = -323.71664354 eV
Zr 12.25723114518856 6.012781467892497 6.189681698743894
Zr 8.37920951593354 2.5082656776916696 5.5746282543891885
Zr 10.406345006590543 4.193054349928182 6.98225345780963
Zr 9.63577421675401 4.915895898371684 4.4035242198597455
Zr 13.4983785374955 7.667008578606945 7.978744989403359
Zr 5.623118607989832 2.6052792020175883 5.929171476357531
Zr 12.066801425825288 5.293800786899442 9.224900907056842
Zr 7.3032465005621345 4.971398701288324 6.42310713532719
Zr 11.6397007794739 8.810939114539046 5.838942176737329
Zr 8.877703679772338 4.831227642121572 9.204509360609118
Zr 6.880433265372587 4.244301661561604 3.5517849399515797
Zr 8.891007316718385 7.485620516522395 6.131289384376027
Zr 12.278886732218615 8.027302778192547 10.673421403900015
Zr 7.957918157944593 7.273646755224335 3.267251943747981
Zr 12.309814431733889 10.114682438408444 8.387519473688313
Zr 4.084447953992537 4.389570396476753 7.449116965223592
Zr 9.98995029357123 6.154095481275145 11.488041430372745
Zr 4.077870094840935 4.802311908242539 4.612901084482068
Zr 6.185543412213235 3.769603382071855 9.094638535785574
Zr 10.51513071497496 7.470199525536048 8.325312505467041
Zr 6.8110403898156395 5.670843622725566 11.316724837949229
Zr 5.7259074191456385 7.304528871417071 5.392207746433965
Zr 5.346902706819572 6.488021578859474 2.4628335273896007
Zr 5.559761810615094 9.317947950108424 3.2645812534235628
Zr 8.209956185789473 10.03591733445063 4.629120600005024
Zr 10.70244012539979 10.668865640987796 10.607403364169382
Zr 10.230479445361933 8.807727784535214 12.601498974394895
Zr 3.1557970944049423 7.481272555516424 3.851182713716584
Zr 9.559741054058458 10.369540044964886 7.322148598816145
Zr 4.089631905031605 6.030839056982924 9.841060568243261
Zr 3.0621605800938276 6.878256642607817 6.832571897612298
Zr 7.74467408775774 7.7389383416229345 12.946957986754382
Zr 8.420916966697686 8.660182096415667 10.07222210815912
Zr 6.546847169330124 9.639190596731314 7.272059088046336
Zr 3.4852308861906307 9.644694923841113 5.686112628623849
Zr 6.531371960647712 6.807337615112101 8.563248964831752
Zr 5.64202597546272 11.536751288128732 5.019942299143111
Zr 3.8304560460506036 9.05179258035718 8.734885940808727
Zr 7.819993204079192 10.568821382876136 12.126525432329645
Zr 7.0391777967698825 12.496101701459672 7.333567206732754
Zr 8.465328644007448 11.938094947851392 9.574542817910997
Zr 5.483086134161985 8.421308945056467 11.213796867950956
Zr 4.292845946166023 11.707640144759042 7.524549865462198
Zr 5.749210923797988 11.126993041849778 9.945299439016269
