48
Energy = -355.68287303 eV
Zr 8.380274744149576 4.779946199337876 11.432809458371121
Zr 9.403215582607086 2.555328288770098 9.820607756959934
Zr 5.016288408384694 5.11576397285099 11.301043013751666
Zr 2.4553967734619673 5.675304925050625 9.707275431507679
Zr 3.6790111050444345 3.195544926695896 9.594710303338353
Zr 6.534225880257394 2.9616738626043735 9.9402356796768
Zr 8.121044495386561 2.145449937788955 7.378399402956219
Zr 5.031437797915846 2.4017951005539877 7.257783067205612
Zr 9.895393694146257 7.198874920160715 10.388823709674327
Zr 6.940056343992511 7.360531391586387 10.547078431096537
Zr 4.204144789736454 7.826239484025154 10.20906288045257
Zr 10.807157537965978 3.5351767942410284 7.385867887205452
Zr 2.923949573296326 7.488483155122413 7.365120563058712
Zr 2.6930960622298254 4.316018920206591 7.092731202223944
Zr 8.76490971327394 9.784215025993088 10.663423547748485
Zr 5.988300773901711 10.400140855243007 10.24608128894435
Zr 4.276715864568937 2.5871847929837077 4.397120104809806
Zr 5.254180851538321 5.585400010968916 8.224367587164489
Zr 9.145996929627586 2.6442807718992665 4.5946305284938465
Zr 6.6704672872811726 1.049641079724188 5.199254321763091
Zr 6.678627713111138 4.183979780506625 5.2531630536396925
Zr 11.101296280834125 4.688598457077266 10.036597089735483
Zr 3.1497049031695568 10.185899846798021 9.008918450555903
Zr 8.455393692656415 5.171738158821919 8.388651540149038
Zr 6.8259086920262115 2.2356269315370607 2.7537582122808324
Zr 4.1629189017429375 5.8182611323766675 5.04544865410049
Zr 5.459825376239468 8.946045082047952 7.593226839939123
Zr 10.773928113968198 9.872194837488875 8.499406868520358
Zr 11.123824933935984 6.595957522921187 7.7758456876129225
Zr 3.1102556408478756 10.49617959244241 6.337675146540312
Zr 5.21030419497314 4.42747352379509 2.4459672716754772
Zr 8.43640660713288 8.292771491367883 8.018205580260872
Zr 9.640696984966823 5.629783895110069 5.460878716571248
Zr 6.884131406223015 7.1393364161535695 5.6953655529920715
Zr 4.513910974275429 8.888252625224913 4.440720296647987
Zr 8.221908668406366 4.782881250680048 2.710202499526949
Zr 5.246637735222517 12.041213070948153 7.878903004326248
Zr 8.194865193248798 11.640873430337699 8.591973396086859
Zr 10.52723168003101 8.781215425821783 5.687694200667817
Zr 7.594759566645424 10.201948494380307 5.71361116626599
Zr 8.87112260028784 7.793210832016638 3.3900586624954316
Zr 5.205947202979576 11.818062488271972 4.767020132969996
Zr 6.107750177164748 6.960175466427465 2.851838493727028
Zr 6.806969815110761 10.044087901407964 2.8045838625012234
Zr 7.346477585855827 13.203423039939324 6.352652618187759
Zr 9.714214466446418 10.458136102685692 3.4599621448864055
Zr 7.9589193232968265 12.548121562418707 3.783675359116244
Zr 9.990565300136439 11.864069111197518 6.052038488762026
