45
Energy = -331.99848072 eV
Zr 12.14104154154186 6.7969401601984405 4.27167516420783
Zr 11.081456990362181 7.992964635464509 6.764992336258991
Zr 11.208425812481867 5.001566927817589 6.499282038203439
Zr 10.897436990764781 5.968041411285886 9.444628307474602
Zr 10.877504491232445 4.2641049112366884 3.63780041956342
Zr 10.366059710711573 8.903638695144988 9.443475393503308
Zr 10.30648027683232 6.7037906293122065 1.9525749155050751
Zr 10.494614462188842 9.278691984946072 4.098168822896269
Zr 9.58576794825867 3.530703457123508 8.335655981423761
Zr 9.28546703665244 10.375358305234878 7.174192246895007
Zr 8.672162002403025 6.424641890167889 7.695960266780672
Zr 9.242707872119658 6.522519935674121 4.556644673344022
Zr 8.646267380924124 3.4728017250118213 5.565455775586988
Zr 7.866071178760654 4.636414640426497 10.224649180683036
Zr 8.700423527044068 7.347328242070312 11.1457893560902
Zr 8.047061025403517 10.690492797497013 10.139538232650269
Zr 8.134948239504606 4.236850905472075 2.7084095591440462
Zr 7.26432601094163 11.075888691974539 4.23659457110064
Zr 6.9134910781357775 2.2905705429638603 8.015681494890178
Zr 8.438846046710575 9.015665385045105 2.350616377820162
Zr 7.324734260876695 6.6040246179246145 1.530205519797736
Zr 7.203538528399863 8.641765623506641 8.711178673656756
Zr 6.740390297831041 8.948647329474879 12.174695045423766
Zr 7.505514634940296 8.746323047615897 5.444592636990815
Zr 5.9919552164878525 5.960326818123089 12.574030857709037
Zr 5.584946594441924 6.759187593179988 10.01539706698269
Zr 6.192652006866039 4.924492968951501 7.396254329839855
Zr 6.3226785229411755 11.109634845211984 7.2611713867598855
Zr 5.8478128271754395 3.1268598884375622 5.001198822609735
Zr 5.0556776606809315 3.727971613818779 10.087696383120768
Zr 6.344886835622676 6.163170751451842 4.577430436702129
Zr 4.984046528561913 10.250280581206596 10.186710444580903
Zr 5.603879054133979 8.708817420918507 2.6229275885866867
Zr 4.089874652591062 2.902650980712286 7.392853945295516
Zr 4.879521304618977 7.6874925250383495 7.059546547047779
Zr 4.782976101388642 5.48088002854533 2.472656012038564
Zr 4.0663530111447175 8.242937043923474 12.242637972701324
Zr 4.449985522449039 10.004423068456328 5.048152689217577
Zr 3.18221171724526 5.717023476600695 11.327350205843373
Zr 3.5860384540957706 5.078345930407563 5.42485853849572
Zr 2.9975181924916483 5.360036203691305 8.494058636728033
Zr 3.5249715284918066 10.313361779906382 7.73494517582007
Zr 2.752701719487902 8.184224018517291 9.586562939725233
Zr 3.3512129647199878 7.520795194768072 3.8972119600951003
Zr 2.2205243794172125 7.937892526378521 6.472398234765338
