44
Energy = -324.36809916 eV
Zr 9.545075272204961 8.104120974152037 1.1621877103207259
Zr 7.9322280626293775 5.43314567866691 1.1063894201027138
Zr 6.780655330340854 8.22647359087868 0.7572424498702214
Zr 10.609864499119295 5.9468013449027834 2.544652783917794
Zr 10.473167781147561 8.610037179361568 3.9454471390777073
Zr 7.9051535002971764 10.122829769475022 2.74769439072071
Zr 9.083968583896604 3.993262703542568 3.803951490971785
Zr 5.1290784688851305 6.2951265634474485 2.038329435544158
Zr 6.340750112243329 4.427283126762071 3.7359377741642974
Zr 7.85661800348021 7.112714659063081 3.377989250577957
Zr 4.981110751989066 9.194008419367218 2.8235874188471812
Zr 11.088861074990625 5.778203135626279 5.320104863975911
Zr 6.077534376340106 2.0872912971110167 5.5374250585707205
Zr 3.9454201803036417 6.6617004536916635 4.69696728221946
Zr 8.679138344757353 10.086222059961539 5.741284878317387
Zr 6.056592369914356 11.174459003140758 4.779632480253391
Zr 5.8780311112241375 4.915486104088635 6.680454420274876
Zr 8.692210654493765 3.4697980906331556 6.604730838856956
Zr 3.6938214087545633 3.69527743944196 4.869056109888031
Zr 8.67671703735469 6.483591700662598 6.200038650058314
Zr 6.295439337634396 8.263679951346319 5.448377128735939
Zr 10.729934799323763 8.649211238220358 7.345566754340308
Zr 3.9052205250150873 2.6429111407723287 7.483559205342145
Zr 6.583776085755719 2.406267436964399 8.389500154787136
Zr 3.7998986844718017 9.569174958245794 5.771104440069213
Zr 10.413790948404957 6.288367426556098 8.763216941345059
Zr 2.883486249008085 5.401183004022718 7.2084045234924154
Zr 9.025518471482963 10.92665771452807 8.452771215812868
Zr 7.934874178892702 4.901958831878963 9.032140132625342
Zr 4.852347707849033 7.535600143107542 7.864836047908818
Zr 7.943455041315241 8.131301494361928 8.415884898165721
Zr 6.076258878762149 10.422729308749544 7.635403886338932
Zr 4.6555233058976535 4.586081319841853 9.596218926014808
Zr 9.960157528879193 8.88270997416578 10.412451402617865
Zr 6.845645238298382 4.2414688059734456 11.643083013177261
Zr 6.2732188265824 7.102888154131988 10.652667331704707
Zr 9.145385669213889 6.214064910965202 11.6215875588626
Zr 7.048642598490617 10.35016434881496 10.586958436861169
Zr 3.1764263378042505 7.190860111733087 10.464137792760164
Zr 4.239518014972937 9.666702218742966 9.854353511814166
Zr 4.376850169804348 5.651098381150217 12.464301852615375
Zr 8.079120927273257 8.761094882167704 12.639077535971161
Zr 6.8630769139387535 6.4774847923837875 13.532573660691133
Zr 4.963601554437654 8.701312570539736 12.593360797184964
