42
Energy = -307.09930463 eV
Zr 3.9091764837656577 3.8336149236314685 6.182494342165288
Zr 2.704280756538928 5.304777862889723 8.283856748949129
Zr 1.5530014449036358 7.763419325090617 7.58758751111956
Zr 2.707601681131879 6.281196079431743 5.298559167506252
Zr 4.358473317800196 7.674315190844517 3.4021801126410667
Zr 5.896042131227903 4.370471826684096 8.295586257873945
Zr 4.233506839246492 5.019328025604335 10.653585428056765
Zr 6.468503127409814 3.0924572105401094 5.614947709184861
Zr 2.7103899217086997 10.040581401411087 8.458806515700813
Zr 4.77212380040731 4.790635444647321 3.461204740229435
Zr 7.616924913988721 4.22472480960965 3.485510139824614
Zr 7.026879942736029 4.389810452270521 11.083603256176488
Zr 6.141024480005438 6.191141687646043 5.590636820691938
Zr 3.2628589454697967 9.26261142436634 5.52581460700688
Zr 8.570457782413714 3.133055324630324 8.606494995878705
Zr 3.0531966798570136 7.68030718087833 10.326627242551204
Zr 7.046282592306067 6.944386716829033 2.728579370732989
Zr 4.563517752823483 7.6885746019330306 7.7448420296448015
Zr 6.37555098577148 7.377182459168441 10.180574088060679
Zr 6.287244173202076 9.44076614510192 4.6950605441758375
Zr 9.149239081870238 4.710562225801105 6.03598128892169
Zr 7.383759830922136 8.924518831961555 7.525242744610058
Zr 8.879077049426945 7.628402139173054 5.227427114614133
Zr 9.973553493079319 5.696738126412398 3.003774133094849
Zr 5.065462951633629 11.072141204288155 7.238602802313907
Zr 8.501540103319348 6.1052766572002675 8.77535638785156
Zr 7.6386971126159935 11.789031169651473 6.309044554180206
Zr 5.421949174726906 6.788205449236538 12.482573796783997
Zr 9.994289492378321 8.547603009313246 2.6777158594028934
Zr 11.112853116386084 4.631712133217682 8.255117569972253
Zr 5.0518562426188 9.976994438787361 10.01610534046152
Zr 8.692859223189375 6.624524923032824 11.94883717303713
Zr 9.945741369361961 4.235113251311523 10.869590088459496
Zr 9.081204603038692 8.900784047554298 10.017145711458022
Zr 12.50130974717886 7.53538764445867 2.7982405889608764
Zr 9.9800934702868 10.562997112041554 7.50356136910162
Zr 7.462462959712432 11.35696976623284 9.097260625164237
Zr 11.717911427383742 6.334765374512308 5.204301255203061
Zr 11.136583221911476 6.735018890157919 10.283851996046236
Zr 9.269600634991 10.620396480269989 4.554241343948887
Zr 10.898415323115994 7.644029478185777 7.564883215904377
Zr 11.72225565484057 9.27242048655704 5.114487522989651
