44
Energy = -321.19714382 eV
Zr 2.227315318485407 7.784504564258688 8.555685416699289
Zr 2.230206571422151 7.749235189148283 5.745716017353605
Zr 3.787118989521973 6.0551034058101925 10.29922348992831
Zr 3.7435785497173444 9.449840383543494 10.095343211403295
Zr 3.6157265981810354 5.64738078355607 7.253683481203481
Zr 4.801117543108705 7.90682033025512 12.269418531449418
Zr 4.079041583568057 9.464028887988333 6.936866679061922
Zr 3.266589849199494 5.716339137760917 4.114688245365126
Zr 3.9399450461927037 9.019444335797129 3.8060491656497777
Zr 5.8808343937911225 4.406988787431732 8.727794304422233
Zr 5.76115193520779 7.611317990141378 8.810376430061961
Zr 5.975077262183891 10.852996854963383 8.526281304240278
Zr 5.262328570637949 3.731993684164507 5.803471882926841
Zr 6.7112158592663125 5.943802655786506 11.352280512893847
Zr 6.484657811878868 10.040714521430871 11.31722115915468
Zr 5.969219126616995 11.017440506340137 5.2678645973751435
Zr 5.602580649044476 7.091970498146656 5.218442813700446
Zr 8.039448749895119 3.093278541862933 7.066802428178965
Zr 5.5585771100048875 4.503327287490606 3.0134711343334457
Zr 7.42075240964257 8.10008495357472 13.249307725487318
Zr 5.229328611528497 7.12900630972789 2.1850682028132313
Zr 7.708373164366377 5.863920634074014 6.6425325296241295
Zr 9.323860080472988 9.837792411665285 12.216205027542866
Zr 7.856986613774245 12.310734351262912 6.990116041016665
Zr 7.698161438322011 3.474337417873139 4.272456440224347
Zr 7.079342432355936 9.088658205733685 3.366952882165559
Zr 10.387342634282001 6.842637870435411 7.655199533339005
Zr 8.74559186814632 5.039433735654668 9.473474196918401
Zr 9.831690895767858 6.947306387617016 12.224682775382712
Zr 8.966156012811002 10.999499240245342 9.45813106726282
Zr 10.929596189932578 4.010160038547958 7.283764675309264
Zr 8.973876529287805 11.000794786758341 4.730958132982846
Zr 8.504615657070405 8.104294071828141 9.849680716908397
Zr 7.743827753258174 9.087964340700175 6.799610385165366
Zr 7.911700072371145 6.200870648455006 2.9952371048596653
Zr 10.584664746484389 12.213050429597683 7.0295782893999466
Zr 11.351553004265282 8.97618517947297 10.429951301709346
Zr 13.358115193466304 5.2445977801398636 8.08499282874987
Zr 10.020585000218713 4.985210528809676 4.716788257115983
Zr 11.676869749181442 6.047365041568391 10.24238558566431
Zr 12.431981965671067 6.277129941135454 5.6882784424151085
Zr 10.728791032622336 9.587515409177772 7.335456023446163
Zr 9.635729002954431 7.871704507309821 4.746292644392016
Zr 13.121012981765535 7.8934943329428755 8.3839486450827
