41
Energy = -299.58262645 eV
Zr 12.487905308431165 7.513986615649059 7.930760649939506
Zr 10.875576872056229 9.096836947942347 9.642486994585651
Zr 9.949090816844967 7.469406727125367 11.773208973856025
Zr 12.272039950506667 7.339432322845817 5.120229538798155
Zr 11.049600992046667 5.837367679027541 9.802293012095062
Zr 10.805951531336271 9.321367128905282 6.420510992421941
Zr 7.992138422663151 9.340299114233716 10.729989024543933
Zr 8.47843053215364 10.370115255711356 8.153701418857391
Zr 7.317933859053927 7.425388148966088 12.788870909873593
Zr 10.854029650347389 5.430954892430306 6.731747632123465
Zr 8.864068973361064 7.301664338085822 8.323597893067339
Zr 8.151863653995955 5.360794947685067 11.024746159216662
Zr 10.358433673988102 8.65704211672896 3.478354261622995
Zr 8.242526649305605 10.251960822661015 5.178607731423085
Zr 5.035414488174911 8.868270190324397 11.91859336354635
Zr 8.802106613685947 4.076976236045276 8.399853249715138
Zr 10.800863126970837 5.609981558888523 3.5575925386299545
Zr 5.698540808852013 10.86012484872797 9.51301666163867
Zr 6.503831793867469 11.93552063821126 6.923246431791714
Zr 8.679825976221299 7.049271482901555 5.11608259732604
Zr 5.878211037665611 7.420331863141288 9.442653248873112
Zr 3.12792639097648 9.797241652842088 10.007535267218893
Zr 6.064553453227799 8.857709818136092 6.7297795425809035
Zr 6.012230854697099 4.277394701564882 9.322103520977404
Zr 5.220744799804194 5.760734784166301 11.832741165987036
Zr 9.138556434534262 3.39810232010884 5.518332744021593
Zr 8.426751329827782 6.989860291688716 2.179353605219817
Zr 6.581064783319401 5.460994104772399 6.419527416905087
Zr 3.66825859045249 11.143609817802691 7.316929816338722
Zr 8.378856976835445 4.280208097653048 2.8723958475164024
Zr 5.483688815817353 11.31448844882285 4.4791767309619885
Zr 6.6015319338299205 2.5663789398196957 7.024081995688324
Zr 6.184127617465213 8.401815106002031 3.7770234108344725
Zr 3.8919191599051586 5.434751051089245 7.921566844270144
Zr 3.074853745400272 7.026667300286284 10.458553655910316
Zr 2.9900268730656445 8.227544951850863 7.704520679257237
Zr 5.882581701982743 5.529179628323318 3.143639291692587
Zr 3.5199367717866465 9.46376683732432 4.963671951161057
Zr 6.57447653251752 2.973122357757047 4.2665701600263795
Zr 4.242713350532943 3.9486897753590227 5.356455611830044
Zr 3.9852600019812385 6.808641052109051 5.239606373676322
