43
Energy = -317.23979579 eV
Zr 10.111410207749328 11.016970120444872 8.774257700257701
Zr 8.707140014523311 9.914912238451318 10.912731680882242
Zr 10.507062631268433 8.076090319129248 9.4005527238236
Zr 11.73715724622639 9.468875967089513 6.873857170718161
Zr 11.592258497419627 6.201173988564728 7.394297246488048
Zr 10.242959446492026 5.2198718009217675 9.980531618275153
Zr 7.277734645056122 11.841259596213998 8.936214783349673
Zr 9.129546209545287 11.21789248638319 6.138616035342214
Zr 7.7411379761166135 6.975580925002619 10.481193921985943
Zr 12.077333509881548 7.394926767741621 4.688426126385948
Zr 10.658022827612866 9.835166691539573 4.054870201989206
Zr 7.686527949576271 9.158876311964507 8.173774904133719
Zr 6.028385863357554 9.560871631053436 10.680630307250931
Zr 9.466163916969524 7.973565773243985 5.961243469396634
Zr 9.75801818352036 3.340877879896024 7.80667513895968
Zr 8.572187483992346 6.059846393501931 7.76761232251535
Zr 7.803325139486262 3.601004724307372 10.160119548966517
Zr 10.187948465958891 5.137118048471487 5.075987135962251
Zr 4.648640427110361 10.487447511050664 8.412680242215382
Zr 6.121952342793057 11.4239688081836 5.9552402872878165
Zr 7.689910614392009 9.44403237577748 3.9873746139964608
Zr 9.65811354171543 7.270380273887686 3.03433504096417
Zr 5.640403431194098 8.334067349243092 5.936103075702716
Zr 5.333265510567799 5.167123094834793 10.672639411452415
Zr 7.434325586359429 5.9765782146153255 4.8706047502161205
Zr 5.160955248297335 7.366176109506077 8.800525298634664
Zr 7.87690327775439 3.0193894422510796 5.463321354854404
Zr 7.41441335672501 1.6861587814454533 8.009143743654263
Zr 4.865925212538128 9.982759061186282 3.5791823957164777
Zr 3.3598564174226437 10.409763616898788 5.91787749120192
Zr 6.122410373498341 4.418580535491984 7.743042419359762
Zr 4.8347647120768436 2.543758682208601 9.31917505853069
Zr 5.523891548726584 6.984506453679381 3.1786632060012647
Zr 2.7758436453664688 7.81790621878725 7.327856759018914
Zr 5.2161766391006505 1.9140880332636243 6.091218753971376
Zr 4.319514531756066 5.458233858236199 5.793776908849129
Zr 3.0559498173340494 5.1669114736895905 8.876131080516007
Zr 5.634858266786096 3.7403084894749736 3.581611039399001
Zr 2.9364380970458086 7.851831496962961 4.501922539077207
Zr 2.7409166443310466 2.954858021073715 7.290289711240548
Zr 3.0688478430357273 5.285650444705033 3.082930983674855
Zr 1.5133162794499135 5.271385228861783 5.73970707878526
Zr 2.963032549846049 2.9421989265566055 4.551191801309418
