41
Energy = -302.36418931 eV
Zr 9.588042916713434 8.598869576267012 3.282565332653543
Zr 6.118795797859688 4.906167242266068 3.969732997525802
Zr 6.82792248138571 9.210209670168354 7.297518622365917
Zr 7.902445008455487 11.050243583822908 4.163693028438664
Zr 4.741842835914454 6.632349660794714 11.29690928999639
Zr 6.987063285713889 4.520354948272839 6.823104232330188
Zr 5.794755360275276 11.235607241172715 8.832456446012968
Zr 9.633063798033051 7.881700046047631 10.949957844763867
Zr 4.889058727395323 7.408750801712564 2.420782557823046
Zr 8.158264082170238 1.7586968911907706 7.028538945771255
Zr 2.260707619858338 6.781670336438642 6.748956944402325
Zr 11.487230285623076 8.854378207089132 8.634147893855186
Zr 4.394479376087322 8.159096031882202 8.88204255375534
Zr 9.789778340023725 9.394475994847971 6.117753014462051
Zr 6.782728150933865 8.948725151166773 10.624040419871948
Zr 8.141011376234573 2.7274427654573152 9.489238727028326
Zr 6.930948497345041 8.204194676682926 4.557817583638636
Zr 3.8842092402837687 5.028176141403286 8.89011935270299
Zr 7.884822192743274 6.5279616459045435 2.304821158578574
Zr 2.850443880891476 8.33911123696241 4.3087244384846795
Zr 4.901710445396737 10.24390847439764 3.710976254006421
Zr 3.91041913147194 3.9504605074202024 6.178656439152821
Zr 9.084411455649064 7.245562296063114 8.041057967944223
Zr 8.94048013476045 6.216294021154003 5.192148828307815
Zr 3.740502515910369 9.798269958815172 6.60832449844153
Zr 5.998536599248658 2.137911607728615 5.283292118886694
Zr 11.527267900189457 6.817380074320047 6.515694508860108
Zr 7.0717821470242885 9.34014258643793 1.9054115127305697
Zr 9.987367327542229 4.215427120337788 7.547822399242927
Zr 5.454417724355076 2.45269756241026 8.377304298990609
Zr 6.73763522543639 6.1522885514469134 9.254245752667114
Zr 8.988148650819994 10.301770900346147 9.18110179764086
Zr 8.253401605931856 11.915967279997796 7.044493861767784
Zr 5.9712471368456725 3.9749141892050113 11.006053796500233
Zr 7.3964227602988695 6.433616461867621 12.195936891204338
Zr 5.688916048063904 11.83278410160446 5.953095809540043
Zr 9.27618166988092 4.879818941436196 10.68549479203493
Zr 4.94481597791975 6.82341655048299 6.188256016391741
Zr 11.51658464578502 6.109288402105296 9.37817022228673
Zr 8.65046726414126 3.3286927361971217 4.675742190584121
Zr 3.1199100599177374 5.570824921517405 4.042053657808692
