43
Energy = -316.47780679 eV
Zr 7.657801235470544 11.150442346076687 3.9464328246288964
Zr 8.62269567720029 8.136206721444577 3.939014809955581
Zr 10.653462111437321 10.258767706537997 4.250468432115126
Zr 5.964243364295403 8.84053395617428 3.3777456962868904
Zr 11.296255034708475 7.201802204769282 4.853708291230524
Zr 13.06110262829678 9.16325882163248 5.656582455867027
Zr 4.611543577065417 10.932125563941911 4.846982832883808
Zr 6.437542296605216 12.489055980986551 6.333963366490597
Zr 6.431986629425871 6.470407721789471 5.360883024424317
Zr 9.13435221594396 6.80520943057218 6.725658810535871
Zr 9.216534521528773 12.10123016714552 6.381736814869874
Zr 10.307400235901913 9.33040210241495 7.072766191871782
Zr 6.976402762738721 9.430935570534935 6.287274882373085
Zr 12.015292633568228 11.713233998914212 6.499753568072586
Zr 3.7968592564117927 5.337973847990132 6.047194903640675
Zr 12.322340251990905 7.063109067788663 7.69112964682395
Zr 8.537278904936821 4.598295834612226 5.062122075821258
Zr 10.810543041961798 4.398010832740811 7.026927899123858
Zr 4.027368903369538 8.087178026982372 5.385773967922155
Zr 13.047269143773635 9.895797907510417 8.396491917802123
Zr 4.660427594857484 11.029984892952985 7.961257460750138
Zr 11.362213448684718 8.681122110462091 10.281448263488668
Zr 10.607604970902779 11.397752356917412 9.240204427553026
Zr 5.878445661991473 3.426266463634027 6.439200789695541
Zr 8.493561248054842 8.033428478673974 9.332950468924093
Zr 7.6368560025141585 11.072665283538912 8.759281361774303
Zr 10.788809658822824 5.682483527563286 9.814586694671803
Zr 8.537276264652647 2.520402824413581 6.954486311408422
Zr 2.4110268867156455 9.67102701439205 6.8801031504621974
Zr 5.276759543402096 7.438422934432237 8.188378671414519
Zr 7.565095244852188 5.116480536010586 8.426048067373296
Zr 2.321076051907695 6.771472984807853 8.028714757588173
Zr 9.706695767040856 3.054748347849917 9.407786187762028
Zr 8.796167497149447 9.946153713617726 11.39845747315742
Zr 9.62495026189427 7.230153388988723 12.049865806721517
Zr 4.1271368055340245 4.307150279711961 8.695310888180964
Zr 5.747073485621517 9.547115112772321 10.396746103062478
Zr 6.71435088391384 2.545014210849802 9.291766220995076
Zr 3.0253213489445114 9.197304180803977 9.555492672247707
Zr 6.7464527934957434 7.2246002577037025 11.694637692444902
Zr 8.38222478985531 4.657282691236444 11.386464964884217
Zr 3.7880278912987406 6.673095171928678 10.610220822284356
Zr 5.653131323741349 4.646822226334091 11.051537693207804
