43
Energy = -315.27729121 eV
Zr 2.2244480089533667 5.753099424447191 6.069617859504237
Zr 3.6542118505906176 7.1124721869476675 8.640426001175955
Zr 4.5260697349023635 3.770663502599692 5.343847870793519
Zr 3.696044096188039 4.373020966526942 8.092397965517872
Zr 3.7508817553368927 9.980839168759355 9.3317461758287
Zr 3.168458662903409 5.398942517506371 3.3570233772366675
Zr 2.4823282496580092 8.081672046262867 4.135836529054717
Zr 5.293651123763989 8.171973235187258 10.982263174481245
Zr 6.0884120779876945 2.8365027180263027 7.8082712097470885
Zr 4.858062964549023 6.83521789852828 5.47901321055892
Zr 3.175430532934164 9.325637793590422 6.656405267497789
Zr 5.306587687396408 5.148342282663696 10.45535108640831
Zr 7.473526583657746 3.794540430642253 5.223166346811266
Zr 6.275020610654186 11.03701271758063 10.187440613754944
Zr 7.699345219164034 9.085199184934432 12.19873933127165
Zr 6.0758798926263875 5.211189451705413 2.984024538022653
Zr 4.597915111038572 7.656326955886119 2.3688336682094113
Zr 7.538140580369143 3.3903310878913007 10.284426561013694
Zr 6.011957105344008 8.977667429710069 7.48905223522536
Zr 5.1885902469529945 11.613685248198427 7.268811468272296
Zr 6.754035269237867 5.722346850124978 8.041598608320914
Zr 8.291236463625651 6.154171578598463 11.201199298238791
Zr 5.016750887124448 9.754066055807428 4.472363083426137
Zr 7.292854615432402 8.104381348280453 2.9113819124031286
Zr 7.909826850840242 8.51737756157984 9.393514122491966
Zr 8.963458851086912 3.3532498042800487 7.796502520223822
Zr 10.321799689141985 3.705135772321241 10.566902228262474
Zr 9.083765246078285 11.096286486638505 10.705901997047903
Zr 7.782684481333672 6.985450005090982 5.579227851662178
Zr 8.292781959321681 11.564637983000464 7.95189095590593
Zr 10.090832966220246 5.989612146638312 8.767356151609247
Zr 10.457006439416935 8.536408139381424 10.982189599720288
Zr 7.880258432339211 10.053118452964215 5.337017522618491
Zr 8.92170317704021 5.624808379990732 3.246198706580674
Zr 9.927994732618318 8.51540933733697 7.296551626152673
Zr 10.341656596074671 8.144713608887692 4.493014558758351
Zr 10.193599615941634 5.215321098991962 5.711276992236696
Zr 11.419137898695647 5.880700378255596 11.4095900401076
Zr 11.216049239681148 10.762225046997186 8.81200256784922
Zr 12.543001815440379 8.088093936413701 8.997762162433943
Zr 12.34515723498364 6.657824703061233 6.6082331828149705
Zr 10.425223233376032 11.127888672453055 5.916757408801047
Zr 12.570788361596083 9.484673763803611 6.391181780840709
