40
Energy = -293.88981193 eV
Zr 2.412554180820753 4.757202026027485 7.5139215947698945
Zr 4.323515923671247 2.800360420070606 9.031073405202884
Zr 3.3939628116064995 2.6184989065910007 6.095903962051104
Zr 3.5562087096280273 5.26979515819416 4.689815087549057
Zr 3.917835847238545 5.857570797014142 9.634906867867848
Zr 3.9057079355682225 8.775369807647563 8.971759396908569
Zr 3.5299129238579336 7.379061282476273 6.633250032018559
Zr 4.364631637680205 8.610863890449751 4.0234210286417
Zr 7.6774429048994906 2.7687394917396553 8.627004082177564
Zr 3.741269866611293 10.64638767908471 6.657909104391966
Zr 5.815609681166209 1.5356167250356805 6.75569324281759
Zr 5.46637126701483 4.5393962744712155 7.106859018564434
Zr 5.635499333624627 3.294861473167015 4.209009608691355
Zr 6.140556060804601 6.079783204571338 2.412784602189003
Zr 5.98835466229604 8.470600335068726 10.887474255843708
Zr 5.609374610811576 11.293393930239398 4.311572844714263
Zr 5.648290633119642 11.052688062278401 9.24455186250764
Zr 6.535151984646491 6.899325107446915 8.477058405206458
Zr 6.26442639865527 4.725152156327014 10.470696523721902
Zr 6.375933352812885 6.5184192035210495 4.977075879648956
Zr 7.226346025791962 9.014533524132968 3.4267467869418127
Zr 8.077556647055216 4.0183330501532595 3.1595608799117487
Zr 8.588600630570662 5.46780475470866 6.396217455817508
Zr 6.124729639964478 9.227417502386185 6.344490037460061
Zr 8.300660600392847 2.434942110599314 5.665799267098052
Zr 8.90157729900307 5.14924158112963 9.640156685897294
Zr 6.176754405379366 12.36164049516978 6.807390523905033
Zr 8.838839452033076 7.743990886660072 11.055792621006791
Zr 7.945128605670619 10.605589438024348 11.037415766912174
Zr 8.15921278107338 9.128765499226585 8.44600283806492
Zr 9.285942595442412 6.5122037003771345 3.3026224528159003
Zr 9.22113530039528 8.324722468162152 5.543703032274998
Zr 10.48590952632376 4.006669498433987 4.504313070928675
Zr 8.637723499917673 11.961490307982457 8.4113468649683
Zr 8.440025524892533 11.242886510511775 5.397308688904372
Zr 10.477471627924679 3.763181937968742 7.483543197312884
Zr 10.499107423733578 9.94964183107143 9.925712905554848
Zr 10.494703252592654 7.207689981116462 8.371292239041148
Zr 10.7315594630621 10.031755540751364 7.1305014703177285
Zr 11.359848438657098 6.348442805467797 5.689074922314286
