48
Energy = -354.75992768 eV
Zr 13.09321895513448 7.144515180347341 5.857128535051524
Zr 10.780455368130992 8.477984304612301 4.92208009030064
Zr 13.14514854740151 6.2308626435281145 8.589886506546978
Zr 11.285688609503357 5.51120150030826 4.1430297778720915
Zr 8.458307575338065 10.16619631011477 4.202540339540615
Zr 13.052222019546427 4.372755502095667 6.414968850334874
Zr 11.398281773208828 8.630067046873135 7.948096006942174
Zr 8.785698812791644 7.143116183034792 3.089160380211391
Zr 7.586111015814432 12.746998044733903 5.659110408312107
Zr 10.557578542699321 5.957535854143541 6.989358633252247
Zr 11.392528821498582 3.7448164278446945 8.922783932878579
Zr 10.607553686183994 3.017077876190043 6.0641097210041845
Zr 6.053382472039425 8.739098332254503 3.3599266015706943
Zr 8.97854889658047 10.419308095342917 7.255774750210471
Zr 5.920804141014926 11.638761179083577 3.5044860071321544
Zr 8.382219435676527 4.395202789784718 4.652560464490189
Zr 7.945639009984232 7.513449597206953 5.765246192252938
Zr 8.408364210050022 4.158606807868358 7.710226535039435
Zr 10.757669423781296 6.593234695109231 10.042779895707024
Zr 4.5908942452895305 12.767004430584878 5.724033331327998
Zr 5.808714864338998 12.86836007427476 8.119300381077148
Zr 5.971870730961858 5.716083951029559 3.9650632333885514
Zr 7.961822371817693 12.228283218146684 9.743942565232464
Zr 6.169155250750201 10.266622382403408 6.166389913408599
Zr 9.612750896384089 9.850701895151323 10.194418180138394
Zr 5.020373376322081 7.769383484963814 7.061057183851687
Zr 3.719616828604853 7.423258904768057 4.218975341306924
Zr 6.552519479687641 9.596514587860236 9.330607322692702
Zr 5.924116459555723 5.111195998362905 7.105455254797325
Zr 3.492360946758873 10.242420798750544 4.718264187511937
Zr 5.4745745566869735 2.8689259219830507 5.179120420986207
Zr 4.906767034184257 11.565656196418162 10.58165396701266
Zr 3.42954939997014 10.94694693205561 7.745083656320473
Zr 8.015977975584677 7.865365254391022 11.600567110707313
Zr 8.098523087041016 1.624303904243242 5.884064074883641
Zr 8.366710763068577 7.503266305237985 8.636763282641416
Zr 7.415463142246666 10.73529384405819 12.045259422504198
Zr 6.184393215344498 1.6254649354917239 7.798377701591825
Zr 3.340197988149642 5.782368121360278 8.669186689866471
Zr 8.780508513317162 4.734148992828934 10.568007657675293
Zr 8.732356574673434 1.9320998380568597 9.162294443890417
Zr 3.2737639063856085 5.216831448255006 5.80222486674231
Zr 2.2734246829050715 8.193236476094269 6.760718582121949
Zr 3.8821966190452812 3.056367633671459 7.721863707164076
Zr 3.5438865152775825 8.774875244711533 9.675860521778084
Zr 5.793651688024101 6.610203031351239 10.034742395303022
Zr 5.238437665451981 8.901051813096737 11.953597704609958
Zr 6.105057907594637 3.514954335171202 9.912802715634783
