47
Energy = -347.55395024 eV
Zr 2.229107501406326 6.830202840175393 7.452114027420324
Zr 5.2702775808933735 9.332447452768742 11.253857734554716
Zr 5.116448524352594 6.180965214547569 11.553199259796655
Zr 3.403783860137445 7.8545810666095495 9.858866378635033
Zr 1.218557602812075 6.053287658442039 4.911613370665154
Zr 7.062332883970177 8.016639952607074 12.930343416708626
Zr 2.803246964178609 3.8710901001675317 6.322280276135025
Zr 2.4732628192863597 8.729542553393104 5.0288270438480875
Zr 6.849679017077577 4.319918655714937 9.63217981883272
Zr 3.3505891290828167 9.698264574616196 7.677026799471826
Zr 4.256241308619729 5.065981395967068 8.71209177071265
Zr 6.383772349225613 10.280743219579918 8.55075056396207
Zr 7.943458045520572 5.4189950493361465 12.129434474921613
Zr 7.292296870117889 7.364604433296522 9.974149506824393
Zr 8.142128576496702 10.16039273952945 11.034671535281406
Zr 4.231029442726593 6.305806312184152 5.109392126107745
Zr 5.297153580565344 2.4220650375056816 7.502375964269667
Zr 2.7424533667491264 4.237394098822033 3.3746052810758855
Zr 5.52921079542673 7.56149165569478 7.562616194707896
Zr 2.6976232311870203 6.943336311930169 2.587734073672374
Zr 5.392317926311523 9.840224408405964 5.494887208855649
Zr 9.852108783224564 7.748699118540615 11.732071145536363
Zr 6.5857478968650565 4.684397704928036 6.43312087680809
Zr 9.8793650137308 5.377859474118957 9.944340112690748
Zr 7.426147702123365 1.9306873387477494 5.589343147087756
Zr 5.05881732100836 3.0191981798796825 4.4163221160243085
Zr 8.114083369987997 9.0619120719665 6.436394723571366
Zr 11.120983239737965 10.225041395191047 10.592738870320833
Zr 12.070461227196137 7.5560995872220325 9.420256110822274
Zr 5.030178746176435 8.445318498488895 2.9666987127092317
Zr 9.368478299008386 11.613065640051467 8.380389800057005
Zr 5.388950332323176 5.541277136219562 2.4220559720418136
Zr 7.225332721391057 7.151922201560382 4.548995535390763
Zr 8.83383658480214 3.0056229231673552 8.04563974275968
Zr 7.549252576002715 11.878954766622797 6.073672867878202
Zr 9.558041946669615 8.643459378258045 8.782147641492191
Zr 9.80251588879024 3.2970075632586693 5.416791113546848
Zr 7.81044450550133 10.173448815538364 3.643551136968208
Zr 7.831517571398999 4.080277794131603 3.4214958236210857
Zr 11.987879399756464 10.146152459098372 7.923716120528814
Zr 11.3700721192562 4.896126327188809 7.231701712814835
Zr 8.907856494530755 6.098665105936094 7.0954950956731695
Zr 8.228488572670974 6.848079908647246 2.068564293785486
Zr 10.316518153965893 10.805870368827078 5.616396904540047
Zr 10.28237464907276 5.732011408004215 4.150270258364127
Zr 10.039207998182997 8.507781738882006 3.781176138208052
Zr 11.421183862756468 7.810244904994178 6.253694564957493
