48
Energy = -355.45491126 eV
Zr 7.230792431771129 1.196262913753173 7.100495986860964
Zr 9.701496539048701 3.0060335536891305 5.835453390867896
Zr 7.404515602578933 2.356820875193325 4.426998815582755
Zr 9.52408760313221 2.3131600643419636 8.691806535895894
Zr 8.919214198680057 4.486146513506845 2.9967805390267492
Zr 6.973872725911021 2.07486427064768 9.96567200944896
Zr 4.451924869080534 2.548486921700169 8.48813704720499
Zr 4.801401007174434 3.0881770619413236 5.520181224038517
Zr 7.278952076176591 3.8933767026091592 7.650180709670893
Zr 10.16099382151724 5.154502857061166 7.9768601887735375
Zr 10.757145627267654 5.908531287937347 5.209942414297692
Zr 5.8761945752121285 4.042209723342238 2.973057703404433
Zr 5.580040033791161 4.4306577165823215 10.778178905580278
Zr 7.639724591163169 5.498740020143921 5.284775051865161
Zr 8.696646977222546 4.45197968628003 10.654617399439893
Zr 11.273544310154827 8.907219988350802 4.856639096799427
Zr 9.032622536508095 7.719618004485437 3.476692080286006
Zr 7.472836543406889 6.664435298101139 9.048829924886851
Zr 7.1954897418216355 6.8062305349043255 11.88752240221486
Zr 3.2190459030628884 5.329429408902351 3.383434815990163
Zr 2.7522103072336535 4.895407904109543 9.68496651237908
Zr 2.4082698475163675 4.694669107179373 6.527831784428742
Zr 4.879368521744747 5.326623558391291 7.935207836584845
Zr 6.280231767825246 6.7055034006378005 2.615078186253698
Zr 9.08172049291147 7.864885117520208 6.560087541399396
Zr 9.817628421067184 7.605731867512702 10.298126711389653
Zr 5.729379623808797 8.171724333000283 7.7016258775599455
Zr 6.521817626354129 8.675459228064174 5.016533072211662
Zr 4.4466741637155165 7.289189620527235 10.522447298550807
Zr 4.706075512432361 6.365081342163441 5.320854749320211
Zr 6.967897931709997 9.69042457620666 2.384577418384157
Zr 2.5692077070994035 7.417475815843437 8.01444091615613
Zr 11.780057607114482 8.019001418538092 7.652260601981125
Zr 1.9511113286275612 7.390366049487138 5.167520188237445
Zr 11.592380815164278 9.933188401116158 9.712598869351767
Zr 4.062296062169534 8.611129967842315 3.25812812018512
Zr 8.830498643279723 9.97803371540356 8.383616550787929
Zr 6.651757429964778 9.358820970670335 10.37224753853129
Zr 8.686200650509933 10.656437448151593 4.894209454165292
Zr 6.168577286695861 11.077455471847582 7.182091509192194
Zr 11.242478321717583 10.972030714841594 6.89378159969365
Zr 3.9688763973594305 9.952901203571557 9.022151900082534
Zr 5.5506328424277624 11.259815873689702 4.265637861122587
Zr 9.261697899579358 10.499199146847594 11.321155148636041
Zr 3.527243119507718 9.706608902098022 6.006864524069982
Zr 10.31658525580408 12.433808587920499 9.36596906591692
Zr 7.417605253105117 12.233658693235114 9.706006724168882
Zr 8.655253997248353 12.696505905845585 7.05740371074836
