48
Energy = -355.26170801 eV
Zr 9.538873268773543 11.257541698036384 3.899506177572611
Zr 9.241573741480973 9.531599975039898 1.2931558614904326
Zr 10.561266705765181 8.248045763531954 3.3537493149342907
Zr 10.682245431216131 9.221822293518622 5.962319033279561
Zr 7.298028299929364 11.516433775376328 1.8015276774685485
Zr 10.429899213302102 10.658846556170651 8.564186087040994
Zr 12.021976064473957 8.22116823798908 8.502610433920532
Zr 7.979012998164839 10.461815226496876 6.695528759438645
Zr 11.10669804185139 6.13202042791871 6.513991088204534
Zr 6.535979547472704 12.025309034910626 4.521675814840437
Zr 6.460693414935434 8.795078889122967 0.9894876340555543
Zr 7.483399436170884 9.302946086930335 3.7789569963520524
Zr 8.408823325039892 6.760801841491284 2.192998755267304
Zr 10.262511814016898 8.687234432967504 10.819844065817753
Zr 8.5303841133388 7.008947686923973 5.1812208128538835
Zr 7.967885442005363 10.636229684789136 10.043221724363415
Zr 9.111840357721027 8.024302117302653 8.188468033788645
Zr 4.811684130098979 10.285058573806413 2.7209828740423823
Zr 10.764008809709978 5.613564956073265 9.416940065908708
Zr 5.624663894973255 10.730675561449921 8.29717227120036
Zr 9.612786345621368 4.178595905185812 4.832538447611739
Zr 10.409777391938576 3.3332447947697776 7.428319638918196
Zr 5.790658311528359 7.621550439929026 6.7833137527495255
Zr 7.7376104924387255 8.627547628949335 12.10520730989695
Zr 8.585471521188294 5.899061404910468 11.13871854156937
Zr 7.019756246831707 4.45859394744767 4.126873717699539
Zr 5.5030184124913015 7.288068206054486 3.6267252027618984
Zr 8.23193779345285 5.284530933716516 7.35559294704297
Zr 4.786704052686748 9.818067505684404 5.532836698121203
Zr 6.463128069218238 7.913162855901026 9.5066600863472
Zr 7.339675497379115 2.5498627786037424 6.804787949279794
Zr 5.0373759628723125 9.56814345222905 11.106273661424803
Zr 8.60384294889972 3.099139662698989 9.652098369385454
Zr 5.061243641375668 4.786723954114299 6.4308647737261655
Zr 4.095309888014938 4.7512383608566 3.412625439530092
Zr 3.4876410767124977 9.029430873236102 8.485181294191358
Zr 6.928422873057232 3.656858219128914 11.942388103015325
Zr 5.799524172337247 6.460066123557987 12.120867816588959
Zr 5.962068694408006 4.899654627309461 9.36662079133583
Zr 3.0740110391673583 6.948861678803364 5.092046363800183
Zr 4.995353824204679 2.408617401683033 4.702912799865367
Zr 2.583108974034951 6.354138613465528 7.705754433871984
Zr 5.644698579734449 2.085523131468652 9.7296568906653
Zr 3.5487626212937204 6.692139370291773 10.339631468603095
Zr 4.268242331498806 1.9254788068021667 7.250593872796424
Zr 2.476083598182785 3.9062625921191105 5.795454006803945
Zr 4.177630296459287 3.972958495567799 11.597901541426705
Zr 3.0212951274124697 3.7816836938798675 9.001998257080004
