40
Energy = -293.91504213 eV
Zr 11.527040895290845 7.814273036253727 6.187033860635693
Zr 11.879908769922515 9.503026322290541 8.543971463462446
Zr 10.641307811701367 6.386366005488326 3.8520736833826668
Zr 10.486680324329049 4.985173794141183 6.433076253260842
Zr 10.781378536948813 10.662833698009752 6.377751287601812
Zr 10.87318576067689 6.584124134203422 8.920037807786553
Zr 10.207093021379828 9.382340447215737 3.8934098995793653
Zr 10.52894357814798 9.088329076947971 10.761805302004817
Zr 9.080038271422382 3.9306608231527047 9.198367919023314
Zr 9.509368089372352 11.40555236666222 8.973766880526432
Zr 8.321539059110153 7.70293576458353 5.414409216683806
Zr 8.166900563578068 4.781173898812272 4.281587345186022
Zr 8.619197083242025 2.936724276439348 6.538725627280651
Zr 8.79012392919326 8.777733946989004 8.255048654682717
Zr 8.476631782957202 7.263010144267013 2.4259268240625853
Zr 7.82703733839137 5.834254366989634 7.780977875782486
Zr 8.131491128220146 11.02251860396605 5.7434456398322755
Zr 8.709336924467355 6.7216127245733635 10.739967481542738
Zr 7.97569419780101 9.985492467574014 10.986400365259689
Zr 7.318210388800611 9.694998572350828 3.2934710849428974
Zr 6.248485685950871 2.939211831604059 8.101816808875618
Zr 6.261546952281865 2.3460950369224682 4.992798712338961
Zr 6.158022387593351 4.989992065817309 10.293498503763955
Zr 6.1729970865792305 7.913862826902075 10.79011590575285
Zr 5.702975697653994 4.368530007526786 2.794933971973133
Zr 5.2563630684481115 5.03081042838492 5.749107913655744
Zr 5.745678860299383 7.235780645698539 3.7048327141254673
Zr 3.8123857824114555 2.426295495810407 6.6828814008199515
Zr 5.686992254999266 9.433450345816901 5.695469493575775
Zr 6.204602367335837 10.281376450013996 8.493142577196627
Zr 5.0994737928905245 7.396784821217843 7.984779365532641
Zr 3.6410008377967777 4.477765065693723 8.653395045904656
Zr 3.4867844687204714 3.042747344171186 4.057119420024198
Zr 3.6557763375660626 6.50537267691876 10.64849453415843
Zr 3.2436570554932316 5.731733537018779 3.4593174121666017
Zr 3.7172390833323714 9.258940169232433 10.000845234914271
Zr 3.0378798622163283 7.710041845067385 5.479293448329439
Zr 2.1926460023365184 4.8858579574527194 6.084549472915731
Zr 3.3839717390761734 9.830971694431499 7.362729915351388
Zr 2.137619251769136 7.221965061865552 8.288670686210924
