44
Energy = -323.48049648 eV
Zr 6.115307006264424 2.1910985621645023 8.790692607809598
Zr 3.5071828007154195 3.615371010328212 9.267601804461052
Zr 5.241146520743414 3.76105823101135 6.634310842302775
Zr 8.23936230777674 2.656292056220428 6.8098075565772
Zr 2.5536806188033867 4.872450935017052 6.865894594971041
Zr 8.528625375701246 2.9096466335572035 9.78767496956602
Zr 3.512406153581132 5.720417200520031 11.302093100589708
Zr 6.008507457936687 4.18595928380255 10.8583146649686
Zr 4.240757055174905 6.061286783478973 4.961011257017007
Zr 7.19175644355719 4.757637959264174 4.726948446256627
Zr 1.8187843636408625 6.155150179042453 9.163997938879616
Zr 10.480688302202251 4.175795627772023 8.100143833531956
Zr 10.238973418929818 4.365330610673214 5.092516192219183
Zr 8.539932893624071 5.634944513823248 10.918985166117682
Zr 5.992836221160172 7.028075862445103 11.659825878341202
Zr 7.715936299461288 5.268369771280408 8.000515910383115
Zr 4.885471879724681 6.2709935623879565 8.563396878244742
Zr 6.087747347794335 7.060438197249091 3.151591544440306
Zr 2.8592084550292585 7.882737925985863 6.982058599630592
Zr 9.004956429706407 6.546509833731087 3.2878508803427535
Zr 3.4185417456305607 8.404744705594851 10.000373974344479
Zr 12.270220593724217 5.866097026033735 6.855791796818836
Zr 7.586430379427587 8.398555980628457 9.068866271161216
Zr 9.548554904972978 7.036393957953012 6.196854908407116
Zr 5.115627858028281 9.669655917986056 7.866966329940354
Zr 8.519101156853429 8.472608112930157 11.81652973597844
Zr 6.608218478733478 7.583561264078992 6.121130247423601
Zr 10.340381133338221 7.104962490107659 9.01383516583336
Zr 7.603335882723207 9.349890397649064 3.6902464216760364
Zr 4.698862197878382 9.145835481221413 4.733917602619616
Zr 10.603494438262814 9.842395748033706 9.74661393277361
Zr 5.940515551356662 9.919375952604328 10.958902307910977
Zr 9.210469798857064 10.126468200735403 6.880763444542001
Zr 10.424250267713742 9.196873595617063 3.928373022226864
Zr 8.487212159470548 11.181114065613402 11.312737925198132
Zr 11.858664575284182 6.761267013502885 4.28666058844858
Zr 7.142927901503684 11.768338081103053 8.750165381216226
Zr 11.924526661570036 8.866397341035253 6.633803568042901
Zr 6.566343709915791 11.363790527920251 5.834717272266284
Zr 11.77148841772213 11.713670576649552 7.791948185083884
Zr 8.878304606003464 11.76093170521373 4.154647327313343
Zr 9.82802663793144 12.636207662616211 9.462806149760857
Zr 9.125031161788351 13.060643222711295 6.700288675729349
Zr 11.423062078305133 11.616284408641592 5.201427405246965
