46
Energy = -339.62626949 eV
Zr 6.036168898131099 3.0070318985134064 10.721643139065677
Zr 5.066819412579148 1.5851260178444972 8.544300378331089
Zr 7.8669921481168075 2.7793153125231087 8.119567375436603
Zr 3.2466777805820244 3.5751312348408826 9.948323547684945
Zr 7.937805953873831 5.075856750858531 9.985790544056622
Zr 6.082381607913743 1.8079517194977637 5.814123653065348
Zr 5.194815076137041 5.879982675534151 11.164184395847997
Zr 3.3253116755397993 2.8412568199893586 6.724243725534169
Zr 10.588046925029222 4.532721741727236 8.046531506842172
Zr 5.341812313321552 4.619393765965244 8.333396236657634
Zr 7.504419372822165 7.433041039199967 11.882535063814776
Zr 9.766211490844423 7.147903536642082 9.836794661256148
Zr 8.906180309441424 3.2777826955091003 5.45117071609819
Zr 4.154248105612511 3.183112182117334 3.975230854243416
Zr 1.9347746610919587 5.002262350498678 7.835352571956371
Zr 8.403265407626247 5.855240859186014 7.061485223544793
Zr 2.858784828124405 6.936462953493603 9.89950161340036
Zr 11.11689209758878 5.60777454670312 5.132655350329843
Zr 6.1481479613984185 4.7963597683665045 5.5160730933880835
Zr 5.017162960378022 8.927076842819758 11.0133717961426
Zr 6.890586915541471 3.109161592643063 3.1965140802304775
Zr 6.803222774776549 7.804928151682614 8.99380443446401
Zr 11.622617054377606 7.415761449595771 7.458064436669249
Zr 10.793019142289824 9.634546139367819 9.296813955775669
Zr 8.31788235437393 5.747491207154758 3.6177953655421753
Zr 1.6300528682906235 7.605866141912187 7.246357053317126
Zr 8.155853360850143 9.941088349587718 10.624248012562711
Zr 3.1497379211192893 5.771680843184969 5.162325118526345
Zr 4.553416364085322 7.295121340470005 7.361972255452572
Zr 9.353066207259893 8.07474900760549 5.216482507052324
Zr 5.350269708532646 5.61935238893716 2.833881488873069
Zr 12.335389059464346 8.323963707270726 4.834518297826032
Zr 3.254509557330389 9.661996473006583 8.476332833042765
Zr 11.492847786128348 10.480541073283664 6.636797674847663
Zr 6.188029982540949 10.996843266296322 9.010904386127761
Zr 10.710543146135391 7.4187032010893486 2.6914121095259254
Zr 8.42898459421627 9.820562220225156 7.292850966067697
Zr 9.459310751584534 12.136078999560151 8.508395935563172
Zr 3.259816732027783 8.910119817900737 5.308023989601405
Zr 6.19660494561604 7.813504399630837 4.790164658495852
Zr 8.131108538472445 8.521327540888624 2.5134445474557823
Zr 5.478390584668739 10.179624119949288 6.3927507038818465
Zr 10.419239685256096 10.293150029627943 3.6355653987184287
Zr 9.573174421371666 12.269026097304026 5.570147237194124
Zr 7.093789095954737 12.5491000354286 6.668464214143711
Zr 7.470417973116762 10.80359099656882 4.1742727403118485
