40
Energy = -290.93708099 eV
Zr 9.802186424767195 5.331736378865496 4.189002308679231
Zr 6.964046914901265 6.393060688243515 4.39205842329787
Zr 9.681042211018495 8.065685171537734 4.499051795800278
Zr 11.391548759081102 9.389518593950964 6.557481101184053
Zr 4.887500832322709 5.840479514311097 2.284979551448746
Zr 6.709740805973713 9.34248579534742 4.624829875797434
Zr 7.066060151315574 4.318137844910905 2.5199034282830857
Zr 9.098904049412319 11.025135781298172 4.848859405064117
Zr 4.078809017707078 8.379144739019553 3.8456112338250152
Zr 2.9193284646648285 5.862462361405571 4.291463333683539
Zr 11.754802278555662 11.99540361962158 6.084389051782746
Zr 4.0718782081295535 9.994153519440287 6.31672119932174
Zr 7.835101707892742 3.3809477554517686 5.181525751891503
Zr 2.203014549228508 7.827242553651811 5.978463881675577
Zr 6.777853474966367 11.503858739867452 6.6699445119571825
Zr 8.436641536684247 9.034779244670919 7.1643620621945505
Zr 9.393226648390888 12.3325647661419 7.309372751142748
Zr 4.97132560427374 4.007627363905604 4.68177157908474
Zr 11.027694197248989 10.748459490959553 9.053985877977057
Zr 5.250651913505984 7.21798758137437 6.625857129629574
Zr 11.418286456941278 6.417776430328955 6.5286748403127275
Zr 8.234222836124173 10.974266671451147 9.559480343310574
Zr 3.163852403998006 8.039073049431824 8.586176656446836
Zr 8.48361172097156 5.875418253142955 7.078799598050298
Zr 5.9809644104720086 4.02134733846857 7.525347028136427
Zr 3.137516949715047 5.2420507203372155 7.213158848635089
Zr 10.586528881689809 7.751084409563318 9.120636684968886
Zr 10.66248680289856 3.6747508299239513 6.25437666384479
Zr 5.583736000639165 9.589577598609495 8.889192375342029
Zr 7.570432355772808 7.627875406694107 9.950567226001594
Zr 4.977571919509318 5.932541349642674 9.539459701555794
Zr 8.684460975918332 2.8337652708357597 7.935213925865617
Zr 10.60862018467602 4.750833514359969 8.996674804206249
Zr 9.671014290782123 9.220832361125591 11.5764767916204
Zr 5.005190284232477 8.039484888824978 11.625411099133977
Zr 7.814068204944385 4.403049903963396 10.015885702458895
Zr 9.523709869556862 6.258747591943788 11.692939911084697
Zr 6.780526683445088 10.193915763384478 11.7013115308109
Zr 6.533266352772795 5.6641939628367695 12.147022347303128
Zr 7.580101598389992 7.97049577552297 13.166768895203447
