46
Energy = -340.16561552 eV
Zr 11.150141362336095 2.9508946262034867 6.125984520043228
Zr 8.70786231699988 2.5897794441582667 4.556941860133908
Zr 10.660492597414317 4.8498310419672945 3.8401236914946817
Zr 8.817446618274314 2.113626931390724 7.560939736403148
Zr 6.3110267415623165 3.253491021681495 6.468573618223692
Zr 12.077407785029276 5.56604914185395 6.90893121148571
Zr 10.650376481736927 4.054505494821469 8.880735124489858
Zr 8.34669033259522 4.245841376052904 2.224710584082268
Zr 8.97446528858087 4.907866084613666 6.4968271595060445
Zr 5.926282400302986 3.7421743734265336 3.77682251981022
Zr 4.877017962892329 3.459513663671604 8.938502638501365
Zr 10.458458273203473 7.517732994009691 4.899000092994644
Zr 5.691825860106466 5.989377503559462 7.432220678259294
Zr 7.673640234667809 4.454754817526481 9.14478028824414
Zr 12.076107149502526 7.031577585732849 9.753923453301327
Zr 3.449582883114572 4.2107996204960445 6.6226906261375404
Zr 9.75195830276601 7.078007805001022 8.544687486675707
Zr 12.26265726646353 8.316654545849072 7.061907639954163
Zr 6.073523773624746 5.843142217818216 1.8169436619909471
Zr 8.93332794149642 7.11332647199734 1.94752169324697
Zr 7.597816954815912 6.373793064406206 4.349129383891827
Zr 8.599213672034136 6.082750857848383 11.294159326768197
Zr 11.228239473960869 9.828159826940102 9.105178797599235
Zr 10.374153371517986 10.463675825823023 6.347436771951173
Zr 9.187043845592964 8.86539440410408 11.141588011750587
Zr 6.08633132660414 8.40210425925612 2.5959739503936694
Zr 4.544004783675063 6.374082346751538 4.601245262735333
Zr 5.51469298501468 5.558357294193173 11.032813879695594
Zr 8.144906809116215 8.511400161883785 6.735097745070969
Zr 6.8530914013781485 7.840845379166697 9.520309889620014
Zr 8.551921304691712 9.46623839779054 3.9385218320030377
Zr 3.033728407567538 5.753997854988425 9.238687927989234
Zr 7.607555888097583 11.393155624287141 6.0931495493466326
Zr 6.577950325787112 7.969017110994724 12.396763933173593
Zr 1.7025877463480419 6.592526569711661 6.584867052864012
Zr 8.602256430423944 10.861454990792396 8.871479029787725
Zr 5.728479485086259 9.227807456652384 5.228345991732989
Zr 3.826863280424382 8.390289389116731 7.429973350004259
Zr 2.8835638903501333 8.760791427923387 4.557191294228919
Zr 4.103519255845751 8.356169081729165 10.635043226617793
Zr 6.412544442730631 10.397666040543246 11.0054848950489
Zr 5.747790097931081 10.591468642525973 8.180297086480463
Zr 1.4319888795410014 8.160075449558125 9.185448466441231
Zr 1.1801521050100758 9.573421756561439 6.785664706294934
Zr 3.5925910781139865 11.121749257149075 6.164723112781729
Zr 2.833522257561902 10.707318575744857 9.018661739566639
