43
Energy = -317.67771766 eV
Zr 11.44539586948316 9.149219593430713 8.197510168279297
Zr 11.7899254889669 7.290190815914948 6.246343133308285
Zr 9.826454284516952 9.605827067541469 5.704554589587775
Zr 9.173647552575366 8.409392093928735 2.900442061959538
Zr 11.680851980674445 6.380252981371693 9.18879070237037
Zr 9.598402903926639 11.371724598589124 8.644395045134624
Zr 7.705446890612548 11.70438925508221 6.062749594507726
Zr 11.031141925836371 4.704905360665054 6.68454236764881
Zr 8.150003478604374 10.836796764907628 3.3208715946972944
Zr 9.182712643727282 6.776115031503748 7.933792544225253
Zr 9.2382241752065 6.361672876899824 4.912701630927005
Zr 9.88918686493519 8.797951320782657 10.470537921748862
Zr 7.038477351643245 8.597390585689666 5.055065526360101
Zr 6.007765811924586 8.892513053894902 2.348492422848165
Zr 9.639986682855392 3.9032623783170544 9.19940448805459
Zr 7.671191801213639 10.744471028121229 10.82505444503578
Zr 6.623007432993478 12.093906680372422 8.644942927078564
Zr 9.077769815798625 5.8920620469301355 11.149162485258433
Zr 8.222689966448952 3.7831500690943964 6.635565068463824
Zr 7.3685348928968075 6.212969806583442 2.2584460736046794
Zr 8.456662354531403 3.781746373958738 3.712636802113881
Zr 7.7073289691165465 9.36669310303954 8.115926424761327
Zr 5.457191061738011 11.07527412481837 4.1687259886334065
Zr 6.731072573874525 5.2812524477021805 9.094337189808586
Zr 6.184813864853115 5.511916221779132 12.122391187912003
Zr 5.868640313459129 3.8323724623027484 2.4234348742825893
Zr 7.537969674997693 3.3103778993664155 11.192438804735447
Zr 6.25700131680073 2.294186665254475 4.864028727265655
Zr 6.973335271457448 7.991575020032971 11.003139586851722
Zr 6.203523133221275 5.403624168978074 5.077542966383274
Zr 6.90307242995689 2.2733050238116266 8.674696948874104
Zr 4.861238043757531 10.450861080412263 6.905112361722405
Zr 4.373982523346063 6.338794870700035 2.8836806364989704
Zr 4.982198821782235 9.7997895491449 9.73523272707595
Zr 5.351961760016693 7.410859268578059 7.493164671792845
Zr 4.672763351857721 3.701612273984178 10.267900213570673
Zr 3.8392725527158635 8.68530969524857 4.7451056208716125
Zr 3.780990638657689 3.6741792853575315 4.28581708810063
Zr 4.768583546879299 3.6008725824263492 7.138534455883426
Zr 4.170244314904288 6.919140719135466 10.45635620418514
Zr 3.051495025762402 6.045505375187247 5.680541049589741
Zr 2.7868733656989595 8.365319242239341 7.87000538990809
Zr 3.0277733430367957 5.458455861799383 8.440481717381878
