49
Energy = -360.17608296 eV
Zr 3.0213201384754083 6.322337773979548 9.731580237103266
Zr 4.468347704269277 3.894946171181442 9.342084504946994
Zr 4.667366023187748 5.804913191243658 12.045124881974068
Zr 2.728346865494014 8.288184621079852 7.768536554530164
Zr 2.905892497966276 5.029003112254295 6.9626241203702754
Zr 4.8363405907298525 2.7625466069825406 6.442750962917512
Zr 3.6406147970680496 4.164305009157564 3.8164208404987554
Zr 3.4470198689295026 7.202990338528416 5.018886294669281
Zr 6.89297933552418 3.4425940668269526 10.889490782714812
Zr 4.494351988710519 8.870575069344827 10.441046213321078
Zr 3.6932694034053255 9.992290395082165 5.620000554087595
Zr 6.67822365615382 6.577048392556809 10.236884649454092
Zr 7.509107517060921 5.592898628177606 12.879725128959718
Zr 7.555991131189825 4.399262231781669 7.901279051368172
Zr 3.6075573182282934 11.02667343389799 8.32234612853061
Zr 6.461932736350172 8.26384450599184 12.67869644146437
Zr 5.264330043351567 6.454820295548234 7.58694452401973
Zr 9.198210303314541 2.3771768515186684 8.955845020172116
Zr 6.025753134957473 5.226122468819723 4.973827816266961
Zr 6.067942269135796 2.442379448477412 3.824856273070433
Zr 7.783482162241732 1.9964731145742363 6.072624310211321
Zr 6.407663406197089 1.6638895447397122 8.625163928171531
Zr 4.495093396654745 6.639307147681844 2.419804790856554
Zr 5.763148451451549 11.756021077838307 9.624322748113608
Zr 7.79736466535615 9.76179872382909 10.455224865893943
Zr 6.457744413419964 8.281307141190812 5.236145071373888
Zr 6.1742205693992025 4.493778575678938 2.0529662421736377
Zr 10.238853697219676 3.2862382864929094 6.293299453600869
Zr 9.364216035047336 4.818796333288123 10.782211913239395
Zr 8.68589255294152 7.52770301329625 8.575159474786888
Zr 5.112918421366276 9.394101360953952 3.1027691978725205
Zr 9.236744874958681 7.613422982111601 11.715720578078088
Zr 8.51295226464323 11.804637045898033 8.408538758808428
Zr 8.81972006236447 6.352531069685037 6.031468064021963
Zr 7.344785753929666 7.1847196165119 2.5264539793390277
Zr 10.788307445125284 5.376449071265621 8.187164915906985
Zr 8.73671069448765 4.316764593579415 3.8360704418027796
Zr 6.191987709817265 11.358538991899715 5.969563729410669
Zr 5.995272624279481 9.325541729235937 7.992479409574512
Zr 8.900180648941056 9.673272850488493 6.370251556668723
Zr 10.525017997656418 9.67566643282047 9.218166662824142
Zr 11.398104042825562 5.494454979198842 5.1240537530829195
Zr 8.047218523451741 10.240172829857167 3.4729409143266796
Zr 9.875034499012969 7.798864040488772 3.8035563823688565
Zr 11.311135328364799 8.103733597284034 6.583615135969085
Zr 8.993449086284535 12.473420017261867 5.438111267808084
Zr 11.27418097065297 11.37009099353955 7.042233772712466
Zr 11.00603360521621 10.4328640863997 4.352535867231123
Zr 11.500139683553689 13.254485113790825 4.704377040997278
