5
Energy = -25.17009473 eV
Zr 7.9858671567538355 5.215325955334878 6.322899697395158
Zr 7.9858671567538355 7.430473439455435 6.322899697395158
Zr 5.433160528618114 8.52457844 6.322899697395158
Zr 4.776443114831615 6.322899697395158 6.322899697395158
Zr 5.433160528618114 4.121220954790315 6.322899697395158
