5
Energy = -29.46257357 eV
Zr 5.420108556477269 5.587602228018911 3.3338287674017852
Zr 4.917544371926962 5.541521815399553 6.104134321183896
Zr 2.8543890462405734 5.782847020408634 4.182215978935624
Zr 6.992113570935527 4.03856680284401 4.877989763008547
Zr 4.250671664343122 3.332779635301407 4.537671282425297
