51
Energy = -378.24476698 eV
Zr 2.0290392723005874 3.8277686055190703 10.119197045161357
Zr 0.5687763429458282 5.469232073832119 8.434798446142874
Zr 1.7708040140601646 6.786898307563771 10.9189013576129
Zr 2.6663606535206106 3.593491029873845 7.283773808119392
Zr 4.010153710211038 4.852875969514508 11.672054421878386
Zr 1.8307689462349792 6.214536779852142 6.025109148142303
Zr 4.793291414672716 3.079340867398784 9.41240079683199
Zr 1.4202733408101738 8.263989167431987 8.058708934683725
Zr 4.433279557340181 5.167769435327546 5.571766691509508
Zr 3.4878794671460094 6.218485297169319 8.733505065349073
Zr 6.357346407014756 2.9959853145222684 6.38235697925425
Zr 4.4299122391286945 11.155169651921339 4.791858285290163
Zr 3.5542812654343425 9.250368443099532 9.666652791037153
Zr 4.093379599876655 8.259721142570285 6.431844718578472
Zr 4.893580235426399 7.4278560542450265 11.464931415007833
Zr 6.932019909555869 5.052630060444561 11.0540830146841
Zr 6.759330992971061 6.897091085039865 5.81493328486789
Zr 6.148680541693629 5.414707151063299 8.271460083863628
Zr 4.844974547177089 7.192438934995439 3.5687577228332876
Zr 8.054474343593432 3.121870123456916 9.115884404882294
Zr 3.5407880843132036 11.179672896187315 7.539020919323109
Zr 8.449367683554822 2.338258957574083 4.217653994123696
Zr 9.096740640210466 1.653876351516111 6.777369642539155
Zr 6.71617039783825 4.545571423565363 3.608023662282273
Zr 6.293811211252085 8.288687797646064 9.141308201725485
Zr 5.588519996331991 13.023385635515291 6.88470054702158
Zr 10.178203980296551 4.976739788360619 10.698460171684795
Zr 10.870642450190017 3.224595335130573 8.240076028051593
Zr 6.355367603369459 10.203753643216833 6.778880333373303
Zr 7.684896510374907 6.88424881338291 2.1645808163363816
Zr 5.899252145987855 11.523794772539357 9.445938125629699
Zr 9.730051502047441 4.599005504791387 2.8649303329034588
Zr 6.7430177807018055 9.342866773788412 3.866894112681844
Zr 11.245461484976024 3.152924404372169 5.175609769820895
Zr 8.500211211492566 7.5704131834926915 10.97573279132383
Zr 8.975978800141899 4.618916910649456 6.025404333736728
Zr 9.036481057410073 5.958191821548345 8.509389659456625
Zr 9.439822035510218 7.3933340272631565 4.59878502648028
Zr 7.228175431150611 12.173741996111518 4.688336550497897
Zr 8.794565982688923 8.632980323781704 7.567388727001278
Zr 8.378159816917933 12.234897959795628 7.657203482890945
Zr 11.823350493451832 5.583809406723312 7.302341491447082
Zr 10.65665802401619 7.071176066743641 1.859680200097741
Zr 9.532602585582234 10.452122354488893 5.262661630084362
Zr 9.205853024464618 9.509123994355347 2.3797792602185086
Zr 8.740429027228302 10.395726458236666 10.011769243959206
Zr 12.098747822890653 6.066301386273261 4.276423402283368
Zr 10.987791522539077 8.162148684647331 9.653095113576754
Zr 11.575386042974454 8.289888937828183 6.546102481210673
Zr 11.766208724886589 9.033040422886979 3.661244365624176
Zr 10.858934068223958 10.696271631631278 8.049460852752206
