54
Energy = -400.21245214 eV
Zr 2.900896541555004 5.553457196145884 8.889621563508745
Zr 5.560614364765226 4.1205677418194995 8.370434871296707
Zr 1.5873289728652942 8.105548188712573 9.519472777074839
Zr 6.856131123316317 3.4947851913289525 5.824797073920332
Zr 7.74514221335172 1.7428715941043738 7.789856329699337
Zr 3.0515955795070435 6.947734661015562 11.543661347406763
Zr 4.404794952274808 4.185077620756551 11.141543041984074
Zr 4.257142846179733 5.968337731949343 6.095897658160898
Zr 3.334324222189079 7.141851552045756 3.593189524926508
Zr 5.268056238131095 5.976352077028735 13.16944010358496
Zr 7.08524595389601 2.2838665355695085 10.317740582478413
Zr 1.875095267182527 7.546322164483449 6.809431772349461
Zr 2.24247726902011 10.268532282857889 7.9712324092473406
Zr 4.555629914252843 8.282120268827601 8.143929743922845
Zr 7.134651679700066 6.405343383665792 6.7133908418756025
Zr 9.774819301767673 2.9641387096312157 5.987418010147912
Zr 4.150518484110234 9.768307343334751 2.6226124950354257
Zr 3.6158339259379697 9.915891927379143 10.586150685932154
Zr 7.405810228739493 4.4912739284328245 11.902289449927034
Zr 5.8372239378491395 5.403896694867096 3.5056305275022233
Zr 5.255187398849339 8.714490168710638 12.501736484585635
Zr 10.403622427701045 2.5779168026318287 8.993272572719782
Zr 8.73173553799732 5.014530605053993 4.131149785917154
Zr 5.86501957648746 6.651946962654142 10.223965031017233
Zr 3.543088901219201 9.57351520007368 5.516969829684836
Zr 5.285163920210576 7.520757404421638 1.5176003657427355
Zr 8.404433938459746 4.505174542928961 8.833361635905028
Zr 4.973410874843081 11.360088751937745 7.817502507449796
Zr 7.832285587221699 7.361707503440604 12.490531820413631
Zr 6.93394708763646 9.76145762954972 10.321826838410459
Zr 10.127612948079369 5.953702980202484 11.198979710394525
Zr 6.028074108247425 8.224811597899665 4.487193228069908
Zr 12.134957848163387 5.093339373978416 9.393801916646058
Zr 8.028725133204704 7.081571641880625 1.8534593872854142
Zr 12.384165756985867 3.624460692298425 7.082356835934213
Zr 8.7405022354702 7.6466067695106 9.129394514141005
Zr 10.287850060125008 6.030737493004723 7.041154422659446
Zr 11.796171475665965 5.018647063996853 4.616674838138733
Zr 9.01172981357679 7.888905791002121 4.701757255876172
Zr 10.7401115477212 6.57736023830828 2.4050500898922245
Zr 7.455495362126839 9.868739314225847 7.093600597941071
Zr 7.133910944539717 12.874006066214106 6.288507632959565
Zr 5.86514823844507 11.238478513752245 4.5171107304641795
Zr 7.595309539977549 12.345084528143692 9.005092271260574
Zr 9.935014497273144 8.893221214302633 11.57463375246395
Zr 11.740373732443354 7.956603792623747 9.365138529804913
Zr 13.138532112464112 6.458724542432219 6.961244983677594
Zr 7.1223630613253395 9.863578352172501 2.0777774434555556
Zr 8.786840587490566 10.953054580878398 4.550943682289919
Zr 12.001753767144692 7.931612186113376 4.576208575966306
Zr 9.835419079514168 10.513106768093438 9.286697913691745
Zr 10.079331005030374 9.289163793467223 2.333172692682868
Zr 10.575409351707227 9.217753403312214 6.848582858110327
Zr 9.74211333027453 12.228716435841832 7.000159484376922
