5
Energy = -27.28976481 eV
Zr 5.703679584970573 9.561753998631325 8.16923587851849
Zr 8.356850659486136 9.209979074412583 7.942918856046206
Zr 8.82766428642937 6.422752085262086 8.098702569344526
Zr 10.778605051114013 8.074468098231266 7.774321270879596
Zr 6.494124945804865 7.114345028546682 8.352656216194328
