50
Energy = -370.27067567 eV
Zr 12.926327473276375 8.980738699704169 8.222011456443113
Zr 11.82185071234618 7.0716530648559495 6.046362911071984
Zr 12.83035187283822 6.180543311532906 8.853993785249116
Zr 10.832240871387546 9.924668176555283 6.555758645165393
Zr 9.47623532847878 7.421724063386721 3.034400950171552
Zr 12.088178825540428 8.141001798453718 10.846753027714243
Zr 8.440286044693433 4.567058079029097 2.2352098221859187
Zr 9.75437598672625 4.983408184905165 4.925739085952481
Zr 9.108406256391012 10.572801340775472 4.329075229400694
Zr 10.612185847663671 10.48259981991852 9.510814219833904
Zr 10.639009439542782 4.624128363540522 7.909148402775298
Zr 10.270313849357397 7.615873970077325 8.494474562367857
Zr 8.754110029002147 7.768329823833392 5.872383209136174
Zr 7.17463549749742 6.952304382257676 1.207038605604462
Zr 9.126617095579412 2.534758074823003 6.606711656615522
Zr 8.57736728190154 11.69432715327109 7.073525796229258
Zr 10.467734377919005 5.603694507566761 10.758659312203514
Zr 6.881048810209983 9.249960401818738 3.112204875895265
Zr 6.933545434302694 6.2307144970453825 4.093406169458453
Zr 6.871730433790803 3.2927393555603284 4.6380848411620095
Zr 5.521507844325552 4.662364660652737 2.029284790867275
Zr 7.5968842863238315 5.019781175109847 7.033261744106689
Zr 9.23400194409377 8.470015542722376 11.374616662280399
Zr 6.68663514150614 11.986293483664813 4.758805719143662
Zr 7.811643092338819 9.29423430592941 8.730591362404546
Zr 4.431481155882349 7.505275509592645 2.190036991299974
Zr 6.467125362234613 8.608604688506318 11.740767542542317
Zr 6.376037566955916 2.0557822970961324 7.387684568499592
Zr 6.3845334828232705 9.524110644847747 6.174127747539275
Zr 8.474151122208394 3.4199482568989423 9.499945078091294
Zr 4.265168966915452 10.189144524112672 4.089195730456031
Zr 7.471524064671768 11.21757979012709 10.484633729612428
Zr 5.764504901088992 11.793716833009011 7.772310494316978
Zr 7.602848759697821 6.446007897958458 9.567968944765612
Zr 4.682268021537876 7.5303687073948815 5.14349396908133
Zr 4.711292356750664 4.593378150142429 6.653230510436203
Zr 4.080796874065415 2.195371234650282 5.273856844704215
Zr 7.4558076523933074 5.682717359401083 12.06911240920069
Zr 3.3384983925764806 5.190232615652761 4.0719150829793005
Zr 4.953524795910895 7.115317556756856 8.139241108681931
Zr 2.088878578787882 8.06260726648124 4.168864073937985
Zr 5.564476761980063 4.072884356333718 9.722356808555542
Zr 3.6152360358812237 2.284878126263355 8.211736296154832
Zr 3.235657183269335 9.479140422106624 6.874417319322496
Zr 4.805873646541904 9.718426192729053 9.679247708137385
Zr 1.8986058686978662 3.7250846432118823 6.40414428459776
Zr 4.56485844275858 6.592904661848552 10.989460606021764
Zr 1.9882388946212828 6.631181577059998 6.68880429229358
Zr 2.6985343699649067 4.949183829039064 9.095594184782788
Zr 2.398705487325338 7.936161074548887 9.31166190032297
