50
Energy = -369.89179942 eV
Zr 11.177622763433384 9.120761740953379 9.897533787473353
Zr 8.726603021885305 11.514792995857661 9.056820261709941
Zr 12.451364898823474 8.245270110618186 6.450465224807507
Zr 8.041767017465366 9.082399463669374 10.574349074544742
Zr 6.323576054322099 12.650745290161854 7.664462256292465
Zr 11.440296977030568 6.305049154722058 8.483091065566898
Zr 8.383314986337073 11.413554136145368 5.876367852645073
Zr 9.827066945860015 6.829164957132979 10.716997829983686
Zr 5.798370879598629 11.104920282805086 10.234289320763427
Zr 9.748053798394126 9.015365186924514 7.574794076566529
Zr 10.015928392308698 6.631152265871883 5.763716850873595
Zr 6.859308371027196 9.767251618229103 7.806974273362403
Zr 3.0267837293463797 10.078938242362016 10.39582620995071
Zr 4.6853376982693 8.261604543360273 12.18010519550812
Zr 5.440082859393171 11.196254599542533 5.220132187868893
Zr 3.705602413722368 11.333278222183061 7.902189492916738
Zr 7.082709881479518 6.124442951164119 11.080486612429612
Zr 7.533293789674186 8.501813250216552 5.140020964913565
Zr 9.091415288635886 4.221983980975474 9.38028307079811
Zr 12.648827334162082 5.347513044936352 5.8851373686233
Zr 7.548974976542923 10.04905573038214 2.9561827914000904
Zr 10.405767439232326 9.407610045020814 4.44739338253558
Zr 12.138862747060081 7.144292371777436 3.706359325067756
Zr 5.108166251230541 7.956970727459377 9.573465398131003
Zr 7.975417346856565 6.7267243461628485 8.082184516425821
Zr 4.44345383361446 8.54560102983939 6.876157311693311
Zr 4.133863013942079 5.327645224981866 10.932879895142666
Zr 9.326915426001682 7.200990651502421 2.703292189530715
Zr 2.2366157196402794 7.4160801043134486 10.58136370535602
Zr 5.662763074945493 5.169935668244351 8.613950298833329
Zr 10.352559497796358 3.635798476122784 6.6093575641978095
Zr 6.5637913972850646 2.5600280670853257 9.728252735495811
Zr 2.589543073033964 10.136720484574244 5.389462863027523
Zr 10.61738442773851 4.524339702703224 3.727339159867417
Zr 1.7358503996211516 8.779947027276974 7.939997401181344
Zr 5.46580496053223 6.269850281584062 5.761170759803722
Zr 7.264549884541632 3.8244159570095584 6.920180875182085
Zr 7.767700678390433 5.122770275225663 4.446847194276408
Zr 8.654437483280178 1.5129174784964297 7.8995252086006404
Zr 4.61706101211207 8.560074060116214 3.797821343100421
Zr 6.600526803631362 7.141569565089755 2.2820980248105918
Zr 2.836668383933867 5.843657913370515 8.060801051713833
Zr 3.861225757946195 2.9088496241052413 8.710281068078176
Zr 2.5001307491440943 7.079567161448142 5.3420108874882315
Zr 8.432844414334319 2.0536548737315234 4.844497610349747
Zr 7.5501360936986 4.21283875897185 2.0206562289929817
Zr 3.8855385518606163 3.743401784047116 5.960840430487207
Zr 4.755243670887526 5.175431211084646 3.101289661975282
Zr 5.847026429391606 1.3558239838081994 6.912840940704261
Zr 5.8057834178704395 2.6761195042403942 4.144043770687392
