52
Energy = -384.33668798 eV
Zr 12.07292686956705 8.468325274900653 6.868616148419566
Zr 11.465041929404162 6.307154798654252 9.55396736968527
Zr 11.21699945316646 7.162943013027439 4.607286965852063
Zr 10.228153494706516 12.662511483751327 5.09570270108445
Zr 10.687054283281576 9.147804891329171 9.579036713400058
Zr 11.580843842936776 10.071762178621245 4.285078649554698
Zr 11.174540912538014 5.238771851244575 6.97166318979555
Zr 11.059279736904212 2.9764346126606114 8.693095638555002
Zr 10.59544176324388 4.431869082821665 11.83818677039394
Zr 11.243097461834799 11.2623024219959 7.310258112240937
Zr 10.075727118362863 7.301613337322006 12.081760119838066
Zr 10.117913898339802 12.092657774438946 9.765284145863026
Zr 9.02525970267484 9.847373684872297 5.502295261937486
Zr 10.409062954898001 1.7432032386862937 10.962266948214506
Zr 8.95669637645583 3.190946775411686 6.604255856041328
Zr 9.244240748570503 11.272755893685034 2.8781935063876243
Zr 9.20533990268418 7.388871642947606 7.274251857021663
Zr 8.994180216475387 8.171503278491926 2.8935359781090493
Zr 7.874815784214586 5.355780678812213 12.552776702291471
Zr 9.03208910198372 5.5057063461412215 4.893001774693427
Zr 7.295533967864155 12.418810400828361 4.911705721100857
Zr 8.053613621517963 2.7312937497797143 11.828155204584224
Zr 8.489399593778797 12.994673879606307 7.4820319697640665
Zr 8.710009951680824 4.752502779759629 9.420060978574202
Zr 7.976456981223287 10.193021973657137 8.5196493677556
Zr 8.254461208431815 1.7387497029272965 9.034960540296431
Zr 6.459473854960444 5.774441925923972 7.449441621194969
Zr 8.720873521524645 10.24682428078818 11.545715683748988
Zr 7.265480650629455 12.534812878055444 10.173582126612251
Zr 5.497276807655366 11.815056251727203 7.961900216916397
Zr 8.013381626675452 7.685434815087524 10.023775409837347
Zr 5.915861132826361 3.6602976308223862 10.203591542828343
Zr 7.453224708221501 5.40875501166366 2.4766419037403367
Zr 6.591382500083077 7.247407441604927 4.760125701737005
Zr 7.159618165210655 8.040803449900487 12.83179311756922
Zr 5.6201416327872495 6.460252540245389 10.658033544950243
Zr 6.621375518184126 10.140860239354357 3.214537441288552
Zr 6.512076561308809 3.769229785673177 4.742669468680282
Zr 3.6071828911539274 5.716122536647874 8.69208197036705
Zr 5.036116950930879 8.468657464320843 8.351063000188532
Zr 5.944327351610946 9.864928194053027 5.968024882415735
Zr 5.842271728518383 9.848969857801656 10.848978822950752
Zr 5.999387489253876 2.7936991177727375 7.430806432233447
Zr 3.2069430677175714 10.625502394908871 9.477985418795946
Zr 6.083853099114246 7.669643310076806 1.811316846193654
Zr 3.244984165766113 8.091975620954283 10.794993175216739
Zr 4.066951141400902 8.655739322836167 3.666022093345154
Zr 4.53502041236539 5.612125833388817 3.3813034827380832
Zr 3.484712218930877 7.223053522373871 5.942446439643162
Zr 4.033491275186281 4.397908269951373 6.015088188741749
Zr 3.1017294072964834 10.263741462344647 6.523837985339554
Zr 1.9784071313259628 8.27484860545048 8.247976355095764
