52
Energy = -385.09940016 eV
Zr 13.975913658895955 5.200567374568738 10.702649481633351
Zr 13.9397811261986 7.743593471519201 9.203303142038452
Zr 13.325924532283146 4.983924252345842 7.936970158835099
Zr 12.818741862362359 7.5246825230417675 12.069300784278292
Zr 12.445071638953877 10.03970041950032 7.63306326247523
Zr 12.408935598597703 7.278754085364245 6.733246423769664
Zr 11.666984147392021 4.8226632626664685 12.306343286049804
Zr 11.624065817250413 9.306747285683894 4.787239690533992
Zr 11.765415047182238 3.3894330566384734 9.698441267015856
Zr 11.334036540929844 9.53706194506083 10.472479551245687
Zr 10.767610391221215 12.036491502509447 5.7861476585335305
Zr 10.313618231000914 11.154718194830622 3.0343838365882108
Zr 9.98497060585562 5.207558326828996 7.63206246857028
Zr 11.333930410943687 6.453806769174357 9.736461756367301
Zr 9.898525211348145 9.985550091091964 13.16494901139248
Zr 9.188123806361153 4.252444173716174 10.658183072213266
Zr 9.885078068781366 6.745933038562132 5.0148936489241365
Zr 9.81656534078581 8.542021317278977 7.776974378677164
Zr 9.90251062129517 11.492677242355178 8.573455835734578
Zr 7.6519483988063275 8.43116838812552 13.56686474109063
Zr 9.723688526161821 8.459009088093044 2.726520965311136
Zr 8.479408425656029 12.880413048679449 4.052869815182611
Zr 9.832462707556605 7.155428673372567 12.189336736622424
Zr 8.489280159952063 9.939052173505747 5.247378732391027
Zr 9.722891202235338 12.037983433948902 11.453567394398572
Zr 9.101718315366611 2.689701634430838 7.974783047121348
Zr 7.048188483152772 10.457930094986928 7.74500237709
Zr 7.376526041423586 10.435323710808985 2.6418242702913184
Zr 8.136503321028895 9.572779446752065 10.526609454944918
Zr 7.0749729767444025 11.178046556735097 12.689882231814423
Zr 7.849835352934054 6.76236273043236 9.540455004394367
Zr 6.999184121792191 5.881691809173663 12.202554450982563
Zr 7.33030017924198 12.627841891496402 9.956770766322071
Zr 7.323885598759988 7.388316065314462 3.727101687069723
Zr 7.361950299901839 4.499848155735025 6.045442267507562
Zr 8.09681979908647 13.22575313267135 6.830233015562318
Zr 7.110819806259418 7.3372178998193425 6.664623755320614
Zr 4.982609665391858 8.0765758414715 8.722049790042368
Zr 5.477010445230786 8.450046001565712 11.889028026375641
Zr 6.798119088618266 4.086904039756068 8.950946633926794
Zr 5.34148547608479 12.93368454212627 7.809559386210527
Zr 5.029402179998156 6.047405226547883 4.83903951435042
Zr 5.954395475118647 12.074832599035494 4.99748869490757
Zr 4.875378909298668 10.778191773646345 9.992980666518918
Zr 4.563660645829632 5.6891099735811865 10.61498746647009
Zr 4.160653982277337 10.464894470305707 6.889430970725034
Zr 4.617195108043972 5.1266719856620515 7.510889791141408
Zr 5.35307204159907 9.109258551611711 4.71095927288306
Zr 2.367566041804753 6.433665474777254 8.82981508292426
Zr 2.9360542759828423 8.226809746423358 10.97899771955861
Zr 3.0965760104840943 7.566412700615193 6.278538615851226
Zr 2.2495249139363693 9.375848441942388 8.57579279674588
