51
Energy = -378.50583339 eV
Zr 9.324058836823573 5.040764810186275 12.151359222763325
Zr 7.285260360076895 3.8017526667320336 10.123934210102233
Zr 10.416588196435308 3.304061457725892 10.289450284200248
Zr 6.9265335799188845 6.422170117262676 11.626811287876253
Zr 11.785372082775124 6.02709919533055 10.663492402169146
Zr 4.315447275334879 4.957161292947152 9.69428048680171
Zr 5.31461426941425 2.7235595774309918 7.903691029789976
Zr 9.546254909182263 7.95929615182092 11.823554166447703
Zr 9.126453222526015 2.7821532587276527 7.885408708166938
Zr 2.6975931735728746 3.7567306423785736 7.5679875383953865
Zr 9.32793628083076 5.85842784228075 9.308364223834023
Zr 11.646004709190116 4.479115544201866 7.775477623772031
Zr 6.547701965725587 6.813033479468258 8.828458518448445
Zr 6.851734715494479 9.292972627563284 10.79150700509241
Zr 11.73461341268596 9.139509024001432 9.912680860495323
Zr 4.389503150389172 3.3427166772239145 5.166430223524676
Zr 1.7842962982630488 6.437208263454351 8.318388842017171
Zr 7.149854477703054 2.2444967942207072 5.121286160449286
Zr 3.9285320331477154 8.082019460782405 9.639136431239203
Zr 4.6311906863280985 5.873366080517936 6.699002782885474
Zr 12.35362731851802 7.130386897952504 7.951984709132623
Zr 6.926302104745508 5.157386718622691 4.305304346865743
Zr 9.867900643937087 3.928709995622341 5.2834992859714305
Zr 7.2909286470974894 4.6570350217034955 7.03196110859005
Zr 9.41734518585841 10.71786987021814 10.999599079984433
Zr 9.466180487864607 6.891723975076885 6.417236396589181
Zr 11.832989079025575 6.47667898075002 5.094091722696872
Zr 6.239239441002876 9.292859157578015 7.7235967349013634
Zr 9.086457099970094 8.950286013386652 8.633208711728914
Zr 10.51593149379685 11.528657610363322 8.510509846585096
Zr 8.570004709348641 3.298370358418394 2.6711302369853445
Zr 1.9203044498276185 5.6079059230265385 5.375027483347836
Zr 1.5468124470449793 9.442337622928987 8.42572328205913
Zr 9.438305455171108 6.202993507190434 3.1592635583500965
Zr 4.468163633991109 6.341147480831732 3.4520944168886136
Zr 0.6011713898074061 8.133622733608448 6.118173236494966
Zr 11.514523162152306 9.41995796138559 6.6925686209821755
Zr 7.547563954547478 11.582793916564947 8.844267113703747
Zr 6.800951128645545 8.03994883769037 5.240627957197207
Zr 3.603539572241125 8.423346693999394 6.52715280066126
Zr 7.02595052152225 5.327586242069984 1.386107433400579
Zr 5.665891906564992 3.1433958685241414 2.5901037791023835
Zr 3.946531841608073 10.921339420742331 8.41841081927664
Zr 9.599802198303875 8.883390822173522 4.112608110675165
Zr 7.01017522379226 8.009627675531373 2.3801537766838643
Zr 8.7499153729785 10.760415236324425 6.21643141217528
Zr 2.2047089749174176 8.139182836479 3.843999761408522
Zr 5.36524297307107 11.441564522307344 5.898340443440959
Zr 2.2840843188859807 10.680262276874537 5.640184078367439
Zr 4.547825390179302 9.71021213917177 3.6297164926477796
Zr 7.252631510283925 10.621380003196286 3.7611542697333853
