55
Energy = -409.79187489 eV
Zr 2.6001777662749324 5.764613086634806 4.814041719425966
Zr 12.943577692968741 8.590303668498859 7.405966588484336
Zr 9.512910642759262 4.551885135049884 9.382117741105526
Zr 5.2999338972853725 2.0653857558539617 6.7633368375908915
Zr 10.461266840167239 8.376847155876694 8.921514533738753
Zr 5.799820582516913 5.289981791297149 12.013226948692845
Zr 7.774938413141252 7.303053435965881 4.534833014243955
Zr 7.4348761159763805 10.12106414700698 11.694047758365272
Zr 9.999124371298896 3.630195872032523 6.63476332706424
Zr 5.095737315515023 6.675592253252502 6.117154260194907
Zr 4.863883599860423 6.458742626719349 3.0199793519752403
Zr 6.428424587957251 5.0406351293778195 8.970471279245674
Zr 2.755141825880684 8.62453217004621 9.94523679604079
Zr 2.3796588408870054 7.298828044614343 7.332562676552168
Zr 3.5221326190353226 5.842036841581386 9.919392199305708
Zr 7.168717667194105 11.825522237944568 4.66489566392205
Zr 4.3103108649430375 11.32146402415598 4.826565190836543
Zr 11.697382551862653 9.551616497952272 4.615304240211218
Zr 5.590854789482701 12.260574383127201 7.359016513163224
Zr 7.815121933045328 2.1829268513416595 8.171134604036663
Zr 9.287552121807849 9.448258493092576 6.143428706805146
Zr 7.398837740468084 2.9163236107765305 10.955651620252805
Zr 4.970460965804967 2.717690092259702 9.538277414054411
Zr 7.725425819023357 9.914173073972506 8.783550299728743
Zr 12.105449073015407 5.829628542187939 8.524081790424832
Zr 10.956228128390585 6.659648131753107 5.907540545973101
Zr 4.8361902730825905 10.762311788683755 9.912554285690437
Zr 8.069343032981752 7.2140161923203445 10.561186859750947
Zr 8.288518271613194 6.814721046129819 7.4551350212604754
Zr 8.638618966433393 4.854136013905456 12.43266031302634
Zr 5.124639084642427 8.180725261781669 11.763883859142538
Zr 5.361368235345227 7.917621856563223 8.889286237393696
Zr 13.073815657257562 7.831056061310668 10.341508274083635
Zr 11.35388667346211 11.274100708874412 7.34293998289061
Zr 10.142657096283909 11.934814894533405 4.7358677124772806
Zr 10.388829993413678 9.07693804663304 11.781894672644437
Zr 9.88487304851235 11.581320791171226 9.93165007911357
Zr 8.588031496346948 12.545323043459359 7.222361730121239
Zr 5.794112001383429 9.392166427611528 3.1310860798416074
Zr 7.0847680375064614 4.525994628395842 6.069670547200609
Zr 7.151503874869474 12.541409096374629 9.886755526826791
Zr 6.9531542942553966 4.428680995502923 2.959346744787255
Zr 3.5873669711110514 4.37413876873181 7.297005610807257
Zr 10.962542364368215 6.222813783235455 11.251970436957379
Zr 9.518104799627404 4.722314934501811 4.035140466023058
Zr 8.89446432548403 9.867360810404127 3.0438003837837377
Zr 7.614399902513168 7.441040889504343 13.291862037753752
Zr 7.7545689283967265 7.180628399632592 1.8916584307545765
Zr 6.073560169944286 9.470901526286326 6.2575977882777964
Zr 12.531839148611908 10.399108937964973 9.830408123302838
Zr 10.492987897716834 7.412500761916685 3.1025910870469358
Zr 3.240613394386064 10.127855901938348 7.385330619287116
Zr 4.549401791267594 3.7365341229754168 4.480953616374372
Zr 7.810228922070967 2.195392143610714 5.038511773905367
Zr 3.2616895003830475 8.636574033507358 4.641314997873023
