51
Energy = -377.08202011 eV
Zr 11.897425112413266 4.661279693250025 5.519876929060864
Zr 10.079933904468913 2.49045115434161 6.262199062207933
Zr 11.843646762765292 7.137121026645548 4.173322660266397
Zr 12.843212368288999 6.847085416907684 7.166322832666357
Zr 7.60417912372614 2.788170388859579 4.749025080244491
Zr 12.247991252446699 9.392689199877443 6.129974144470532
Zr 9.604255696513334 2.2840655916078956 9.078353549610675
Zr 9.493991333983105 4.8968592394373545 4.101453786976326
Zr 11.445348493985797 4.40139451148168 8.248780007037016
Zr 5.27947494469726 3.3062657826799104 3.1910735219848205
Zr 8.793806936128334 7.571595525104928 3.2983602641224787
Zr 9.941226304917887 7.131597512732408 6.473945390475387
Zr 7.187658330995315 1.8475479899811014 7.756680015759149
Zr 11.513628052687167 6.705627919533781 9.97067312497753
Zr 6.85891207486094 5.371121570946337 2.252589091091839
Zr 10.485316281666815 9.624114489247766 4.09732815628003
Zr 10.104711046719235 4.4233253830306065 10.84614528997912
Zr 10.897438406677336 9.075979474122699 8.631775995543503
Zr 9.686377599668791 10.951785124685781 6.566510320379676
Zr 8.217656289735503 4.504301544988575 7.297575325875122
Zr 7.368612304226384 3.6453738587059923 10.41311531926686
Zr 6.654668303309145 5.901643085625733 5.155457888845136
Zr 8.387212457815728 6.694105703574552 9.348449939495048
Zr 4.1566766469140095 5.765278779618362 3.524656491856186
Zr 5.989068291602233 8.127728316301209 3.0737885273944436
Zr 7.321420369569701 8.823468736660402 6.033206102152103
Zr 8.206924857887735 6.050463209357007 12.182652774768052
Zr 5.237992168444661 3.3375384065454896 6.099272291750991
Zr 9.610394822313124 8.797517663878144 11.254420901217816
Zr 7.835670845873288 9.818067187960462 8.936755220202656
Zr 10.07152642352247 11.512587448131026 9.840829324650414
Zr 7.892241006892056 10.614154767085083 3.823033743011228
Zr 5.020760154120648 10.489793202531896 4.716689242027039
Zr 4.0999390996969725 7.862386946222254 5.45666498917446
Zr 3.2699478461225446 5.246792390208242 6.733899623204656
Zr 4.867106879660412 3.709495353439728 8.930396730201844
Zr 7.975545633420479 11.083039677555778 11.799283198960755
Zr 5.520890527266847 6.739120496988757 8.178004054539217
Zr 6.86338918915905 11.895197509799747 6.520179237569936
Zr 4.980941228168382 9.977921685591495 7.904215179934091
Zr 5.3922962672284624 5.682839666636975 11.203857063055745
Zr 6.625969793424384 8.44101405615416 11.363518637594353
Zr 7.483019405023295 12.834399899960061 9.623750021245048
Zr 5.274388326345488 11.199056066917986 10.912338701278307
Zr 3.788258795507335 12.495455170759177 6.44761993201372
Zr 2.3220726352912444 10.180218757827411 6.092373944088019
Zr 2.5996576740887236 8.011063068876002 7.970125365592091
Zr 2.957566708611257 5.703295270773083 9.626686577741408
Zr 4.857205003481933 13.025883779955691 8.790469481906111
Zr 3.963858769944144 8.379229518927435 10.410828388198135
Zr 2.5983469405999107 11.125534724120174 8.899937407089036
