55
Energy = -408.54042484 eV
Zr 2.0899316577734064 4.770101859701081 8.958753753110532
Zr 9.04417671718444 7.240168373757013 4.939763287082985
Zr 7.221443858255318 2.6068814683538792 9.851968461351225
Zr 4.295423312275235 4.801203555172975 3.1663112521321946
Zr 9.256079384035427 7.326201077321311 7.900328707156877
Zr 7.19397802756666 7.705063959174684 0.5384173118241145
Zr 4.197662829813871 4.890388984006684 6.723271950728381
Zr 1.991057199806146 4.45684240289844 4.631404436869095
Zr 6.3654346016284995 7.39274937331345 3.361214943963018
Zr 7.104433865365292 5.1495016194991035 11.521319007171275
Zr 4.519284857156812 5.409772048727627 10.197100748439645
Zr 6.558324177001355 7.610492889131161 6.4700569554553455
Zr 3.502490835255303 9.702364382150684 3.1697086971178887
Zr 1.4432993796800888 9.141158774798399 5.044290660923778
Zr 6.595190143275436 7.630254105524115 9.628530013143068
Zr 3.8616651938700297 10.506024132378336 6.298388126110503
Zr 6.866739914019051 4.855734290704488 1.714489224402305
Zr 11.624393885180641 5.92725594272529 3.8169278563825975
Zr 9.453412568457344 3.9533231131299593 3.2620441769028914
Zr 6.781302477606692 4.851955872267908 4.8628906594796835
Zr 12.139476645162038 6.557366822268398 6.557855804241744
Zr 9.337175092689357 4.776657092998962 6.432923736664398
Zr 6.8266944220381465 4.97445817257848 8.26407670146323
Zr 1.9338220942893538 7.035610731606728 3.0950457260327076
Zr 9.409261879412124 4.852190801820585 10.031479612690228
Zr 5.915385798975587 9.863270788359848 1.7438605249473513
Zr 1.777071091195056 7.634110969296334 9.769623350499716
Zr 8.621262955177205 9.378902483286565 2.8279956864137863
Zr 6.246451055393265 10.168075811440204 4.7067195960017925
Zr 4.088210377616195 8.200846002394503 11.445634142640351
Zr 8.914861235133898 10.11762083318719 6.21855313051802
Zr 6.451257076282697 10.275560178478704 7.935444198157033
Zr 6.391939871253227 7.5823503128773355 12.76520422997658
Zr 4.123159915551145 2.367316545769673 5.1481124328833765
Zr 11.592341041379326 3.496621378903979 5.557996919663616
Zr 11.483556443507075 7.329713146853935 9.586650458195386
Zr 4.347281864521494 2.707202547040344 8.61932853037713
Zr 11.672719384555846 4.478345527902642 8.407318269572206
Zr 8.939280617141907 7.581538335526462 11.442304909432911
Zr 4.283910112605795 7.409073228864177 1.3034484032249747
Zr 11.319999746206594 8.80563655957516 4.684796043507074
Zr 1.5076259188506917 9.497260015578952 7.72779970491182
Zr 3.887082084040941 7.377315817411658 5.0790646114899305
Zr 1.867595977279865 2.943511802735628 6.903217810645732
Zr 3.8017999432722935 10.239099280038173 9.445358376637614
Zr 3.9408402057190632 7.6337669935262165 7.967891696478046
Zr 1.1952267101873093 6.593725104079912 6.682034615628326
Zr 6.470803091647826 10.01151455956129 11.175206337998207
Zr 9.089673128555482 1.8945116197176202 5.226218924786935
Zr 6.690667176619861 2.3403709864271978 3.6050047275083457
Zr 9.099939952823862 9.765667621705882 9.41683085187817
Zr 9.571051167177165 2.404695034333541 8.123883907400128
Zr 6.729399405080205 2.212629242780162 6.814165830093674
Zr 11.425157124285764 9.353328838248599 7.529913443374245
Zr 9.280324259972634 6.550726338894281 2.0398862751249425
