51
Energy = -378.3753534 eV
Zr 12.036485202148134 5.836365318610886 5.935839264904545
Zr 12.638429372891608 8.99753149984742 6.341090464943319
Zr 12.205285635957916 6.838342977108301 8.73866259986176
Zr 10.829257140291174 9.658309394457838 8.997436010617147
Zr 10.566621189781678 10.59408904921214 4.1584117194145716
Zr 10.286855066375335 7.680888623104396 10.872124379818557
Zr 11.788944954067244 7.87375385189056 3.6821565437659496
Zr 10.787303431058762 11.44517502596884 6.767529729202995
Zr 10.582281289802294 4.906688781945335 10.570822556838795
Zr 11.26199438190945 3.9196666544963503 8.070695859636484
Zr 10.153875021338305 8.198988901309098 6.090712745408164
Zr 9.928762687049401 5.714846071671172 3.7903807297773855
Zr 7.9612302301604005 10.102450501509933 5.8993425874658065
Zr 7.864586423700826 10.978454229456773 2.9292492100123546
Zr 8.58998056053864 11.805532406463811 8.628898167625616
Zr 8.288207007413398 9.893775600887437 10.996172648180103
Zr 7.830130110129575 8.51480220982152 8.67217123895157
Zr 8.428245495179223 12.7654276309699 5.23582845519393
Zr 7.707737044592302 6.288271282027559 10.94733370915057
Zr 8.309162926270368 3.4418099108464744 8.895658338492316
Zr 8.82307863112268 8.239355565239258 3.14812768579304
Zr 9.320583659793016 6.127567044552036 8.228903554513144
Zr 9.212673567381263 4.114519259218614 5.8909094128921655
Zr 7.875987137822076 1.497788867126477 6.651255024428545
Zr 7.286440224254913 2.477110443702591 3.965747689707024
Zr 6.82889658973829 5.426755538865672 3.3765584986512733
Zr 7.497218987207549 6.987994830433458 5.836436645040478
Zr 6.057252645510994 5.645048501543523 8.640670171068496
Zr 5.960637228636188 10.970624380697355 9.461146555751373
Zr 5.838038714441865 8.711724818261397 3.8381523263757966
Zr 6.212459300143601 3.954425144312258 6.2434804014799
Zr 5.640993471038693 11.542793520360956 4.624820171114258
Zr 5.49473339266869 2.0363044295651744 8.507720229420404
Zr 4.776396918649804 6.229750793241322 5.225479807056359
Zr 6.111492209183439 12.431575342460851 7.119419595187532
Zr 5.29386533104015 9.261450303778336 6.918278027275111
Zr 6.154871751740188 3.630986492772611 10.911391154543177
Zr 5.138626942509792 1.3135167650012451 5.626493456570276
Zr 5.09993637431711 8.36398376205224 10.016992307967536
Zr 3.7665797758440474 6.53833233763879 2.8301380964449363
Zr 4.697373719363104 5.910861502518504 11.431252270799721
Zr 4.375389007913628 3.550289356055019 3.8095611727322307
Zr 3.550104682753531 6.663940615820287 7.624870107509853
Zr 3.3955159172982423 4.0050870494217 9.665253963544824
Zr 2.8700917622946682 8.585605539562362 5.206515745098993
Zr 3.2250385879457926 3.362868341169347 6.673243841684914
Zr 2.795149603422445 9.492778393104008 8.326347264375283
Zr 1.827669926106119 5.675210421975706 5.176340914512149
Zr 2.1504241012710277 6.913494171854169 10.042965658348047
Zr 1.1357599384212285 4.9305379480406115 8.038051770501069
Zr 0.8468345603367857 7.619064240646001 7.301862298383503
