50
Energy = -370.46846322 eV
Zr 12.23506908365079 6.086930428374956 3.8318069327614737
Zr 10.0096167993213 5.217261473541901 2.2304873584281943
Zr 10.739238045624274 3.8448627220476834 4.735887455828849
Zr 10.530838722271433 8.225445705146067 2.537530870363332
Zr 11.598994305778628 6.137309472137338 6.802264322134817
Zr 12.377765767064384 8.640753465157585 5.081317042711511
Zr 8.491005509835139 2.445978759301546 9.035142799121264
Zr 11.54441108638553 8.749908976899627 8.117106010290694
Zr 11.532916153668918 11.161900416412141 6.541952409625302
Zr 9.433519440638868 6.524338965302474 4.7554194159865695
Zr 10.788563919916433 10.795975914603934 3.7980773562891703
Zr 9.349723238227433 5.05845308132541 10.003730153795734
Zr 9.060070034982411 4.447883156472513 6.952524031785467
Zr 7.670724972745981 7.004404133016096 2.2991705794402537
Zr 7.6611580552048535 4.2077269296854825 4.200927258357805
Zr 5.604241569582887 2.04862942199666 8.903462826690486
Zr 7.303993226808382 1.9870948248104234 6.34986756140003
Zr 6.895482294961391 3.6424529350873667 11.078829027726877
Zr 8.016504090837783 9.772939627587451 3.378300466831327
Zr 9.488427658889064 9.134730041601227 5.969204860639884
Zr 8.807918609838932 7.289852520062712 8.10867907328596
Zr 9.242733565704814 8.632931030804588 10.764030910309502
Zr 8.7737267215756 11.91154595632471 5.561182606044725
Zr 6.721314294055939 5.052673782766387 8.51161705428462
Zr 9.239527964749762 10.76163451435985 8.477178028367202
Zr 4.476810087337501 1.2732567301848043 6.268615917621746
Zr 5.154401680131781 4.269725771106897 6.26196608805107
Zr 5.374135954886613 2.3845679946904395 3.8953823646332713
Zr 6.688694509975798 9.154618670896127 9.263894339415387
Zr 5.287382361815184 8.37539413667994 3.3069500905929954
Zr 7.832843222749025 11.289826362049228 11.051131774276824
Zr 7.001243851200952 6.549765055014341 11.058310700626746
Zr 6.598736362222739 10.147617265190522 6.27832299391683
Zr 6.4324823329414205 7.040071247402164 5.6596450766821675
Zr 5.071094965645488 5.301244098464252 3.3290283603133664
Zr 6.494727272984743 12.086426139543494 8.631841597992434
Zr 6.736992580754615 9.079919905136023 12.331138314718872
Zr 4.2306275332309635 4.86968485495616 9.87430685163701
Zr 2.904393976678019 2.8667049149749655 7.945001873129425
Zr 2.7762670281230024 3.3825318064493053 4.965208557850895
Zr 4.448650442866512 7.583834851346556 8.177111224214777
Zr 4.828280597816349 10.803308365756338 10.913609561700378
Zr 2.4923585670232935 5.524608430593933 7.206980911161762
Zr 3.9050975626138764 9.51010180086243 5.468706706862883
Zr 4.218160151069595 7.788714600990864 11.454167726329407
Zr 3.2765463635547385 6.839459638572367 4.878565480774883
Zr 3.959771866210673 10.83760896727318 7.954788822709067
Zr 1.9521453210494017 6.764118737640487 9.719461364242392
Zr 1.7891001409162002 8.555716119341017 7.284405844111747
Zr 2.469456290712099 9.480086250669313 9.960814396972077
