50
Energy = -370.8861024 eV
Zr 11.879163276556543 2.8584271879191467 6.0459333923042475
Zr 9.994819088349056 1.212950883327924 7.152768257927789
Zr 11.11403133942529 3.458442070601501 8.877814886149038
Zr 12.659214620150992 5.437958667038189 7.166138488035066
Zr 9.487614636318575 2.4013481114999293 4.368520347811909
Zr 11.420727375949339 6.155754973500047 9.890795989526024
Zr 11.109586689288852 5.119058710795795 4.455938624432199
Zr 8.249357493276475 2.3416546633065685 9.181282192797926
Zr 9.050099870182544 3.992834661786903 6.647958881936983
Zr 7.253790319813226 1.5036095659846247 6.534451368509733
Zr 8.44914907536513 5.285566851831595 9.544280364157245
Zr 12.354415333303804 8.25987718363792 8.239037723752759
Zr 12.112883647578629 7.858911323891077 5.417811127141918
Zr 10.009824740507655 6.820127662974885 7.27435618900245
Zr 8.391174360689142 5.08407718507614 3.4371025595177267
Zr 3.7145040335344732 3.742254881522375 9.436113687380528
Zr 6.216443494792649 3.8891633361527447 4.938543341630929
Zr 5.811374706615227 4.971136688639397 11.261505242750445
Zr 6.161375615612562 3.929465416750173 7.866410992317776
Zr 9.730803464664065 8.65989983560349 9.717431058616125
Zr 9.48164109759011 7.7743871108422296 4.173991880111914
Zr 7.770594976573151 7.147154478513224 11.476644200938308
Zr 7.342628030302421 6.4199859690275 6.163788596377568
Zr 10.070944012357392 9.767616204646883 6.748659544814933
Zr 3.3425255890875087 3.5212034266974674 6.433014976924709
Zr 4.999039660009213 6.4121129296657555 8.970286161772627
Zr 9.429483869579864 10.841939979641017 3.9655647376503094
Zr 7.324585777623735 9.866457475954428 11.187449651360717
Zr 7.053975841256565 8.370552025422581 8.607906904789472
Zr 4.952996678751396 8.10748471616632 11.5054967972152
Zr 5.975369389241464 6.935876994355383 3.622566263168096
Zr 2.966130817267605 6.007465504006513 10.972397228797314
Zr 3.6502261683343757 4.8115578362271165 3.614093224728788
Zr 7.778035682118508 11.246801111659547 8.641593134245616
Zr 7.595482306184984 9.366120887118187 2.458744142420285
Zr 4.291435469591334 6.206998401496106 6.102002960832132
Zr 1.8702499664175818 5.73018238767576 8.152030840766724
Zr 7.327656279677133 9.480862152627854 5.517093763725405
Zr 1.5036263228495637 5.558954781576261 5.255577689190816
Zr 8.363218311431671 12.275639334290158 6.095891520617256
Zr 4.944479566209818 10.56054076948355 9.542044148532772
Zr 2.835032791984945 8.470071512322365 9.13000409427199
Zr 4.647551599615572 9.005326465937861 6.444048435632302
Zr 4.9370974885271135 9.56267187550213 2.8707654891000374
Zr 2.968634893398682 7.823098331496241 3.8881828151751474
Zr 6.391308765893887 11.848932502013513 3.9492251753970478
Zr 1.7018719361529002 8.390641232632962 6.356517606588446
Zr 5.4643079798887735 12.028224607982725 6.89050795790103
Zr 2.751446442363408 10.957900637547754 7.558898005075047
Zr 3.444681720816509 11.06906348925241 4.759292879270181
