54
Energy = -401.1120235 eV
Zr 9.01966626232595 2.5906735051542222 8.81496721861973
Zr 11.552473605758413 4.3255712964664355 9.07647873588525
Zr 5.768567097672477 4.798391659667947 11.75316373093096
Zr 11.242359848017983 2.142261408566268 7.149160238265806
Zr 4.331359872564143 2.902372730084759 9.819889639324552
Zr 9.266887425018902 6.159446760310079 9.60836209794202
Zr 6.364141222750183 1.8672180889774246 7.496447457215312
Zr 2.8043637424655286 4.426636958660325 11.69982579862344
Zr 6.772922474410338 4.4112473849867655 8.957413065707332
Zr 8.699199291622099 1.4598249833831645 5.849608791710719
Zr 12.779520877783002 4.3836509759461695 6.444999874607184
Zr 6.370383111542102 7.493518003199865 10.284596607683847
Zr 9.78738659177323 4.846484043726506 6.776162646670795
Zr 3.9588152905454774 6.954291966561632 12.280568606194352
Zr 11.737951247146718 7.068258416258629 7.531466948248838
Zr 11.15602787889702 8.649041069029641 9.945394425476037
Zr 4.177981372588117 5.9329050440942614 9.390277665875807
Zr 1.8372481512165846 4.1528842400524155 8.956134055893138
Zr 8.611443011118725 8.913094030055431 11.309602003453872
Zr 4.2923913445199 3.9931736711367964 6.980113909065962
Zr 10.791868044084035 3.059192111250338 4.40990288980506
Zr 5.876017002322895 1.9107812883621806 4.652313094202947
Zr 6.586981332414602 6.671688311884937 7.349143734477317
Zr 7.171473441367882 4.225853223338006 5.602609251003415
Zr 1.518133456299538 6.759021620299879 10.385187537757934
Zr 8.13560474503042 2.580311230119078 3.160540939671548
Zr 3.54972592900794 8.965235311101345 10.375402243787269
Zr 8.640438594203571 8.754822300839939 8.378608371193074
Zr 6.485486205713004 10.583363019237927 9.370850367239054
Zr 2.0543077674246804 6.586631195914544 7.326383871794875
Zr 6.00905670226682 4.865810840530543 2.9408683825417548
Zr 4.336192465536374 6.606582814261293 5.192906558084645
Zr 11.538345344536548 6.108112182055549 4.454358389500491
Zr 9.131591155447117 5.319246186286956 3.1585222216405193
Zr 9.59318571010737 11.120502958327421 9.768467391728018
Zr 11.096990801175831 10.310866281744048 7.301734338547158
Zr 12.042930719764025 8.914972037310289 4.9307991250281535
Zr 7.023345974417243 7.215958157324986 4.345975891982162
Zr 9.520644913514632 7.739465312809828 5.749402052581208
Zr 3.4647861300118437 11.42784562855318 8.953560486853998
Zr 4.429738565413668 8.96782582450085 7.3918404294375994
Zr 1.5110081600400271 9.346733085477949 8.21606617394012
Zr 7.235182124128027 9.735136818281346 5.934427381865214
Zr 9.886719535931814 8.357868709845917 2.795609366278159
Zr 2.109054345765701 8.643007957582064 5.315528884390726
Zr 7.533774503759678 7.09111954340417 1.4473092960158866
Zr 4.906484864820037 7.726251499511685 2.3740992294328276
Zr 5.44987697453755 11.933720357840619 6.935087233588082
Zr 8.570030998471966 12.030295251053404 7.156520847296813
Zr 9.732597695718143 10.857290935503235 4.528061173513152
Zr 2.657595028308054 11.262787464569485 6.19254240764402
Zr 4.737290406296822 9.840943788848747 4.469116667634968
Zr 7.335023607099328 9.855984482388521 2.63845026818785
Zr 6.988336258558913 12.14475380742191 4.446761817627482
