53
Energy = -394.05712625 eV
Zr 4.986549338849232 3.066975069767144 3.5759416653347063
Zr 4.096708892560252 5.194908535358857 1.8158134327363296
Zr 2.4294634179031225 4.715792844412532 4.200476065546549
Zr 6.949543135984763 4.939873026337424 2.1739148333055187
Zr 7.518727828821871 2.087468475092789 7.192122139801735
Zr 7.572821477636181 3.9666951116646576 4.9317807593962355
Zr 4.785353125194882 3.3986216579936412 6.546126736117994
Zr 9.775272832517976 5.306035368862887 3.585369544969635
Zr 10.161793843027107 3.909117791604119 7.201364970005053
Zr 8.697203978184273 2.9516858507719954 9.826398094318025
Zr 5.081467132783108 5.7968048911576515 4.565961293954103
Zr 5.6628155473513235 7.725992310526612 1.8700648055205216
Zr 2.8063064553958763 7.59115165026958 2.8712735876396454
Zr 5.799051302582865 2.6833572576471716 9.322783367148384
Zr 1.6548210943216486 7.193910001574038 5.675106887785951
Zr 8.529826385456472 7.333988021173214 1.738675059241736
Zr 2.2095349028437994 4.633243758368639 7.212211075805996
Zr 9.592191084688826 6.623692674666372 6.358961080514436
Zr 10.488360715854682 8.094710154262625 3.8064495922374717
Zr 7.550762979372533 7.288769239788805 4.5885921665596525
Zr 9.55927203394767 5.953885274804465 9.526922983415146
Zr 7.136708675251731 4.960018342787581 7.589948782715496
Zr 11.471049992364486 3.882724004547403 9.997538366853252
Zr 4.361993105433391 6.744558174902268 7.254598949133728
Zr 12.140329591411575 5.9386935985904845 5.25199151831342
Zr 4.16902040691095 5.091124490374804 9.554612367126364
Zr 12.29550541017979 6.163454538658954 8.132337982873834
Zr 7.563960461930565 9.830169693563082 2.925605361370155
Zr 1.9722784924790497 9.839359947884033 4.503222330552074
Zr 1.8571167094834893 6.91720724817184 8.739639433117524
Zr 6.702246713590378 4.311570379959452 11.69104510332861
Zr 12.06740219793733 8.703744921416497 6.50594000503677
Zr 4.774563723533347 8.848164211087003 5.025086276638768
Zr 9.191422022793528 9.896878418435442 5.676822414224937
Zr 6.662168738365051 8.629737510021792 7.488368636804063
Zr 4.485819470205268 10.50658490825575 2.8915677897052277
Zr 9.575874206102252 4.89257966558928 12.180486095008979
Zr 12.007210426781835 6.3811311130235975 11.19398840081165
Zr 4.79943772117236 6.536578279162421 12.068132931757683
Zr 6.725937653205524 6.664061242355724 9.853179125797416
Zr 9.408945402629532 8.693275009364038 8.481085382846924
Zr 2.599857455643879 9.517810632291937 7.413012580972135
Zr 12.119860388304167 8.865656883300558 9.62146805819729
Zr 3.7291565574520975 11.659464507235585 5.543623528923744
Zr 6.569594668703961 11.370160951075693 5.303821515973465
Zr 10.986545007096053 11.062856237347903 7.80688949477551
Zr 8.014093326618532 11.322476769997266 8.147979771207972
Zr 4.260285028727221 8.453691197226904 9.758331333685502
Zr 7.450729333942175 7.053242432876675 12.742086234806058
Zr 9.903692167564483 8.246719543638731 11.766674948821592
Zr 5.035447703370081 11.083702366646822 8.02247854253467
Zr 7.175663658138921 9.540276770526683 10.49229450503171
Zr 9.94098660554824 10.79883187269374 10.447077407425944
