54
Energy = -399.24989899 eV
Zr 10.859305912785873 11.949663030772665 8.240357195373504
Zr 9.4223285770432 10.696100231799361 10.41997595847452
Zr 10.844648843554461 8.926120644060921 8.412900436576024
Zr 8.36765916353437 13.044106186641121 9.063955076173052
Zr 10.732400499250522 7.20892329342063 10.875735722548516
Zr 12.054266462855592 5.965568207644963 8.656290500744317
Zr 8.958088771294213 8.648685229247013 12.856810194970437
Zr 8.558248074323847 5.878405878942382 12.18126565312851
Zr 11.249529605940856 10.364249619121825 5.791993504786886
Zr 10.168135897893993 4.238406639932998 10.287103210260739
Zr 11.189655374082317 3.4903711472361594 7.574477631040347
Zr 9.216073332891701 13.099830982820967 6.119930273166867
Zr 6.004591270295037 10.893399480831844 9.244534229786824
Zr 11.882074749844474 7.4317325127747536 6.164713652678856
Zr 8.24906388296695 10.556562881047101 7.184173500136747
Zr 6.730952096216443 10.307872212884089 12.019245970755305
Zr 7.897561757415477 8.459869526710113 10.02594479361287
Zr 9.141196217160676 6.343129441692694 8.184155445450351
Zr 9.546283063862234 1.6535276757511974 9.078656910915901
Zr 7.167022828214717 3.075965698689807 10.40332729384392
Zr 6.392558456566299 13.045308492718437 7.184659776046188
Zr 9.907762290259127 5.399252687670767 5.402807044550513
Zr 9.377751759698825 10.828434270046342 3.730085672800915
Zr 6.334076289807868 7.487435376521927 12.678304333052738
Zr 11.033277365851406 8.167581098336328 3.4756224976276937
Zr 6.565800091947896 5.998649629477152 9.906214995937564
Zr 9.034282418521919 8.184992934080553 5.500547504381851
Zr 6.060373826017992 8.171786374020689 7.575877847166432
Zr 4.324489456972299 4.537441122946439 10.905336332002163
Zr 4.796511910347081 8.498905562702994 10.492831530477792
Zr 3.6460450094084043 6.4854734682775526 8.584992966281552
Zr 8.28719075001673 3.481546043878253 7.335980599841077
Zr 4.852278583111326 10.65917884296701 6.1754800367467615
Zr 8.234139595610285 3.445100970270343 4.194571670325869
Zr 6.6314511291142715 8.828456861435038 4.265633077119417
Zr 5.418871232057456 4.038526330951837 8.043672090885151
Zr 6.803113529151948 11.920972691959628 4.5715579584820265
Zr 6.731004622277165 5.72297347136886 5.637137267361487
Zr 4.292726863537712 1.9027146603797842 9.864397636012983
Zr 6.4636563224360986 1.2036904217919935 8.186232263457072
Zr 2.4534375195979194 3.8773298031664982 8.5612987957027
Zr 8.865870285955408 8.707611173190967 1.816109629864756
Zr 7.882250363742227 6.144718644780816 2.94497703238182
Zr 3.101851396284318 9.328893862718035 8.13332314936082
Zr 1.4723291014206072 6.748904141636176 7.030774827804671
Zr 3.66234323876829 8.072290620293202 5.547508753038534
Zr 6.027135086353139 2.2363169828681984 5.453458898327721
Zr 4.413120948098176 10.026573421142109 3.0611503422640127
Zr 5.522098148613565 4.102765366991114 3.341466995146834
Zr 3.614048573233502 4.875607744264064 5.779503336022253
Zr 3.6594923400368797 1.8638863923969518 6.977206958607606
Zr 7.001638903882219 10.792017434774307 1.8744942478121898
Zr 6.096762699935523 8.116821707116381 1.358273439395442
Zr 4.641063964555856 6.725322205557164 3.2976009679468965
