52
Energy = -386.37814973 eV
Zr 11.03051588927361 9.739614749035407 8.286789755251135
Zr 11.170561226776224 8.456962526129102 5.176237307192839
Zr 10.940858762827489 7.4345185927679545 2.3823555938742498
Zr 11.851845829078645 5.614115969705291 4.735845017439354
Zr 10.75004768576206 4.631162304296245 2.1187376447470165
Zr 9.28418843043707 11.833686846433894 8.745524778608898
Zr 10.345082004314733 10.253252469524147 3.1295333228119877
Zr 11.153561782279132 7.65064861179747 10.153029883456947
Zr 9.922840080967603 10.090566266073104 11.263187781454118
Zr 8.975893476465746 10.56264660018269 5.942437585466855
Zr 10.353518970437086 6.846261680434949 7.429559999418023
Zr 8.616747106886715 8.984178970439721 1.148970122053975
Zr 8.28723136825243 6.146914861171267 1.369648442432671
Zr 10.483398469063996 2.936549774434118 4.337252195851277
Zr 8.305276310909887 8.226779683836892 3.9953552893661883
Zr 8.248251766429892 9.043282783439535 9.38205617943457
Zr 6.481816820279177 11.270574625465443 7.850864910691251
Zr 8.935031927477239 5.442618446485228 4.522203564052536
Zr 9.071192576107773 6.990503017921276 12.013254181346616
Zr 9.7412285400687 4.053138574837283 7.034456545454749
Zr 7.371866569728436 11.616028957164849 10.699032311421833
Zr 6.008653467621198 10.004491473950981 5.103751026199245
Zr 10.416058393980316 4.860273767364555 10.09041465826362
Zr 8.250573049715111 3.327777690467066 2.438910391558239
Zr 7.498801101448399 10.880724177839133 2.932301655878194
Zr 7.549883595669584 8.007243820927657 6.863646019987173
Zr 8.036309562908128 4.1411387265110156 11.610046269832583
Zr 6.139922534603661 5.15919454245397 3.275318471702664
Zr 7.945374891307909 5.954076208219186 9.288416829337383
Zr 5.832282617588391 8.158985820876572 2.47366346536405
Zr 7.597078222909228 2.793214350603361 5.252436656713402
Zr 5.272456581842667 7.2335265878916015 5.319297253590819
Zr 6.724644838476208 4.904319403457473 6.867466111130527
Zr 4.032128509096926 9.43149277690869 7.223099181321541
Zr 6.809906286593975 9.16831975197657 12.188670968884521
Zr 8.00577634328652 2.9429931627393398 8.956582677553616
Zr 5.507023593716686 7.645625521269011 9.392077726783977
Zr 6.119112480238767 6.243892215048211 12.197496971313484
Zr 4.513999714247318 3.647905460147062 4.9066118302404425
Zr 4.8171331028151405 10.496441555219459 10.226215503725824
Zr 2.9921607556182677 5.9804253367107645 4.013647412477853
Zr 5.468647168624395 4.069952580809006 9.99747088969668
Zr 3.267496842096265 8.989674433428213 4.2569122948623805
Zr 4.624574464303388 2.6477993435908074 7.415190248004236
Zr 3.9731073896198805 5.712477613313515 7.667465474300254
Zr 4.0563271998039685 8.346682249114915 11.930537586397097
Zr 2.55533982137785 8.269031136397045 9.29636871397995
Zr 3.2349649036670476 5.803994101073293 10.82855098923251
Zr 1.8914042502093684 4.2851342208341645 6.287874887117446
Zr 1.7396120383256173 7.40836163644122 6.300605285801357
Zr 2.589452553752741 3.465921572150388 9.145282409549365
Zr 1.126516372253019 5.821153282354182 8.687819778403863
