53
Energy = -393.97871296 eV
Zr 6.381043790477385 7.191547679670858 12.897818153786453
Zr 7.368396656941833 2.200487420162038 9.542672293116716
Zr 4.434117943161181 3.049372045858586 10.24719903154229
Zr 6.510198752042833 4.923954223920145 10.844218110624785
Zr 3.895930812940228 6.622226744035945 11.703452277389744
Zr 8.971283067008594 6.8706565168255835 11.418644762592077
Zr 8.995507158937896 5.085303206996815 9.081925646397599
Zr 7.668307162212099 9.654384039437446 11.964415910723165
Zr 11.134647846206922 7.307968136008718 8.913076913328185
Zr 4.897637201736046 1.1727233935712431 8.18231188483963
Zr 4.7646194506283495 9.472837193025482 11.951859993759262
Zr 10.578212387502818 9.301424005559852 11.302483943409504
Zr 7.128827622055358 1.3251002777308667 6.638705474888462
Zr 5.961543046235542 4.002614577271397 7.79641007751646
Zr 9.028061252462772 3.417373201454886 6.828748575834454
Zr 6.012320903937468 7.735721497536609 9.961452534318582
Zr 3.7929564365032657 5.785229995768482 9.022156927973757
Zr 2.940413712013915 3.3239025411434806 7.735045792194395
Zr 3.1307610533297265 8.870013347602585 9.530470733344632
Zr 11.232774748398196 10.46965219140704 8.815498453779155
Zr 11.881569003402083 4.6985729175521245 6.822544260636928
Zr 12.62286840616779 7.58201567780009 6.3232081056230065
Zr 8.968944288042962 11.597710128346574 10.3505584046225
Zr 8.719000167937068 8.947766170320982 8.977951651349578
Zr 7.13815365838947 6.774408054137978 7.413007894723419
Zr 4.539830665676367 2.329712563489665 5.429554350397052
Zr 9.8445375630592 6.449151517518777 6.180473378686453
Zr 6.192564720875678 10.642406634674355 9.162237894086052
Zr 3.8224063299576563 5.3795917992941655 5.806650818670198
Zr 10.30134899584763 9.410056058950664 6.381747947633101
Zr 8.649223914414776 11.741199664196024 7.505771046810297
Zr 1.6491402223782343 6.901182391736308 7.406587863492799
Zr 6.994491231401238 5.1819011408250235 4.977770547066091
Zr 12.095768693221256 5.851663922111601 4.104999241757642
Zr 9.94724540442565 3.933974877947469 4.160352948623397
Zr 4.344047358186782 8.20987469023374 6.9724692743987475
Zr 7.076169226975574 2.4572870719871447 3.986734061293259
Zr 7.764401070680826 4.459136607927992 2.1366201210540883
Zr 7.020095616869108 9.46562150879159 6.276827681786385
Zr 3.875220313132584 11.308333905746816 7.574905470378605
Zr 8.349270586395969 7.833233949817222 4.150019946355392
Zr 4.8937893474152165 4.445820767949637 3.075590773716475
Zr 1.7532490140327177 9.71231704364355 6.842544952135895
Zr 11.29312601017671 8.605680882111514 3.6649595766492995
Zr 2.2762489968724204 7.7586545212487135 4.731826081390906
Zr 8.889455024088926 10.865354100522392 4.347806328656589
Zr 6.049578487638055 12.01064165232259 5.689573548414808
Zr 9.935923481763496 6.3280585728684215 2.13709585707723
Zr 5.07329709838736 7.509038034427427 3.961817389594018
Zr 3.7455518219083883 10.374864554180443 4.7711143039547315
Zr 6.9214594865476515 7.169537583215928 1.6423278279477695
Zr 9.06228633364049 9.205739319035077 1.7418080496844361
Zr 6.453412769208683 9.96311109175285 3.1962077838038403
