54
Energy = -401.42531523 eV
Zr 9.808901451153542 5.217160798397697 11.191235365429941
Zr 5.493904528515737 4.662607733717936 11.954140154185126
Zr 7.3142239009398216 4.217887652622445 9.602992675230531
Zr 7.4571574494198405 7.012848956178684 11.401563891745708
Zr 10.107177947444615 3.5674753880175207 8.727270238751588
Zr 7.52429436955487 1.862581115239465 7.657849995070611
Zr 10.27158214155042 8.16630899815962 11.093072077473824
Zr 4.459663245827409 7.30582133345955 12.395622748178642
Zr 12.02127505818864 6.127613547228188 9.254766630349918
Zr 7.9766863804823585 9.892761957659628 11.884440139127841
Zr 5.434365731890952 4.25557425746773 7.09646093869158
Zr 10.161921514621314 2.2060142101980187 6.081571432981537
Zr 9.267074765431284 6.478989890024467 8.563686969278308
Zr 12.096604917714826 9.09435389759621 9.174967182391331
Zr 2.753688383762128 5.355569559272755 11.03366065130878
Zr 11.183314713862162 5.09129980051757 6.374550774905097
Zr 5.195624293504305 9.58279016662076 10.626711185983275
Zr 5.1329535632624435 6.472944375573056 9.586791925450795
Zr 6.827164515979571 7.026788744379145 7.074464885846229
Zr 7.568663544944435 9.199849491182194 9.038286652637575
Zr 10.008363542414228 11.015166353390335 9.803666949096346
Zr 7.673135051860753 1.8947107375147887 4.653333597386456
Zr 4.931737249004859 2.1883445716528276 4.926625207104281
Zr 4.264384178142159 3.4599467572981077 9.518923272985091
Zr 12.34833345613224 7.896494251496657 6.719262338962787
Zr 9.311957369272493 3.9228283991502537 3.571729999144697
Zr 7.154990155526591 11.913163491649321 10.045709346506147
Zr 2.669852567741323 8.102786867626934 10.132050512320289
Zr 2.712248035474138 3.5425152381638716 6.191231729875977
Zr 8.361703848020008 4.390184539608547 6.448512740847949
Zr 11.530373263893361 10.939241069864355 6.886010894145972
Zr 2.639162379674062 5.942189835742373 7.9305361704922905
Zr 5.497200047325754 11.294876655205357 7.743502342961899
Zr 7.174464267275013 9.544006520663748 5.533690108429508
Zr 6.51715488114925 5.0180984187506334 4.234388394862619
Zr 8.512933933086355 12.087072334407523 7.413241284948407
Zr 6.2858093603568825 3.1262674243068056 2.2220038060558647
Zr 9.023526692748925 6.879352811900758 4.6861159012710445
Zr 4.3126663063233925 8.7386478588659 7.674520542445512
Zr 4.306160456067106 6.6175737611850005 5.457422233140836
Zr 11.147693052060413 9.150533187647243 4.450370014842458
Zr 9.606169842604656 9.061851388555635 7.075612505608134
Zr 3.4501329856239025 4.194900361633405 3.3433112106521645
Zr 1.45333078473692 5.741819111006915 4.931203762132352
Zr 6.4490260836620585 12.408302334939433 5.318329474755995
Zr 7.9264270844922615 5.878013847683608 1.8091767368911353
Zr 1.9686903986674997 8.297337512361137 5.9546259912358925
Zr 9.322378925103495 11.566235341854256 4.616704006033812
Zr 6.232200286442898 8.01288760574573 3.025651128671397
Zr 4.321842050162186 9.887719700824718 4.818519747036608
Zr 5.06795692690318 5.763756837590441 1.6076777779382356
Zr 8.870069135522856 9.220149270126226 2.831187766009105
Zr 3.0169492038694536 7.413593131218142 3.067181011600706
Zr 6.667451847989742 10.956483915173884 3.0034622020594606
