50
Energy = -369.64581976 eV
Zr 13.000643607280216 6.626240676591344 7.9602457358708945
Zr 12.27429890889871 6.440266034272417 5.097170205584297
Zr 12.268377554769346 8.93947290046179 6.828080883466235
Zr 9.629219756677045 2.0491409193407213 7.110426167098173
Zr 9.606838773021867 10.796355505360909 9.661131289944382
Zr 11.37806417305511 4.406128424355378 7.3811951898600245
Zr 11.501042422401873 5.360607310069307 10.150365105280093
Zr 10.208208289966366 4.125142219434166 4.740803552143758
Zr 10.122250156778204 3.1076462699168 9.942085244882911
Zr 9.02246152324674 8.91089215555729 11.682333262005033
Zr 10.60154097895323 7.906401090123172 9.256288603232367
Zr 11.127042456078563 8.968691437261649 4.34789138664687
Zr 8.606515546692 6.068544571906468 11.121647192180559
Zr 9.65376688565805 7.14137869731063 6.439406023992676
Zr 9.406013904521147 6.58724930752868 3.539890270719142
Zr 9.560185522004891 10.181632838812833 6.781755379909029
Zr 8.4173743003304 1.8936074676181167 4.383455390538266
Zr 6.183112370319358 7.8537803198298635 11.625994109579851
Zr 6.875915639007514 1.2726112400225766 6.711608930094841
Zr 8.588554722155074 5.194791407201938 8.523284377650118
Zr 6.885913393207798 10.797350932621784 10.752285295505294
Zr 7.4488917931306675 4.240139880256023 5.999774374817157
Zr 7.489673670730493 2.4251069402393357 9.185461969911984
Zr 7.63176186320399 4.293851677289562 2.875479844287913
Zr 7.796391331582976 8.354944503269008 9.039318980311464
Zr 4.878238604919886 4.996075853032127 3.1303600655354424
Zr 5.567838473467117 2.5515099494788402 4.440042562370323
Zr 7.580101538690453 12.298740671328192 8.13059701741896
Zr 5.779936125971171 4.854281546090794 10.490063705607158
Zr 5.0807915434846285 3.3437410248222053 7.869280206043406
Zr 5.5860802458777 6.497529787628316 8.281579094638142
Zr 6.515332871873857 7.21879280335732 2.302793975484555
Zr 6.488127281780245 7.0322607597928 5.194768021462138
Zr 7.664914887011768 11.87510688887406 5.148366029548129
Zr 6.463658088385035 9.877991835854104 6.9730435457154725
Zr 8.270172449651481 9.152824503947642 4.13591308882287
Zr 3.594955164663297 6.898065074959862 10.85303252454955
Zr 4.434928385618765 9.40716388335029 9.750335320527551
Zr 3.5944682733470317 7.5095842644447295 3.969015887264885
Zr 4.8753648021170015 12.13110305113763 9.03326582659229
Zr 4.118076243525066 4.978782995654918 5.852912788459824
Zr 2.898609867656953 5.189775917100958 8.767323775872299
Zr 5.57534252283291 9.8914726637829 3.9348704678636626
Zr 4.933733943767621 12.252497910034704 6.143121382085945
Zr 4.011145065418792 8.329011810552123 6.647394981387982
Zr 1.8503700668199057 8.046657493355955 8.76285585812083
Zr 2.6411215093285616 10.870864461560549 7.70481298255429
Zr 1.69798345573465 6.2822464786256225 6.3448028565980685
Zr 3.021798036367095 10.599944546437056 4.750713840709007
Zr 1.213791902895775 8.914342238901035 5.920852449067741
