52
Energy = -386.15706447 eV
Zr 7.457241509217159 4.502560909923501 13.085973043632
Zr 2.245841431556586 7.647739827639772 6.588135071553901
Zr 7.028637415728011 7.280892575132224 12.969017761853905
Zr 5.74568775771855 5.595635635526312 10.948293055996123
Zr 4.082123964891631 6.568675222523226 8.709505940030102
Zr 3.169898376476869 9.795013133910697 8.326808127424238
Zr 7.356497871423066 8.4726372144709 10.183217995639914
Zr 6.221961697945696 10.039948467378068 12.459493491417044
Zr 7.43494999329432 3.2858251166533363 10.282467374182268
Zr 2.8000344798236583 4.9421152564996635 6.404994663845336
Zr 9.767371409808147 3.3623897332160806 12.181237638714995
Zr 3.3453488185210816 6.781180327493605 3.922798484224227
Zr 5.2900170739635115 11.220497255602416 9.999515016551966
Zr 9.978841981197235 6.1633863067858 13.529824117971161
Zr 4.420022086681012 8.431724651834603 10.951630860445201
Zr 5.682961589043225 8.69604260110393 3.4752198166269994
Zr 9.010714635888595 5.98411259913956 10.824719882109838
Zr 11.592013759838748 7.831155384326416 11.344222437732604
Zr 5.8403682019779755 8.924160127586806 7.579392040420928
Zr 7.05402249385119 10.628222302560856 5.147350985162333
Zr 9.163756564616076 9.091844810299445 12.561808861024526
Zr 5.251457236743297 6.5242842085395365 5.951641021106272
Zr 10.371378973323104 3.5773832344241048 9.330029700057615
Zr 8.025032499178884 11.894112529371206 11.21223645062686
Zr 11.885876026080572 5.0108757197022324 11.546894626235723
Zr 5.3406740978401706 3.8864440385009824 7.539160622433926
Zr 3.79850108123204 9.652930575520722 5.3255816515785
Zr 7.409163102217199 5.759703850747081 8.255806834406567
Zr 6.948755618233409 13.424252902540923 8.845346241515616
Zr 12.207324811832153 6.065761484929286 8.940915412902187
Zr 10.543205192429548 10.483270689240689 10.26377796784366
Zr 8.252704850280384 2.9349573353770353 7.471951860347339
Zr 9.886321884456455 7.935025940571218 8.519130980319598
Zr 8.104415311288223 10.785801450825272 8.257592295055339
Zr 4.69184418796591 4.018821134065506 4.487795439183907
Zr 12.6495693012377 9.017894440616889 8.521289174325963
Zr 9.691718529670224 13.166165043922954 9.217523388287514
Zr 5.151418145811027 11.779318217285597 7.141328396033524
Zr 7.957917900698792 7.550884412287433 5.74923146339713
Zr 7.558999878339724 4.516949954883472 5.284316685388282
Zr 10.087206729234952 5.30328595221753 6.790293099466829
Zr 12.21880949103994 7.319883290860248 5.973769449262264
Zr 9.00378514980508 12.741329477989332 6.1919116613411935
Zr 11.59108832555042 11.758416153750316 7.744897529995865
Zr 9.350521508705793 11.410675178728408 3.452677835617264
Zr 10.03968599107538 9.754660628394731 5.910238957549892
Zr 6.452916620722962 6.122780189048472 3.18788027042555
Zr 13.171196653570503 10.000658997446404 5.917307363359407
Zr 10.107407164138962 6.613632387571257 4.071674433361322
Zr 8.593989393195852 8.713532874705406 3.0350694707382035
Zr 11.662208829483236 12.056848474728271 4.8415407987064825
Zr 11.621626284530697 9.278435054273116 3.51178865893417
