5
Energy = -25.23670253 eV
Zr 9.834217346844696 7.628571054245489 8.596207779499418
Zr 8.650587967287043 10.13167158383637 8.323039448222888
Zr 8.40166734522263 8.769495622131613 10.649290384648305
Zr 11.370554845144717 5.947554324953294 7.523461060630659
Zr 7.327340663363581 11.175254378639115 10.382744938057089
