51
Energy = -376.413172 eV
Zr 12.120982785920516 4.622916666242034 3.6204363572001306
Zr 11.78582943945321 7.286213312568483 4.5199867267793845
Zr 12.896326294923403 4.839867707829363 6.421337338044586
Zr 12.07578180215785 9.894431215145008 5.5188261688951785
Zr 11.933744760483533 7.696317135703269 7.376149222757819
Zr 10.426559320445978 10.666092818254839 7.80905562276811
Zr 11.4142640465752 5.384112936111881 9.207498414120293
Zr 11.310368512995895 2.8683486533589133 7.874941909770816
Zr 9.761122103048674 8.119647945043633 9.304688827191413
Zr 9.47684123924109 5.896317322761842 11.114000587411603
Zr 11.063530186436799 2.7130237855717336 5.1669594812953665
Zr 9.596148440551845 5.623261374998622 3.365692598481204
Zr 9.207095279293757 8.40696119343569 6.143328807633977
Zr 9.79031268913454 11.138296054952558 4.926946531996535
Zr 10.015948902862196 5.351254790641673 6.43772387022228
Zr 6.840329619544821 9.13074953827045 8.150255384816276
Zr 7.925151688074674 11.885773820524914 7.076148675193517
Zr 9.101453681693034 3.4785473101400024 9.58476450080708
Zr 8.539791769850725 2.5087950603032505 6.782674415944996
Zr 7.496372252313068 6.080637248101783 8.478325201589172
Zr 8.652877664298408 8.246325943826626 3.353975598882979
Zr 8.235970549657045 10.762790694196573 10.080529886813737
Zr 7.4168152721605685 7.940658754472183 11.039574449952601
Zr 6.902653534208954 4.8214096300980644 11.204898648539423
Zr 8.218264224204356 3.065688231460704 3.8918601092996536
Zr 5.951333060071663 12.064068641802157 8.974828207855602
Zr 6.245461390059435 3.2979255219605075 8.445894972419236
Zr 6.888332474634997 5.0440819193419 5.414685917741311
Zr 6.988263814238539 10.337653501587138 4.588681415224475
Zr 5.0936567175389085 9.935560977784245 10.716709588800464
Zr 6.123705799505426 7.741952369626228 5.3517715469530325
Zr 4.837003570400237 6.969875903134733 10.265114170140949
Zr 6.993262707150105 5.8426429055531335 2.295531173175779
Zr 4.8294053189561374 11.262386532849222 6.324891051420009
Zr 5.666358788121544 2.3042132362358014 5.661907277475254
Zr 4.409918433486697 5.557871565837106 7.230842827256156
Zr 4.304236246918156 4.087983172345075 10.299079538991608
Zr 3.985280131377181 8.368697886390036 7.677850600058966
Zr 5.961969148468958 8.59319123874794 2.3658542252235537
Zr 5.436855307613229 3.580284617201219 3.1155837029110436
Zr 3.3621118368678538 11.276415226049911 8.766124629312841
Zr 4.283648877283892 6.3389616833033084 3.317593856583872
Zr 3.2389766610765243 2.9988419405718694 7.8728140973326175
Zr 2.1746735490611395 8.912885979870465 9.858561896073626
Zr 3.870164340221038 9.371339297900828 4.2182927135130015
Zr 2.1855481101891847 5.757681874098223 9.530675179070448
Zr 3.268723852720585 3.9863708610045077 4.95294891214964
Zr 1.9155460823081627 9.953436825974384 6.665731921167793
Zr 2.1890637141824403 7.1650886570610455 5.163525951090876
Zr 0.8931979418802242 7.496543866502612 7.667717066394807
Zr 1.3664575166751025 4.8692599440384114 6.846038698199391
