52
Energy = -386.31238619 eV
Zr 11.474283320123579 3.5436107750145927 7.919320016874016
Zr 10.866551026319101 9.344433030070904 8.598280201261868
Zr 11.283156438772874 8.279172106773608 11.361100474124653
Zr 11.476783422540842 6.037538496752761 6.3516811691635
Zr 10.347012706741477 9.13577799392905 4.5278446161220165
Zr 9.577626820501214 10.597356603201405 11.099348412763934
Zr 9.17585071471858 10.913964361075537 6.1755810713029025
Zr 10.983859619524576 6.203193673594967 9.243091838858927
Zr 10.422300036895278 3.3597499793460113 5.166752822214751
Zr 9.72501489962766 6.2633540996584305 4.042588215885255
Zr 9.522359556125128 3.591102323072054 10.17716774784433
Zr 9.656448390017054 5.947914172243747 12.320568715759318
Zr 9.091171864569246 1.8969043490887199 7.603673355143954
Zr 8.140582584052105 10.883322286093003 8.80579578809628
Zr 9.006134505722532 7.820149835184548 7.00091364884277
Zr 8.988262411757425 8.513433551892176 2.0697059280275756
Zr 8.929855952155314 8.675753476986465 13.007942138707033
Zr 8.910855273725007 4.835051893877774 7.354210848134359
Zr 7.949817752566674 10.911919310104489 3.4244475299265082
Zr 8.605607167959503 7.9200380288141 10.08826243355183
Zr 7.3675648613555165 8.425453006968933 4.656894831365202
Zr 7.67448590381256 2.201149327284168 5.173889087868135
Zr 6.5814315621200805 9.664832954181598 11.298450711139559
Zr 8.530558453707496 3.605604131679263 2.8917024580535795
Zr 7.6122043176412 3.9997533600604727 12.475889582471048
Zr 7.04112264678429 5.4469871804168575 9.882700136071927
Zr 6.306132861630089 8.793611684035143 8.24101236889654
Zr 6.224380047659702 11.202623075105715 6.181016383019084
Zr 6.599451186354892 2.578277513624879 10.201535320757033
Zr 7.081423172248634 5.08895717250197 5.013351582859146
Zr 7.3634196681387625 6.060519783909077 1.996594793957725
Zr 4.943083651224641 4.637831661968787 11.823860061962687
Zr 6.138145684070723 3.2563231324864237 7.386290357151431
Zr 6.696449046344834 6.872179409608437 12.733677185342811
Zr 5.867844159473978 6.332496946350153 7.2145815682970715
Zr 6.05558506950263 8.806108809702478 1.7302487002908058
Zr 4.735742298933479 10.739465835049781 3.4101355532173456
Zr 4.9596700979385835 6.774284983663291 3.83915596212139
Zr 3.3559714579080753 11.723915037916065 5.900492318986335
Zr 4.037281458849681 10.314834394105397 8.410890431898157
Zr 4.213961446458429 4.4772869480100494 9.08215710888074
Zr 4.6816631347764615 7.352237436767968 10.54513841716684
Zr 5.342964764475574 3.9066839988023094 3.050408176977736
Zr 4.225351869321772 8.875131434252665 5.745703192048906
Zr 3.7738825139085597 4.840406125919895 5.764118041378102
Zr 4.615938112213081 6.129154312383199 1.0213580127930677
Zr 2.940589109103373 8.297277362575151 2.317749223631517
Zr 1.856178329546621 10.096732043141493 4.171167363863613
Zr 3.1082596084265566 7.243743823241162 7.941925686051903
Zr 1.6006432102194372 9.556218061067009 6.935669065296024
Zr 2.6414881719691277 5.319305827592895 2.962654478507903
Zr 1.7063607505905727 7.214292785925997 4.962381638494877
