51
Energy = -377.66663585 eV
Zr 11.812868315922891 2.8715664539192014 5.926642695317561
Zr 4.706640411016165 7.039861643411357 2.2725423758380656
Zr 9.543870689962388 10.683691127867974 4.756836776200539
Zr 9.111312927146571 9.691807758233471 7.7238108803248595
Zr 11.653680235501325 7.5834643975433655 7.308239184956576
Zr 9.42483752670817 6.098714948135815 8.742990153312036
Zr 2.7327373833041984 5.534669013564481 3.9517532385909293
Zr 5.520839141797753 7.272482541972295 4.687996755056668
Zr 6.869147490313643 4.6560633447090085 8.683901894752399
Zr 5.360411223388689 12.581541002557696 5.771565367870393
Zr 9.23437103118014 2.9630914299015703 7.497681081989925
Zr 12.20393938668156 7.459997267491898 4.38694138857675
Zr 4.7120116507613785 10.260710942789773 3.7019810690249546
Zr 2.488555697170196 8.373250435985282 4.72430943880217
Zr 6.089049483537317 3.614966262292207 11.316640251726934
Zr 1.4589909794472253 8.773050810864202 7.567395503996845
Zr 5.611482349739894 2.452582328407159 6.55348791676278
Zr 9.769721682449024 8.444047685224552 10.43008372590069
Zr 7.673038343891397 5.882969714392016 3.0816323016886047
Zr 3.6229711659430963 9.11242293887637 9.895145508301981
Zr 4.299851255416139 8.035114720437866 7.42167398318012
Zr 4.463970682664612 5.299286911839316 6.7658522331185695
Zr 12.358011239122106 4.521941234927476 3.618362885576134
Zr 5.264801144729005 7.8431878438615765 12.276780119681325
Zr 10.364588334364317 5.403471291988394 5.725495881411485
Zr 3.3617031729852527 10.687381219849998 6.468852235257877
Zr 5.668203742872572 10.653926393619184 11.472884584714372
Zr 13.381825214292828 5.4002719309825 6.141535871355562
Zr 7.236083471302516 11.994539401325842 3.8067676458858513
Zr 4.1900862829781635 3.233794411210794 9.039927049108723
Zr 6.70869845864862 9.902365606313133 5.8928139077763255
Zr 7.8572364970279205 9.052264186600691 12.479749550355493
Zr 7.413327987479889 4.603489317590765 5.69802407959717
Zr 8.314868325763955 11.008784833799181 10.338102986228767
Zr 8.100645868415963 12.368673125564285 6.713857032866613
Zr 11.79306709720936 4.641466209522183 8.339713797670258
Zr 4.733740123521273 6.0918930636479365 10.085382451695926
Zr 9.583355383816407 3.4149157994628694 3.7101115281967187
Zr 1.4338831168908908 6.171656008282951 6.327746305376882
Zr 2.804409703648836 3.279959113140775 5.902838995139441
Zr 6.862274973851437 1.7772425970456598 9.156586356961684
Zr 5.841706915379645 11.156057745721395 8.48384881971082
Zr 10.368605606341534 6.227656526411869 2.6015358192645333
Zr 2.2494642211890983 6.25147107697771 8.97919990108042
Zr 6.73198883073766 8.465445319723061 9.706687440404579
Zr 7.412421178327452 9.102241207191788 2.957699544144203
Zr 8.954038652135996 3.486392320617583 10.411789384427212
Zr 7.3435425806899115 7.212647728327988 7.032601639132126
Zr 9.233797379473755 7.911712004751695 4.956798620219731
Zr 5.131711035375156 4.151074117970433 3.8555630878048475
Zr 7.74322119581554 6.174184384932938 11.40858505486836
