52
Energy = -386.01802712 eV
Zr 4.2124247765199 5.98509151242476 11.635890385160671
Zr 7.680893927487775 6.30978310384293 11.78178280491919
Zr 5.757400545645739 8.552981108107314 12.215078923574929
Zr 1.8330043876260025 6.345560772390085 10.203381605606035
Zr 9.13091828891609 3.786177897242805 11.473121287987976
Zr 6.244786608127993 3.9875798114906806 10.164657776416902
Zr 3.2958367096926797 8.88927692954452 10.772646960072574
Zr 3.569218977884154 4.440452608770127 8.875014433566
Zr 8.215523825731621 9.18240696417956 10.879516419606276
Zr 10.389638779004976 6.425078497937738 10.68892361865094
Zr 5.822125439627639 7.108932160440109 9.64983879912361
Zr 1.0715856214400101 8.67024896066082 8.867479444206042
Zr 1.034083703995261 6.021948923300823 7.37956248041966
Zr 8.644363343986758 2.019569180098363 9.353357176620225
Zr 5.7985630347261665 10.41648013670844 9.823424339810257
Zr 8.496351191507319 4.914427954686796 8.868671123214124
Zr 11.1800184911854 3.635439129571652 9.250489686408397
Zr 7.007855847794948 2.8344667253013447 6.988902538159554
Zr 3.50980768973367 7.3174685658517395 7.754845872088246
Zr 6.029205421642231 5.53956339510772 7.1680863108819866
Zr 3.347339711818804 10.498181358030028 8.058849364665585
Zr 3.5680047419238576 4.596524627876324 5.845706395208184
Zr 11.070256484965874 9.35160129494022 8.82650754755905
Zr 8.622094234070621 7.720282602873998 8.488811268341328
Zr 1.517889408970528 8.938991376405035 6.042523262703334
Zr 10.125897141047892 2.1523147024945675 6.813836987130648
Zr 11.37472320681048 6.55715182888549 7.9321804827345135
Zr 12.39592272965936 4.3146429734981036 6.559843504062583
Zr 9.432449493712896 4.93712666514269 6.089407088763987
Zr 1.703467478987904 6.309682496883356 4.632835371177207
Zr 8.466306667898728 2.691574626828908 4.364693537282241
Zr 6.167495248728097 8.953784115079408 7.1992393581356815
Zr 6.348893260621535 4.703131123484986 4.142206563983246
Zr 4.725142717528875 7.364360324849354 4.910408584387723
Zr 11.200732582317146 3.463512980952396 4.238916998702797
Zr 12.937077649916107 8.588635547479557 6.51446704850461
Zr 2.3891588508747246 8.626056834139916 3.2875389924221516
Zr 8.577701921659092 10.796620444203477 7.667735551188108
Zr 7.825125755105814 7.143709864629904 5.041383680208499
Zr 9.981380567290566 8.740981141441313 6.010082059664267
Zr 3.9741272939557484 10.472227555460957 5.110144674560274
Zr 11.537076485768573 6.5718418156065335 4.535840905808051
Zr 5.9231644018781315 11.774637843803244 6.943238454687612
Zr 11.504950686010343 11.18816003341938 6.563848534810052
Zr 9.188063929162034 5.31771442659774 2.9960270868320484
Zr 3.8501683619240126 6.218824315536438 2.519619664295903
Zr 7.00409939132878 9.983721311299774 4.585945400431637
Zr 4.995812753729801 9.137826686087532 2.49675416055055
Zr 11.930882307797065 9.675005511823278 4.057061191407834
Zr 6.779007967393855 6.997482046528323 2.3440981111419448
Zr 9.535305937907513 11.321798140686063 4.538473708800646
Zr 9.399034156774714 8.69771739932553 2.888486021297122
