52
Energy = -385.31289551 eV
Zr 9.006114707179053 6.881333481221396 12.46601214958649
Zr 7.852875831943963 7.936252784544457 2.723894950965145
Zr 2.6564436813621772 6.970735604865979 9.53883537267503
Zr 2.1218854804643654 10.454645526558796 6.081556137939223
Zr 12.236472792945381 7.926673428156189 8.916553829880428
Zr 5.008574807483723 4.841704027726687 8.56067454218219
Zr 5.91329678505105 5.461835607523532 2.810338033679493
Zr 1.3279240102042587 4.789613889606477 4.617013112001015
Zr 1.2914713542591898 7.741590293027236 4.917261362829636
Zr 9.260573856637524 1.944664082019227 8.870501460121265
Zr 6.6541934338253474 7.231908705994038 7.52781091984587
Zr 9.407151970440323 9.199644875831055 7.900676042193288
Zr 8.798672956007303 11.331702100563568 10.02633420742413
Zr 3.7330618598696708 3.679514755549523 3.6802755075463036
Zr 12.431695165890694 9.13993908224325 6.4849598775727895
Zr 6.076978688124485 10.404201812665745 3.0379471199392207
Zr 10.653074739641356 8.236637901975657 4.441353614542535
Zr 7.584827362585512 9.137959196453982 11.150632463778106
Zr 5.107543206081308 8.095623186681882 1.5831562845383316
Zr 6.800076691496543 2.9698002675134547 10.407412946602761
Zr 11.32790065497764 4.386292118055022 8.826079746365803
Zr 8.603461789867078 11.954542822578608 7.267543621801682
Zr 6.411608787196062 10.169552992982876 8.426203992654955
Zr 7.730372725779882 9.550063635520601 5.454992837846611
Zr 10.533165123818794 10.990328226809416 5.600814690859871
Zr 3.1810318149145327 9.598542548159818 3.448184204157403
Zr 6.623103358213348 5.645171750456569 11.175409802605571
Zr 2.9685777785100558 6.494584182409151 2.728204231318742
Zr 11.383842089821304 11.08306791284441 8.580232243277496
Zr 11.40061806544778 6.2279108752171775 11.02641492678639
Zr 5.406140936411928 7.92859728949326 4.4787231718593175
Zr 3.062300014222618 10.051444625618633 9.147541398285384
Zr 4.977474607084927 11.02661802347862 5.619363059937267
Zr 6.2331445236139835 1.9633850004370197 7.982137895595592
Zr 7.929461437475626 6.34050919016258 5.1671823965609125
Zr 1.2178596637566774 5.639718434073762 7.310815193633253
Zr 5.984455520596943 3.8846386345966244 5.664505329246712
Zr 9.36170959936268 4.107740998923359 11.088669702595299
Zr 10.633911727415093 3.5136272170838687 6.1160955281616465
Zr 8.101008630636288 4.333452811431407 7.901174055703163
Zr 3.78171724380975 5.914580948105526 5.766016154367189
Zr 10.216975356839844 6.518117542832204 6.932898373397579
Zr 3.99202306087628 8.455056210373613 7.1364972681893075
Zr 12.631131892869561 6.188867397591702 5.908169617621671
Zr 8.232628964699215 1.727320121423917 6.107115767290167
Zr 10.509474234828698 5.537821519710476 3.802633367603868
Zr 3.113179905130178 3.274192266060169 6.5502762271561945
Zr 5.147817814161261 7.9711542983124595 10.017735769100481
Zr 0.9985009222216727 8.481611050884641 7.7711227338509925
Zr 10.571358239014254 9.147739366482819 11.03101592803579
Zr 8.842488530829364 6.832373816983768 9.601063900549237
Zr 8.483576329357915 3.6228910150231366 4.118733355535499
