53
Energy = -394.0109442 eV
Zr 12.798663702334444 6.692550226151782 4.09995223388118
Zr 13.096290539692399 9.110435054877192 5.308629220098342
Zr 13.092803352419544 6.761604952731195 7.1481828681139525
Zr 11.734670973851872 4.592186438179514 5.520522630330488
Zr 11.239702907680257 7.37416893095676 9.61503057433846
Zr 12.031678200178263 9.57981413818716 7.911478224395938
Zr 10.860290050000373 8.714358018174806 3.2251715825552623
Zr 10.419472236085914 5.07226620361185 7.960816834829819
Zr 10.49490744557809 7.588663659627506 6.064568461071881
Zr 10.24736412778753 5.7076810952485495 3.2134735469502536
Zr 10.801681755362372 10.712771175410815 5.436199775367424
Zr 8.832023211605032 2.6104858845409273 8.393990951365078
Zr 6.674626367040344 1.9999564453185226 3.955938196083601
Zr 8.801871348820894 4.83852658327546 10.384943473174046
Zr 8.744134953025451 3.8148382223930475 5.3898188031485175
Zr 8.601997243093553 7.453107475490635 8.793663218503532
Zr 9.637826461971022 9.952706733793526 10.347254227017054
Zr 8.678228702946194 7.8086180673721834 12.012164138670231
Zr 7.556989399904445 4.6252258678919045 2.633214876589992
Zr 6.368183191234297 2.19334405370826 6.863595115971419
Zr 8.97475881278386 10.181220257515136 7.539801459922578
Zr 8.2694718552811 9.660720884914976 4.555240270609339
Zr 6.226037984450854 3.1861296461132698 9.98894686626777
Zr 8.06384450968121 7.625597935023931 2.237703373696716
Zr 7.315375024281822 4.969669335466508 7.718842169109566
Zr 7.756113973989712 6.656659779240516 5.022390416015551
Zr 7.5081623906907495 10.604700808016348 12.11103915585209
Zr 6.369114626684623 5.870986283262684 11.519968025532627
Zr 3.786478118999525 2.280751342051486 4.807055316803037
Zr 4.901876396381789 3.4852553643912216 2.3008150990155807
Zr 6.450226275249947 8.745375474189146 9.987551629324301
Zr 5.597374611313168 4.528768010264751 5.0745544570077
Zr 7.147812227015033 11.70589041594455 9.391548231503833
Zr 5.884823833774802 8.451261958181268 12.886982192078126
Zr 5.04180825425411 6.3131205715112575 8.728287575868924
Zr 4.059935471248706 3.5565070072516676 7.844552632112357
Zr 5.655502257703178 8.666579519161223 3.9985747977954826
Zr 6.302685411967785 8.764929131570918 6.944908039828588
Zr 6.6483744604507375 11.671753804552644 6.2735194198728745
Zr 3.731992211651025 4.573503932763124 10.642182610539207
Zr 5.040623627029966 6.360340409290868 2.4727100288527395
Zr 1.9173472117461703 3.939428458473328 6.104362602905529
Zr 2.6263656290768105 4.852663560938888 3.437254931140873
Zr 3.7459021617423627 7.457403700237741 11.200219664802393
Zr 3.8375243898767013 6.7806938395588725 5.864447772086356
Zr 4.709070818377429 10.66860386981024 11.098351162358242
Zr 3.4116975470937216 8.870260739960065 8.590803993505467
Zr 4.570735051525786 11.315300520702921 8.194687373080507
Zr 2.122612959919173 6.084577069355221 8.276892216517634
Zr 3.848922767312014 10.095295875867777 5.637572833634475
Zr 2.540197462203595 8.017719631860485 3.599194256419176
Zr 0.8363550968477629 6.279224592551809 5.3561683520169865
Zr 1.4922731217806275 8.6541902586907 6.428652886198418
