54
Energy = -401.13204492 eV
Zr 12.093446017195639 5.851520690372126 8.393650225818238
Zr 10.406418947647216 8.06202871627089 10.657829529191023
Zr 10.6725568972781 8.922543086509906 7.953969328571807
Zr 11.037553622400207 5.18635481237985 10.841235434608924
Zr 9.90190083746627 8.711783778921582 3.211330731105141
Zr 10.950137526472844 6.777158116484702 5.785816642497296
Zr 8.884321234978877 11.40682350132488 2.5408525155478006
Zr 9.54321980862255 10.830738859454236 10.051974787446165
Zr 11.264309546906922 3.7615225392192784 6.149024410042663
Zr 10.226820289435596 10.719824095172896 5.130505026796156
Zr 10.62492939676925 5.060741110386883 3.460614116317666
Zr 9.272531978450997 6.099713571859274 8.391443599969744
Zr 7.735849809067756 9.375971681421904 11.956860469428106
Zr 8.334540238362536 6.3681460175267395 11.656050760459017
Zr 10.08699322430972 3.184359138313425 8.843311572578884
Zr 8.12170876534944 12.878529990846031 4.793246751173607
Zr 9.869560726736562 2.3125283320808987 4.062503237931249
Zr 8.470257037007613 8.11305511425511 6.056719738471988
Zr 7.160798114260673 9.348401990786165 1.522470608659145
Zr 8.040478839842487 6.720919254417319 3.1956238892393394
Zr 8.928207883303438 3.5331325162953835 11.425740371943188
Zr 8.291037917765925 11.09796041051867 7.323658574293945
Zr 6.732600743633576 11.35084163335618 9.757006659062535
Zr 7.2787844883359005 10.01598370459321 4.5825566571520735
Zr 8.396801137967344 4.584221682913778 5.5539362213968975
Zr 5.849786839155217 11.856157061540046 2.9840131987471765
Zr 8.140003745683181 3.9236284571954134 2.4405841748692843
Zr 8.853255730683122 1.7986509981362069 6.669440195125558
Zr 7.8306934966644635 8.535823437328082 9.15407291816967
Zr 5.511319306905219 9.613605110129154 7.347687550765092
Zr 5.400354784321683 7.746823295817108 4.438657350148779
Zr 5.680877828660303 12.219263760462006 6.075952903160582
Zr 6.9981788243789 2.1157716562413937 4.385975152799514
Zr 6.683548639914696 4.864627492069133 9.32853526100515
Zr 5.643848162200707 4.7882268817835545 3.7840013243674036
Zr 5.5078431206911755 6.838878579586239 1.587044243638494
Zr 4.917824456323022 9.954931925267925 11.364707707877177
Zr 6.0090825836105415 6.268862965620236 6.687332842497111
Zr 5.5456329172819325 7.139252712191746 12.412787574765519
Zr 7.3565219029889155 1.9878067571530404 9.709599751563653
Zr 6.167195921289208 3.9782402905468612 12.0242249100992
Zr 4.358404955798361 9.45260803594181 2.127053548396099
Zr 5.862152595160356 3.215562513047473 6.901022241382029
Zr 3.8054496793283796 10.330685093442431 4.864328712446371
Zr 4.92207151724487 7.537745561701637 9.374466810932807
Zr 3.4074369370318958 4.997118390289124 5.399356409280299
Zr 3.012390093186512 7.116154363421456 3.310895068574615
Zr 2.885604643468538 9.72020394304165 9.077047649753531
Zr 4.659454966086409 2.714219838302721 9.691877015474859
Zr 2.923029753081814 8.060068438781043 11.576754392693232
Zr 3.639247094092634 5.207803418842613 11.085555575959447
Zr 3.6481845755683686 4.9646460969156525 8.12470142696763
Zr 3.17130420142805 7.771314326284983 6.693744115796341
Zr 1.8412965278224809 6.9470892563890665 9.223208535815116
