54
Energy = -401.55271408 eV
Zr 9.878285371750698 6.723967530577782 1.3156721850205246
Zr 7.280587651895939 5.591064769926314 0.8203555860151943
Zr 9.351379759251138 3.8678314174127904 1.8106559057417435
Zr 7.555729036506683 8.372861784722176 1.970941342626253
Zr 11.453996960949302 5.4553734207295586 3.3410695961158243
Zr 10.049191570286817 8.27693312639681 3.9417922883474863
Zr 6.241366121376959 3.621605245507724 2.9693977069814634
Zr 8.166129428889867 5.76057549291242 3.6495042865657856
Zr 5.127042518832763 6.54698602205783 2.43952438454809
Zr 10.074966074924143 3.0279794261328528 4.539802797693093
Zr 12.310817769953257 7.185795376678861 5.76263634586839
Zr 7.753386307669735 10.710184238703905 3.6786969261100717
Zr 4.9973802332186015 9.300268115748992 3.4451868096619997
Zr 7.390183682740064 3.2646081665525806 5.989421508840205
Zr 12.328845987180477 4.18175050781741 5.86813686432695
Zr 2.632480350500835 7.170095773047869 4.237457779108573
Zr 7.493087922265088 8.330890026955148 5.362119677907104
Zr 3.2924235804135487 4.4378708304800005 3.368575867921529
Zr 9.81148538356289 5.770006470955846 5.967281664697561
Zr 9.899145746737611 8.169831306307728 7.6422538418157275
Zr 5.44698149224886 5.412428844862402 5.1594575162093195
Zr 4.283354342690648 2.5823023084644103 5.488627830934808
Zr 10.081334946848676 3.2545640293009663 7.563469036670257
Zr 5.69837009869342 11.065054719819184 5.906633000048001
Zr 4.744124932361853 8.059974245034004 6.1778938982636395
Zr 11.841352568883684 5.679670064847732 8.231781279839224
Zr 9.169954072369764 10.668779997211722 6.192271640199314
Zr 2.4310008791123416 4.828089794323184 6.178073114725609
Zr 7.849238209296697 12.607995587587547 7.828574066468553
Zr 7.486716042032684 6.097833525069739 7.668228045642709
Zr 5.557485839488256 1.5195641218742841 7.921740520964122
Zr 9.86047182694039 10.707553400008226 9.266685615878014
Zr 7.534866922822753 3.110474654010485 9.151147166830551
Zr 6.925732898132206 9.892814894915114 8.186381179986116
Zr 5.0739400259911305 4.565014441473317 7.8430141410883785
Zr 10.809102657871485 8.029474843553473 10.505209954060945
Zr 2.782175932438694 9.912865302743363 5.397904157580984
Zr 9.50997304343367 5.544401985380234 9.879419959924475
Zr 5.283196602983952 12.330185761916997 8.837557504053002
Zr 4.806571910426227 2.894244117099303 10.360337525079423
Zr 3.4259494572145863 10.19441628059305 8.22397588604412
Zr 4.980803259248919 7.52845327600687 8.99123372454695
Zr 7.799426791576659 8.264926586179515 10.196221120122905
Zr 2.196645470659354 7.516358069251391 7.46916512896609
Zr 2.8901785182316932 2.6818406283526546 8.180549698512973
Zr 7.493421233491095 11.632787840989716 10.756948466545595
Zr 9.488853880701601 9.88400611583091 12.125492613931666
Zr 6.505276318401765 5.400291130112186 10.515195219342603
Zr 3.11933790219341 5.398660788901842 9.852465821250396
Zr 8.623906089067804 7.045369859134729 12.542769546717523
Zr 4.8136650502836495 10.211781533535719 10.94286921794191
Zr 2.5997106288555867 8.327553299871134 10.402890533199978
Zr 6.826512548565905 9.480668669269914 12.826645905951462
Zr 4.963598916436501 7.332327315223876 12.001518882101312
