55
Energy = -408.83305463 eV
Zr 7.061571834086667 12.107244916270105 11.471524713509453
Zr 8.728943876224958 12.63968005249986 9.219143732768467
Zr 9.73823597299619 11.082410261824553 11.97633531052358
Zr 9.513641331894497 8.273487438068505 12.76601057501055
Zr 6.9547331993930435 9.628883563353634 12.889384451034866
Zr 11.425916444825106 11.365300044515148 9.136755447919269
Zr 11.566337060401072 8.840645105188457 10.848756708712607
Zr 4.6403828689585005 10.505942454999776 11.07065683610191
Zr 5.77972683860077 12.257061932069778 8.871763771624586
Zr 7.434202200087983 12.75138055719634 6.123867340813788
Zr 7.384742252770108 10.123020277962604 7.5056185831649564
Zr 10.035481482827832 12.101545905785198 6.787440510102172
Zr 7.295057199200485 6.720005693331485 11.986986020750717
Zr 13.348992115139424 9.290720129411872 8.658978229977
Zr 8.245526361981051 9.51436411281654 10.218921083737833
Zr 3.6594424848822515 10.371152002696821 8.036651014541011
Zr 2.5548053050875756 8.705832373495058 10.139509887665282
Zr 10.250871194741563 6.112520540445049 10.969669703677965
Zr 4.416998484517422 7.588085261922844 12.094863987744638
Zr 12.338418395931093 10.561152485026572 6.204734075513723
Zr 10.496242253241471 8.731631040879137 7.6337323293365635
Zr 4.865629356381068 11.863492262173844 6.077099279906358
Zr 12.354287438616476 6.566005607133748 8.92383246907996
Zr 9.07069873588307 10.120582426732916 5.067661497405226
Zr 5.436360862668776 8.090802140886536 9.42098633990036
Zr 5.716422905122173 8.389461719599051 5.753425377720526
Zr 6.21660236483497 10.708941484478999 3.8799410597703963
Zr 3.4267699690437454 9.766698215140009 4.817170078778089
Zr 5.389358281504128 5.021025187218678 10.772674019994483
Zr 3.1615182412913074 5.9684691373433925 9.639494785623834
Zr 2.9206348336087355 7.6045548734242105 7.287643744534469
Zr 8.231123143926428 6.767547286551106 9.047192767554975
Zr 8.615562252690221 7.0352916414656965 6.046906500982107
Zr 5.577789534541707 5.867556926653012 7.6641392697984445
Zr 13.209540521200923 7.812686599007691 6.333781630584941
Zr 10.980677534237072 8.169061262647999 4.4728566416151585
Zr 11.372761436084946 5.77478062104352 5.938482484259174
Zr 4.761030803215674 3.2220433550935907 8.397227668922712
Zr 10.1616006938143 4.599327858601748 8.196965926801951
Zr 7.681388044598242 3.70213678155375 9.58572750661984
Zr 3.1379453506731325 6.840781011112299 4.5080382902012905
Zr 7.875339102818069 8.11523545135417 3.216751747922444
Zr 4.99573865927256 7.816348043276246 2.718789943582512
Zr 6.27936480955308 5.763516350621566 4.563022668924275
Zr 3.397991373492682 4.589719281679073 6.094988995482549
Zr 7.581756283897947 3.9333345082157467 6.570572521471483
Zr 9.283420941317948 5.496860980194703 3.3694665415208065
Zr 9.376972514165955 1.8773815829181517 7.710868676365763
Zr 6.620497765395092 1.2927094332455997 7.8327787197485
Zr 9.967082324725023 3.179075341917252 5.02976743569038
Zr 6.861425029030728 5.7081966075209944 1.7124551824707843
Zr 4.4034288786479445 4.498189053551854 3.055339289895554
Zr 5.183502097163465 2.403773785407985 5.330997052349799
Zr 7.33232291341388 3.179609843237327 3.256657835265546
Zr 7.885944075064484 1.185495418922204 5.297749964708745
