53
Energy = -392.75551458 eV
Zr 10.64242376028771 7.655150233160062 10.802959843710278
Zr 10.448863476401348 9.990477635291189 8.478867688647668
Zr 8.995345627838404 10.214933284694432 11.306289663906266
Zr 7.653522541441051 7.214857733883738 12.114554741148783
Zr 10.816181506718372 6.9604704674989595 7.802384685199106
Zr 11.375900047267478 8.409619694600794 5.3987452004152106
Zr 10.56271690464521 4.17184939936469 7.7402202424713495
Zr 9.377896618623781 12.641848920977177 9.3942720659933
Zr 8.688151713362096 5.0149468274310225 10.077130248618486
Zr 8.499808838668809 8.801771465522314 6.327965139011585
Zr 12.190820425758094 5.312536086004814 5.423142480913843
Zr 6.883199639290451 12.34931739274052 11.007178373738176
Zr 8.369166226552718 7.949440956652682 9.32890755604619
Zr 5.9213433206956 9.402125618908535 11.06066256790594
Zr 6.143612835230769 4.624370887120546 11.978625640355283
Zr 4.57065986889847 6.98745118669791 12.130988132338114
Zr 8.083286711750542 2.63975357526867 7.4961175651604925
Zr 5.967021414448241 6.40831846665122 9.64086893550957
Zr 11.398054501799926 6.935480280176073 2.922689292851711
Zr 9.520039804555706 5.971208727051964 5.000342909169782
Zr 10.040692472977494 2.8011808493327077 5.201572592736533
Zr 7.785629591732777 5.676742182639912 7.338366009518819
Zr 6.775372421631092 13.42445998018826 8.27454116625918
Zr 7.452312228008322 10.64648744886378 8.74328825707688
Zr 5.431907890098324 11.663321006281656 6.428594478694706
Zr 10.905381183838632 4.221292722315854 2.8866199163310897
Zr 9.161395987400708 8.788312170297463 3.3340553042503993
Zr 5.972307779435837 3.037274517595972 9.60748786753798
Zr 7.614709933424812 1.2742962637742545 4.897052481475556
Zr 8.681980490918248 11.846239004151474 6.408755973059042
Zr 8.690423393141327 6.056394173543163 1.9478726157720452
Zr 4.558133448310971 11.466975731519344 9.242891294615797
Zr 6.649514370198718 7.050000745371276 4.388054885494325
Zr 4.952318371907815 4.559427372689437 7.225989443729231
Zr 5.549378277401966 8.955703941506119 7.689175453271536
Zr 8.257428155686096 3.0924597675473096 2.648703837213056
Zr 3.5977638640413994 4.799203633144607 10.294843178447046
Zr 3.4102642528667912 7.756803011575096 9.280829464887539
Zr 5.361490777511575 1.4713154480941846 6.7392689653472
Zr 6.87097234261004 4.1593643268093485 4.920391091356014
Zr 6.410336317043356 9.918629032868898 4.19910753719753
Zr 6.694775507782823 8.172498342401571 1.6901348554657674
Zr 4.240619283651635 7.298243411441154 6.10471272183583
Zr 3.194903208553691 2.5919666290434336 8.456904597520753
Zr 5.105689984225878 2.2827414966874304 3.7477790926348056
Zr 5.815907397880722 5.238163648360055 2.167370063651863
Zr 2.6850449729219017 9.792205720119663 7.244539595133405
Zr 2.191843315462929 5.316241976079402 7.2653327336253595
Zr 3.5117842776095434 10.002031356745757 4.670543463088822
Zr 2.958849924795113 2.7886656103375196 5.670338006043937
Zr 4.040495375289544 7.810064173249543 2.8933553470784408
Zr 3.6730938265422224 5.162182268455284 4.267900003745029
Zr 1.7720198935633238 7.64308766061365 4.95395798958674
