54
Energy = -397.94701184 eV
Zr 1.8184753808219531 8.726022541718859 8.763055589613108
Zr 1.9217671431161936 5.8879954079059695 9.046121883333925
Zr 2.9524763995597025 3.064660863555192 8.99025922704877
Zr 3.338184024684986 7.983768208475803 11.105568025709509
Zr 2.017842244643064 4.2385511029136484 6.505778097282226
Zr 2.9604131829354463 10.167503337337788 6.808276623464619
Zr 4.041621539460689 10.667035741185888 9.402919008286721
Zr 4.36732714679745 4.994102942116152 10.853281232023033
Zr 2.51008284809944 7.208401486793864 6.10381507179078
Zr 3.0586932685034154 9.793968953962414 4.07632477452305
Zr 7.600066173281431 3.255267255921686 7.06901223762854
Zr 4.559855753063704 2.5194322789862236 6.383153769080535
Zr 4.733943470701607 7.871453642503701 8.535339744345686
Zr 5.832208816459601 7.011174384121636 12.193738970122084
Zr 5.862361699878338 2.922595448279657 9.42666638101857
Zr 6.141679655023816 9.55575743012089 10.807286625650752
Zr 3.9855798393411845 4.968604477778381 4.457712285708308
Zr 4.488631473648079 5.157119951761903 7.706469433669653
Zr 7.406238573108891 4.6530197526431225 11.817997337658399
Zr 3.688973653420591 7.446372065979395 2.961657178388657
Zr 7.1230139358132725 5.891830618914059 9.302560757004766
Zr 6.683681852941675 10.109214718427728 7.6278957423654985
Zr 6.949628479978815 12.279913730687397 9.557952396412807
Zr 6.829855455123664 5.66123818267449 5.991727816696707
Zr 7.315590914752982 0.921817537086853 5.963927340668644
Zr 5.150380433700578 11.523879541239427 5.419976012174547
Zr 5.288433601219047 8.26655998544742 5.3680393377226165
Zr 7.377698098620967 12.891380121867483 6.669860559142153
Zr 6.398522141497165 3.1988940724848223 4.135850452881859
Zr 6.383970591056652 6.414303594265657 3.1546461592712407
Zr 8.468065099365067 7.8526311241738425 11.511117469929907
Zr 9.021376894820465 3.4040533850302572 9.557618957564593
Zr 9.147508194219798 2.6506953856975066 4.4528936841675835
Zr 8.293129352660653 10.653053778648706 5.031919477145865
Zr 8.801043735038006 8.129561307868732 8.463887372637375
Zr 5.954215898784745 9.76859047319049 2.9278084116416165
Zr 9.496714584076987 11.473915386076175 8.069939224727616
Zr 8.498263875027451 7.823003173457396 5.346133732483001
Zr 6.858231918864778 12.669418865885003 3.4134714992803836
Zr 10.697830234810807 2.2796855953205517 7.043798201115906
Zr 8.816552640859708 10.648989421072942 10.739565535949394
Zr 10.199106909026742 6.067022659518081 10.314630877904849
Zr 9.958931125813857 5.292556861100457 7.042299569694625
Zr 9.300084041120579 5.653759949275559 3.7738009005783058
Zr 11.053246689026473 9.268104928422389 9.73528364221575
Zr 11.806592619350205 4.073515513286057 9.238708333130214
Zr 10.938004933744434 9.123264064977015 6.654388303782816
Zr 8.390603874973307 8.239364578431207 2.2465100104297746
Zr 11.501455958317361 3.924491420134679 4.571377546914705
Zr 10.618753740622612 9.103417818752822 3.6111474825554373
Zr 12.264944677273196 6.9253820475337164 8.264408844449306
Zr 8.62015130694533 11.08177398121363 2.142815863742802
Zr 11.98332068499747 6.753225732286041 5.254215386518127
Zr 12.953881230962079 4.3943346959149165 6.789817277825927
