5
Energy = -27.26822429 eV
Zr 9.064435924189958 8.743704099475117 9.734445826764848
Zr 7.1302927435901395 8.980845662247967 7.694005750289988
Zr 9.302486308936754 8.146800394496895 6.989876001936752
Zr 11.275336259383973 7.709022547783575 8.618062442902954
Zr 6.569038449808669 9.646389690943584 10.141959285942553
