50
Energy = -370.73877762 eV
Zr 5.514722288867143 10.109385049561764 3.3911713002150887
Zr 4.862654126068829 11.846499209221781 5.541107452066464
Zr 4.215417788023433 6.6321424093520145 3.0894457264420225
Zr 7.646120813068236 12.199838920911901 4.492610103615791
Zr 4.139030086610434 8.847354506160539 5.545280103566143
Zr 7.017178865676322 6.918242389351397 1.7912039806632127
Zr 8.101880079045896 9.909038755931112 2.667903691492264
Zr 3.820055314366681 3.5529437049527375 3.8906085305642453
Zr 5.226950876307913 4.620182319324977 1.3443779597475076
Zr 6.816115247114836 7.638534420625871 4.452326379993706
Zr 3.615276993765669 5.911820137736467 5.774066619841445
Zr 6.805596788364146 12.570874579783732 7.440973526103327
Zr 4.786217162347907 10.510960636908584 8.218247083932548
Zr 7.18767092894981 9.826503401760094 6.206574030608323
Zr 3.0632593919430584 8.09246989762652 8.482557762315382
Zr 9.792864496524388 7.799914573034163 2.9734986914725146
Zr 6.402716928913507 4.671911708556872 4.171994973390199
Zr 6.099881750471781 2.182069145579267 2.45448485903737
Zr 9.445681480443902 11.92100950899152 6.849052996563984
Zr 9.522953852244505 5.300394622449078 3.969465654903794
Zr 10.122546006674686 10.114418150853389 4.741884797333694
Zr 5.849426706795289 6.976827983199016 7.217916364029836
Zr 3.3950260296819224 9.949738818771303 10.837826678944177
Zr 6.207354243027235 1.8600674717699517 5.313806332541122
Zr 8.091567705697766 4.081766462084251 1.5547743001022676
Zr 5.011052714925905 3.6848303676623346 7.0771064266677906
Zr 8.170658041513185 10.441685347100089 9.132487544936547
Zr 8.099161216616332 4.133315386918232 6.459196182969388
Zr 5.867977151745866 11.183078208766934 10.984670783553424
Zr 9.107894808611082 7.154056448153018 6.334530213625588
Zr 3.667636509334347 5.462116392895408 9.267916043509283
Zr 3.1566869444288237 7.2672815896135425 11.41426320147852
Zr 8.681737297053829 7.275762136510035 9.241022607272432
Zr 11.717010259389507 7.521660930942399 5.389067249510321
Zr 5.788667775545639 8.235133950781425 10.056063032268048
Zr 8.625771516847562 2.4817143602052014 3.918025646838038
Zr 6.790064605346825 5.191110435315118 9.070654271117588
Zr 10.668868872377022 9.383717032876799 7.665531537236418
Zr 11.048866237320468 4.7295630970700575 6.365163670932488
Zr 5.219224880044464 3.151602389012673 10.28335948448985
Zr 7.49021315001259 2.408853737201146 8.67600169353563
Zr 7.980927114288545 9.78493607335181 12.0182681222598
Zr 11.577633484251674 6.733764222177723 8.503209317176255
Zr 10.344775440779209 8.663152444727212 10.950806171942679
Zr 5.360617835186474 8.67381744997336 12.866548692504862
Zr 5.43325608425829 5.589600362257481 11.981629103829318
Zr 9.962411566695161 4.156497337253441 8.942717502984856
Zr 10.508293382114656 5.820839620060162 11.178620285228892
Zr 8.058366131296511 6.969676457697602 12.377495630023155
Zr 8.049125624161869 4.043250709145904 11.345144662152029
