50
Energy = -370.81700922 eV
Zr 11.750340387272177 8.289176616824873 8.47379880157112
Zr 10.363917861161516 7.37065931276354 10.917673743148793
Zr 10.31721527627005 10.744350127534359 7.158549512086434
Zr 9.943286643139377 10.215405701520552 9.975045716650186
Zr 12.380514540452241 9.230836003682963 5.9025944049012615
Zr 11.653174633186438 5.253905388094355 8.934704394096507
Zr 12.558111196513808 6.207861003815465 6.068880726649731
Zr 4.801430782617415 7.690447362034705 11.989070504292005
Zr 7.501522458850635 6.023592800966875 11.834822955389019
Zr 9.946462829941675 4.39742468850132 11.248356112847132
Zr 9.962003805639405 7.3135660006829575 5.839586060031506
Zr 5.358161753066674 10.472766254508535 11.05251292619954
Zr 8.519262391784535 8.625972642604749 7.977960709928625
Zr 10.103323776714086 9.980589917507947 4.050301657399598
Zr 8.784570393439598 5.760357107892311 8.920958350355814
Zr 4.786914232340445 4.690353706927159 11.79398829216932
Zr 7.193421744967966 11.220271422660442 8.600214020307964
Zr 7.516764281123387 8.65747156190804 10.708484450998146
Zr 2.7307578343918264 6.074906582603271 10.533777567779454
Zr 2.8641706730395544 9.040517309388619 10.118765901730782
Zr 12.022823803471507 7.809887879557679 3.5893467404883084
Zr 10.338571461325582 4.1550066734629025 6.4069791834201055
Zr 9.728512342185818 2.9109303857110813 8.883601405977265
Zr 4.05293930964953 11.589541040552833 8.92582742112878
Zr 7.141768913565806 3.566231057210255 10.274761057350808
Zr 5.33803696501976 9.011605053560615 8.342980115114521
Zr 6.996929159142882 6.356226227575346 6.733274488613999
Zr 7.322641161275478 10.02038089163148 5.555881966305236
Zr 5.627139024361573 6.214852142185742 9.407760270151567
Zr 4.863597755699641 11.194212668840198 6.195455639508642
Zr 10.607672263234146 5.332816467461421 3.563904282515376
Zr 7.9156347529169135 4.483709486686082 4.736848170378305
Zr 4.0219728273826805 3.8444125794429835 8.901739370954171
Zr 6.983223305535631 3.252203597535937 7.2782500257772185
Zr 7.587350765258703 7.494630081964085 4.006591859451806
Zr 2.8491504047947913 6.794319413217066 7.792287731920624
Zr 7.773336777163149 10.0763952129839 2.428797380665877
Zr 4.681358906782282 8.091766772589722 5.631880623431309
Zr 9.687493569436318 7.775564948484732 1.9010591508550059
Zr 4.622802056103329 4.8929911859027335 6.081473672200396
Zr 2.5862871812805595 9.710116904823284 7.148014099919123
Zr 5.198168818215737 9.182725528842534 3.2107384582361247
Zr 7.9890644818413445 5.250727520753161 1.9820374314776172
Zr 3.9624634806282146 2.119377399477477 6.402199570639182
Zr 5.700449558435055 2.7644607962995726 4.191327984114163
Zr 1.8198352997045246 4.107474788511684 6.701872295120778
Zr 6.729808490746059 7.660077398552038 1.1931779969667105
Zr 5.204541730909225 5.814482647266599 3.274100933879128
Zr 2.365789485455261 6.405599185231573 4.816303208743112
Zr 2.9706846851849784 3.654426991701485 4.017791201626361
