54
Energy = -398.12930862 eV
Zr 11.881553589238589 7.488028679508748 3.428687061081563
Zr 10.36778001755102 9.923769981259056 3.580610389458492
Zr 10.214150878532005 11.391831489680223 6.356954372323022
Zr 11.887919138549499 8.910607939174804 5.909374059622596
Zr 11.698044965876978 7.229198279384736 8.54201049462037
Zr 11.65323118398365 4.258049293237542 8.580193599850753
Zr 11.216063207254313 10.338191185194948 8.784102121072085
Zr 10.522189249796277 5.0222610839526345 3.0649374538637955
Zr 11.24628696110037 5.884779209202262 5.980443241857272
Zr 11.074510552632136 5.837715539384506 10.960732432861935
Zr 9.500380698429561 7.655389574279876 1.6170732260290828
Zr 9.805471639305102 11.456819638051844 11.044137374018856
Zr 7.75454920845664 10.06295367506562 5.422646339197957
Zr 10.19817677143567 13.043549784327144 8.869733147964588
Zr 6.886079451552686 10.360696480384846 10.89340477002152
Zr 9.35401699415105 8.418624909025985 10.37855030953686
Zr 9.182173657212184 8.387984915669334 7.287096732806388
Zr 8.493878274651662 4.435348226204259 5.201536006347528
Zr 8.96473601909175 7.248046570628718 4.39188526380335
Zr 9.061446150753078 5.621722677248074 8.435401783404949
Zr 9.741304721657896 3.3837626602906266 10.536654625994466
Zr 8.882177290988936 2.8364012030074353 7.840609858854913
Zr 7.886880454401761 5.207442501755707 2.036539399679896
Zr 8.092796517975613 11.092651192136294 8.512653782650853
Zr 7.749194438620845 9.997006630192862 2.5691742866095817
Zr 8.220330163800094 5.6969157459092035 11.65670469700447
Zr 6.233818842390294 12.307911750820821 6.563931729429934
Zr 6.755695346928214 7.196449206021177 9.350998413585971
Zr 5.0328646386099 10.082251097386342 4.465242098338748
Zr 6.140189717319137 4.374711994095384 7.143724456490594
Zr 5.440223302253126 9.582559691886107 7.630226877925957
Zr 6.859386291554455 8.116661028954018 12.273706839282536
Zr 6.306235819617333 7.643270399297997 2.670641972149649
Zr 7.849963327849399 1.500611212951245 5.653786449801219
Zr 6.863340706586212 3.892714337261156 10.017001557209852
Zr 6.1930921376107735 7.268275757581653 5.826050461854149
Zr 4.913192457322991 11.799498879367473 9.30766929319845
Zr 7.513208001132483 2.5697721783369496 3.125515373247186
Zr 5.695462937291238 4.986639403595879 3.7795836295279392
Zr 4.892282974673783 6.021681953292272 11.432853815585277
Zr 3.507632343877218 11.722666173277638 6.763016582155596
Zr 2.5743086686132526 9.364708754550172 5.815301535456025
Zr 6.011357765707674 1.5453669415730322 7.919543776453354
Zr 3.956320647516658 4.084802801855974 9.555368022255205
Zr 3.5131931150931237 7.268564709201611 4.24617566263694
Zr 4.067909781220811 6.923191174644469 8.027022142102519
Zr 5.124811111639167 2.3006673369369715 5.056906105590787
Zr 4.381203037738102 8.832311984311037 10.663549304629626
Zr 3.372491918266502 4.860554519987362 5.710218504143233
Zr 2.1257314243650813 6.654171536452229 10.045604097250525
Zr 2.360486273187994 9.519744216391759 8.672894946871418
Zr 3.3591467875069085 2.3889211747488046 7.270752279056186
Zr 1.343556274774629 7.121498448320773 6.932996775116158
Zr 1.6696199973129298 4.576278115749563 8.04747483872416
