51
Energy = -377.96961021 eV
Zr 12.732985663101447 7.259863396727689 6.702257232031403
Zr 10.526421703668685 9.736082015666462 3.623983929761889
Zr 9.390136478158228 8.024275155075426 1.7387401633416215
Zr 12.681855626904806 4.654565025747169 5.456137098379306
Zr 11.200869978779314 6.814209231785174 3.8525064379909875
Zr 12.270887133418277 4.742972030884247 8.23237987849183
Zr 7.643320215887894 10.231956571579454 2.7160583290520814
Zr 10.904951704463652 7.224549955212684 9.111089101317091
Zr 10.306808049009996 9.066905595458325 6.653660214754143
Zr 8.909906317336173 11.30622154077086 5.1282094779897625
Zr 8.751389165671968 5.309948753631057 2.5133082361860652
Zr 8.411787624463926 7.8376105340186895 4.489193643452575
Zr 10.24865841140099 5.942491677443799 6.555513863163144
Zr 9.164889077867972 9.67169247724123 9.834836371654823
Zr 10.678783632995774 3.8155373379712696 3.8082471197235157
Zr 6.5564546210682835 7.272979989664855 2.1238021434418335
Zr 10.588798365118917 2.7890382878193427 6.516208015212599
Zr 9.449875443445345 4.3365329077591666 8.975435514637448
Zr 6.4808389149716135 9.658219676592331 5.55160643519601
Zr 8.298711076804025 6.6227526929456 10.667564605119658
Zr 8.054326263023304 4.701072688781857 5.436370946809445
Zr 7.673150587169135 10.993316565724527 7.884070605201658
Zr 7.886379876297784 9.021164240196997 12.299951863656155
Zr 5.920872609388265 12.03117257777166 5.034204734970813
Zr 6.490898471047764 11.33727226554712 10.766702672704227
Zr 6.297982407575348 8.818016860715646 9.758261161062475
Zr 4.854375320439641 11.09466527096536 7.911804125915366
Zr 8.222487425703799 2.265281022056916 4.449617404907802
Zr 8.04588678219106 7.771221889947897 7.7003717243520455
Zr 3.382469365805825 10.198058636096626 5.76247399746654
Zr 7.783868357152551 2.557626645552778 7.537180368239598
Zr 5.898495967090508 4.172283843239934 2.9570870797826276
Zr 5.126080666744351 9.432420355760902 12.543504211363881
Zr 6.670351376606608 4.229654951012959 10.921442616553817
Zr 6.587420309853232 5.175269454194209 7.985952883636525
Zr 4.511482113192655 9.03629533411542 3.395449209312245
Zr 5.452005230955831 6.276832068218228 4.907875329355474
Zr 6.060648104065505 6.668159614303508 12.680361809356492
Zr 4.8361897259362765 8.08214798783471 7.149816632875927
Zr 3.60583235419858 10.081484916530426 10.302593392457325
Zr 3.8120853052756627 6.358812131154841 2.4736131726977866
Zr 5.517021374152625 3.229990948052371 5.8270591325169585
Zr 4.8091750871894545 6.362500718207202 9.901927548602005
Zr 3.976393101054638 4.631869628019707 12.046988993261596
Zr 4.41433061655712 3.4987870092631232 9.317336364873759
Zr 3.276312371548874 4.393041458421844 4.3803922513405285
Zr 2.599183908575787 7.259952777007393 5.0196245365571075
Zr 3.409869000877673 5.385672648560081 7.249598926733599
Zr 2.98289520151523 7.531495898600459 11.7625498205837
Zr 2.4720674421881546 7.95614334498182 8.642829547606379
Zr 2.1088970647163254 5.3002835893478055 9.985302928568005
