53
Energy = -393.38588939 eV
Zr 2.835902720750878 9.6187238484302 10.254875248418088
Zr 1.4027042905858123 7.053537862614994 10.01072783463591
Zr 2.956212190764507 11.291050678638342 7.825160040225445
Zr 1.4548273995879677 8.684518765191383 7.605116986507808
Zr 5.023511041573741 11.779537880749242 9.811238086598127
Zr 3.9929782942784993 7.0301359552763145 11.321777939554435
Zr 5.505553445975187 9.665858293199276 11.929727506075286
Zr 1.2019973293198332 5.558463184003363 7.659165281343277
Zr 2.221794273221617 6.7335825069546 5.370678958765761
Zr 3.8292401962960905 6.8269774422786895 8.107009115870822
Zr 6.446974182782595 6.6923087704296655 12.675315745266387
Zr 3.622232876180939 9.45646049858187 5.540206612150055
Zr 5.210669391634599 9.43434449770434 8.228870723138856
Zr 5.662054539058842 11.811594334874146 6.582073894095523
Zr 2.94900126555045 4.551786698847833 9.79327500188035
Zr 5.216428072867223 11.38568491813916 3.5751712976943426
Zr 7.807291252431182 10.848025345826995 10.328721537229885
Zr 6.890849890114653 7.874121785754534 10.014917222338326
Zr 5.962676499006733 5.002430327027399 9.908735086911673
Zr 8.395094111917727 8.83400136614948 12.315992372077924
Zr 4.980391319603827 6.509799961957056 4.929053672329578
Zr 4.615712615009415 8.69222632453929 2.8339945189673603
Zr 3.868800561507898 4.153910767089185 6.8062163967331255
Zr 5.7071784552306 2.2662866085688322 8.496350546964248
Zr 7.995755902921782 11.789754221777821 4.614365395663423
Zr 6.588936633545763 9.32454197701208 5.103681268842048
Zr 6.835440254484338 7.1911049457985605 7.22484730187657
Zr 8.247835623777307 10.106210328783163 7.365872108825845
Zr 9.774580394879079 8.59040250361418 9.589834952000562
Zr 7.4727790241475756 9.84175712075131 2.2659003826911985
Zr 8.925161887009216 5.6181788716828 8.528271827289691
Zr 6.80196626593951 4.341192985205122 6.775651392998329
Zr 8.170456946567032 3.114394786106414 9.887526551614734
Zr 8.936328154244206 6.052365810237703 11.295125535336847
Zr 9.78415666936559 7.511645979247881 6.466324080638202
Zr 9.845455865090063 9.400494484122747 4.299882402041679
Zr 7.872616340937583 6.881420998825876 4.1816393318018825
Zr 6.45271358584044 6.884412995426547 1.739126780022397
Zr 5.8712377121822055 1.872899563364664 5.6526178598508725
Zr 11.324383403730991 9.783869295820397 7.258692381875816
Zr 6.278574005861884 4.148552878789658 3.6724481541495844
Zr 8.483624367541225 1.7025164661334242 7.285210729507075
Zr 9.271701869866172 7.6596747803042 1.6877140749159791
Zr 9.388779448766446 4.55112186091642 5.555353369950134
Zr 11.908232229402778 6.882041953126053 8.357795085370443
Zr 10.814316690872213 3.3828675436717695 8.441077792557953
Zr 8.51102181134353 2.0837816819784276 4.2205612690282175
Zr 12.50105243407813 7.902710472302684 5.53941889142156
Zr 8.79721880778861 4.682977278853134 2.40049397359713
Zr 11.12538407177649 6.426839231812143 3.5025103828470208
Zr 11.035230855219044 2.1055129003658486 5.945131236258068
Zr 12.260263426898014 4.897354238735292 6.116751792753903
Zr 11.239808150505716 3.4984315502857273 3.5378318892200937
