54
Energy = -401.27559273 eV
Zr 9.988404880852281 4.233476800902576 9.712291689018654
Zr 11.141329030424282 7.957439202275286 7.778851059601714
Zr 8.436002365050195 4.595974112097518 12.169800328802404
Zr 12.27025772738603 7.796653690273517 4.539344167257556
Zr 9.762517901412643 6.777142352981808 10.759020729003206
Zr 11.07293050049091 5.078117119615889 6.38267020195239
Zr 11.68514060195392 10.259417589783448 5.914967854695079
Zr 10.424013119396482 10.919352233402579 8.369509551906274
Zr 7.518789622821598 2.5270346577635996 10.33768851243287
Zr 10.27527812633048 2.416446960500472 5.006092210362095
Zr 8.882885328842091 3.0222099794993467 7.513006191622785
Zr 11.00192375998913 4.856002644014339 3.408264551404181
Zr 6.881547343670313 7.21529484237458 12.024734521417818
Zr 9.626673593488189 7.290392107783831 4.7209085320769795
Zr 7.385431860965768 10.305731987008725 11.516851793979638
Zr 5.5100767785346365 4.2474833969798285 11.976880330523384
Zr 10.283959334566187 10.055687943325701 3.4175894680548393
Zr 8.651905753933143 6.333614314209 7.556863031541131
Zr 7.331896872584044 11.38123129496759 8.524468303005046
Zr 7.146261470659373 5.314857081366774 9.629165067302539
Zr 10.843077972290244 7.474647126121643 1.973900100178811
Zr 9.310027241229744 12.156724880239585 5.683966643985701
Zr 8.597890401988062 8.77340202696902 9.362027648966725
Zr 8.808945879293526 9.545216495129818 6.418792494195108
Zr 8.364529035343988 4.6453156515978105 5.051557966815599
Zr 7.341830568266922 1.8688404170799087 5.04280517873934
Zr 8.600108054392805 2.9293806742898965 2.695920242701938
Zr 5.943795395515164 4.552510697553653 3.622554942262103
Zr 8.554296533377974 5.692859889512435 1.8362535442452845
Zr 4.797230367595904 9.394606672942714 12.410968758092201
Zr 4.728515779688304 2.6340992154993903 9.682855311390684
Zr 5.627705372575242 8.710530576935712 9.616787537927772
Zr 5.96633025937253 3.326647681206757 7.194098355200571
Zr 6.169977745048497 8.958673201503215 6.735906582313202
Zr 4.903734453011656 11.500319217139939 10.551699331422428
Zr 4.338988066941169 5.835294256666909 8.865773043678619
Zr 2.7347108568125744 4.233290645331447 10.847970645960539
Zr 8.149346087686972 8.679423087939217 1.5438616201167135
Zr 6.818784975112614 7.569952385867898 3.9956717531306727
Zr 5.43789581717964 6.1154866784821555 6.285400184275327
Zr 6.274582103620476 11.984876890657832 5.909671777160862
Zr 3.7317216493477208 6.847931892102569 11.718840480081028
Zr 7.308188138325396 10.689844430438443 3.6275663278370835
Zr 2.4747114165189177 3.685041059795408 7.985786704454056
Zr 3.627556442198673 3.94992178266584 5.235210784195281
Zr 2.7950250827824026 9.276498272414388 10.15736226175613
Zr 5.830114789263844 6.567822109933574 1.3780566704129853
Zr 4.266494227818102 10.926709161501355 7.823103550292241
Zr 3.188693294608591 8.36808409905232 7.186376897132256
Zr 4.4893599747649615 10.038636200077493 4.6094085615401115
Zr 1.6246793938331152 6.469241653762008 9.316544021569449
Zr 5.22238462208178 9.177089274286804 2.0406008262692956
Zr 3.914799189936054 6.953808059812176 3.9181177905351694
Zr 2.0657550571086674 6.0225843463941775 6.389719141646942
