53
Energy = -393.00074888 eV
Zr 13.223018314861754 9.360665056443448 8.438539051352246
Zr 13.482532691472645 8.708765030253383 5.7118059697760035
Zr 13.616705855195315 6.481017598101389 7.805317466386452
Zr 11.869743922766633 7.549944972471329 10.275749168956992
Zr 11.419067803006014 10.681853367718153 6.485425869389479
Zr 12.787349930215854 6.204246433214251 4.928239290238552
Zr 11.939093352970978 4.91468315721363 9.553308516629237
Zr 11.020454258014556 7.613891534956884 7.056443571395557
Zr 10.484112548039258 10.06124976888998 9.120633997445259
Zr 10.779033309151295 8.519777185722674 4.141222773162077
Zr 9.822300690415245 5.371096151170879 11.447841231126194
Zr 11.415871739048594 4.400298043193447 6.798881021199416
Zr 8.469662087439094 11.396527705317894 10.681947878820118
Zr 8.45782504830704 12.169539420247037 7.513879886716679
Zr 10.227665750661847 5.172740990435698 4.2200735233051025
Zr 8.689898681883507 6.951064239822852 2.7005010605945015
Zr 8.997472074580088 6.4477248549260375 8.877593824732635
Zr 9.77848483320308 11.574037492513973 4.317397284365037
Zr 7.476318419476786 3.2141895071495235 11.013905015923033
Zr 8.998124398821593 8.429777874534208 11.167100151846968
Zr 8.117197578460308 6.75632893486098 5.745742476107269
Zr 8.698995942949221 9.573056441000565 6.060581196953125
Zr 9.694347821999624 3.339885373305733 9.012402979535276
Zr 6.061059299648304 12.127499769409791 9.568329888999076
Zr 7.431210388741254 9.562104666211539 8.695835997063313
Zr 7.8117821996317485 9.645520879063602 3.093421846985853
Zr 7.101671146226949 12.041966075545828 4.630921038144809
Zr 8.46055031335612 3.704813721008948 6.243506562533954
Zr 7.409375399933724 1.7302396576257957 8.243626320250863
Zr 5.8877382035704855 7.238635561325792 9.067493336288102
Zr 6.61010926622098 4.529012317318963 8.551088118050902
Zr 7.037296144876791 6.260122660949345 11.575843896017002
Zr 5.719784107407878 8.81905024569484 6.038454977718135
Zr 4.8163963971951835 4.581580072597147 11.145416253582807
Zr 4.152844238727161 10.003172667640175 9.01697512065768
Zr 4.983608688703042 2.216599324509141 9.47466323735591
Zr 5.874589018698861 7.181678897672479 3.044335541912452
Zr 5.317437767439818 5.6981480425892785 5.959151264506464
Zr 5.388319067552546 11.757106256563 6.794762896977269
Zr 6.0857815135215345 9.62617830485529 11.279240772245615
Zr 7.159234450022845 4.6088251328829966 3.7267592846321964
Zr 5.212592309508419 2.919002276861563 6.427033530210375
Zr 3.44565943695599 7.411791247945034 7.489811820947981
Zr 4.941777828373648 10.336982638797345 3.7795438121673803
Zr 3.2734509176453965 7.266893606660775 10.43128182089011
Zr 3.4460809762737084 4.548719386834763 8.623596367511542
Zr 2.8900652230628703 10.047083995798936 6.164495785790088
Zr 3.3036445982644196 7.59946752180144 4.413496629955682
Zr 1.3691244677641734 9.01620423836393 8.748138581336299
Zr 4.1321366611986985 4.809026493065503 3.5630288943415116
Zr 2.2416078827897032 5.106636008576037 5.916760977271577
Zr 1.006015104967759 6.149767383699645 8.589870575128314
Zr 0.836594105395628 7.756877927801848 6.174588023305306
