51
Energy = -378.83656138 eV
Zr 4.609367913203475 4.071053300020567 10.986240993022344
Zr 3.1088760577300216 3.3441191616938317 8.583026790621323
Zr 2.30584210132926 5.950937905653295 9.98797716281664
Zr 4.1088163462059075 6.806336079307438 12.31310193348168
Zr 5.953365293643863 2.9191836851284556 8.437368844237332
Zr 6.540928421371316 4.968551508375817 12.835825948921903
Zr 2.006775568344461 5.370765730952047 6.81404213256852
Zr 6.741169555514602 7.581502452321302 13.657931240355996
Zr 7.756178590881963 4.194203681298257 10.28262015001771
Zr 4.63425111291744 5.845222690162511 8.457667410449247
Zr 3.8469535989809125 8.730091376693183 9.882938348848707
Zr 4.841449260962655 3.964064272376641 5.996343360010472
Zr 5.446107080101813 9.535379090689956 12.078389202168294
Zr 2.581359126888283 4.81311832791049 3.942269872182479
Zr 2.51637975089248 8.212570839399138 7.384961681964427
Zr 6.51583595292954 7.0843373179781794 10.61348212801291
Zr 10.480758349429754 5.293284677861585 8.605237354371434
Zr 7.418573983795889 3.0153671426516064 4.579124553329679
Zr 9.063303455170766 3.1429879881625657 6.979067678720952
Zr 9.005391381665262 6.327210826154981 12.14631690690659
Zr 7.447145253579395 5.49392227022783 7.559998304247875
Zr 1.5464114871649375 7.3835718548916605 4.658839958963083
Zr 5.862926069012937 8.172366585652277 7.508763231764277
Zr 8.353817803576257 9.21898967641597 11.895993572974296
Zr 5.322708568628466 4.7289914447452155 3.0096484556863214
Zr 11.849850262086964 3.492313517278161 6.597725009512854
Zr 9.181452052624639 7.717274312772156 9.491223365259973
Zr 7.384986171001489 6.037646827138941 4.6610390311888334
Zr 10.160347644740577 5.796322439172973 5.651336595079995
Zr 4.363801665983477 6.7222306705720385 5.287117729469499
Zr 8.301246682457277 4.640601249877631 2.2942085473849403
Zr 3.6343931722345606 7.465422666975368 2.5373147571093306
Zr 8.71840705419136 8.39118252615536 6.570012796985728
Zr 6.8496539574110935 10.063016114495557 9.450360820160698
Zr 10.329259262409701 3.2596489260299175 4.019406653799889
Zr 3.207161858490312 9.70824984521661 4.689987610027137
Zr 4.482039818297013 10.736455418363384 7.2391400406049256
Zr 11.54081380619149 8.480427500651572 7.546732599029622
Zr 12.910662830441503 6.132534726589774 6.8556795006749045
Zr 6.331167933930534 8.95647753611126 4.733815028129728
Zr 9.66591388992969 10.478380436725994 8.530176671748844
Zr 6.583850948317943 7.262349766972848 1.988352937159865
Zr 12.731944935008602 5.051699479425524 4.26667712556448
Zr 10.740265346976452 6.036720185078015 2.5793158326161922
Zr 11.94216876716204 7.980238454246352 4.62331302033018
Zr 9.07884699631431 8.238081271385706 3.4571263199310316
Zr 5.223758304381414 10.033209125556985 2.37200659612291
Zr 5.414587472071861 11.77489723753835 4.635940691740176
Zr 7.471915598456014 11.408486636102365 6.731821049657447
Zr 10.290465515129064 10.591035379799457 5.665278584896462
Zr 8.062883744282491 11.042951796677167 3.797537629942422
