5
Energy = -29.46407905 eV
Zr 8.03254295180874 8.162501889947219 8.900277867440641
Zr 8.062944358606913 5.786283856717843 7.347040810144681
Zr 7.692881609084562 8.259842031223618 6.090312855626817
Zr 6.037362921156881 6.074725749245736 5.38467377495779
Zr 5.710516649657033 7.252203257102945 7.813572818304451
