51
Energy = -378.34211361 eV
Zr 6.1953629979008635 2.5912343803352016 3.4272095744251683
Zr 9.652762396433548 2.3000233137037913 5.415225212496651
Zr 6.815550515643675 2.614368752205431 6.39194536240222
Zr 9.010253304295148 1.9050985789898454 8.316414418956578
Zr 4.081302911723882 2.689752143863023 5.467348557563445
Zr 8.561912551819843 4.694573794535574 3.9693948712048712
Zr 6.340596097951448 4.952121602187531 1.8856637767705895
Zr 11.205550585679795 5.026853444047098 5.1083976375724935
Zr 3.605536544540162 4.276163149342038 2.928069002731253
Zr 7.152893113184062 3.9621892755563453 9.763147497839178
Zr 11.511996857053138 3.1550001224892634 7.503821541816156
Zr 10.38305466833666 7.808698750467074 3.2584681747729025
Zr 5.792507988109977 5.084991556846116 4.894638663687467
Zr 4.8103233672293895 4.59440135059698 7.872774180283348
Zr 8.912870954817077 4.575977967196145 7.120449681537285
Zr 10.163754993392834 4.086610721824787 9.937318891443383
Zr 7.22236486020816 7.500144720968931 2.9424385583230652
Zr 2.4851412515335394 5.1098085820091255 5.731176806370485
Zr 9.293746756870112 7.325575147848295 5.77612237653423
Zr 2.77501157314422 6.012777617923733 9.623522908403706
Zr 4.276862197133798 7.066009851942678 1.6025424249206401
Zr 12.271675477428621 7.761172417456501 5.496699981587333
Zr 11.520097689092646 6.191148464565121 7.977211081677391
Zr 4.893538564824768 4.98911716947516 11.800241199127953
Zr 6.773104521200274 6.72257449411727 7.150913532531749
Zr 1.7417060419711834 6.458912043584204 3.1538042408352998
Zr 7.825991138385484 5.836914137438776 11.95076357704865
Zr 8.706180947236676 6.554728474043947 9.314524928604596
Zr 4.272278596869056 7.436992042365553 4.472720330624527
Zr 8.505907481031485 10.138591000435087 3.427034382056761
Zr 10.824137832527473 7.844748679592284 10.535605033564815
Zr 3.951077135602763 7.473851337935786 7.336137901346614
Zr 5.626092088021275 7.132786405637967 10.026057167912354
Zr 6.69928847225314 9.071725131152688 5.508951572644412
Zr 10.639957693179227 10.198927136241162 5.349023158587726
Zr 11.920889565908988 9.266235583224548 7.998543731285653
Zr 5.332438733378366 9.78968824680763 2.924718010388398
Zr 3.313273411409263 7.506889371757687 11.986795207657359
Zr 8.901137942655522 9.252708380890551 8.152695867592124
Zr 1.5938747656619925 8.060398607092166 5.613070230494439
Zr 5.897851515250554 7.582510048334987 13.022128451462162
Zr 2.503233590225353 9.210105792801858 3.032031408460578
Zr 7.916927634085441 9.040408806178423 11.092497222635275
Zr 3.0181968057050836 9.013940690920592 9.534557132057756
Zr 5.881379155243253 9.787994871268463 8.4113744639807
Zr 3.8082490502600583 10.131311405773141 5.602238194747622
Zr 10.463697109861762 10.649528506194805 10.337315814922329
Zr 5.068656031344493 9.859680499987217 11.349236324520925
Zr 7.853809505274305 11.545921370443029 6.352404755056659
Zr 10.392781365832125 11.822714450674352 7.763469745694169
Zr 7.932020546371504 11.721584877813827 9.409008545399404
