54
Energy = -400.94260649 eV
Zr 12.471828113674896 7.641732346738697 10.363119138501972
Zr 13.231508835022856 8.312215619695307 7.742841900039251
Zr 12.192033764446034 5.459907000636715 8.197514131841285
Zr 11.530010173202768 10.252805876443288 9.371098991769287
Zr 10.573235877489266 5.529101537769793 10.836251927366723
Zr 9.77659363213485 8.41497644374261 11.398830257768365
Zr 11.866900334347745 3.7269268326272513 5.790360279526321
Zr 10.493044420460727 2.9725526004588634 8.21447855737177
Zr 11.873508301239493 6.879332036144734 5.566869454140291
Zr 10.360149747248197 7.867710800194528 8.241786499974156
Zr 11.368840390551963 9.839414056264731 6.173177647288128
Zr 8.985223478910816 11.023502882804785 10.483823216942612
Zr 8.497968762055168 3.373905454188585 10.677647119724009
Zr 9.349632005473321 5.31026473805944 6.142661129275623
Zr 8.523204138338 5.433435056588034 8.770696802969773
Zr 7.599839793478589 6.2941896479650135 11.412171252107196
Zr 9.223111617551107 11.203952790315643 7.543392779172636
Zr 10.597387563420208 4.742989955639156 3.534289542047109
Zr 7.53802944198563 8.776855734836445 8.915295667685372
Zr 9.925423766176388 7.676250003709098 3.533180935109447
Zr 7.7887766791130755 2.3959340956788417 8.070739284811651
Zr 6.690913499169678 9.452364894484143 11.467331448610787
Zr 8.68430057489814 8.418818175465962 5.92792804296784
Zr 9.094022451393917 2.631755353772665 5.255334877483576
Zr 6.6461872675894025 11.59515370049662 9.092521641728299
Zr 6.393324432883005 6.618167305799505 7.160176075020913
Zr 5.8262223760412155 4.126975851507702 9.497328675526585
Zr 6.273481908432778 3.744954939197266 6.165560700164161
Zr 6.493057927387263 10.335698513362214 6.337955074562095
Zr 7.681974646505497 5.08509708790701 3.6001376777031515
Zr 4.509894924497568 9.669717174533618 9.139905178965472
Zr 2.978769494158284 2.6881153134443108 8.145020057344125
Zr 5.076131641237463 6.974141603078207 10.041353812912362
Zr 3.693907153128016 5.308904891646487 7.489253397608815
Zr 7.867673058067622 7.3610066799228395 1.664420391878206
Zr 3.0168442931046995 4.771149689200202 10.318335074632193
Zr 7.841724650615294 9.995503054461588 3.40434676712383
Zr 5.522881170900127 3.2574675303680642 3.170866319195671
Zr 6.2710747114124 7.733083084885431 4.236905270648459
Zr 4.232074582695309 5.538646850665467 4.770134917015508
Zr 3.7088636490841522 2.470980503493763 5.1426357131523615
Zr 4.01996016612923 8.40750839622101 6.432682349422398
Zr 3.8023961491512264 11.388297060535123 6.69275242302354
Zr 5.180767694634106 5.958461219859003 1.8316297891923625
Zr 1.6818862679749378 9.750417290968958 7.696583104729785
Zr 0.9162135495358782 4.860685335315834 8.36003268187981
Zr 1.4500799972497636 3.92621648511568 5.772217328812973
Zr 2.1486884692058044 7.414287159631481 9.233823762181645
Zr 5.5326987358110395 8.952656060260749 1.6680858900553075
Zr 4.603703289408386 10.50684529395826 3.890483091087556
Zr 1.4908604225924877 7.021058681762443 6.108556259707732
Zr 2.718571530712027 4.24093088249438 2.933576799012944
Zr 1.9262250979372826 9.90874919141352 4.894775469205783
Zr 3.210533565867983 7.897611325333215 3.1723575246549442
