5
Energy = -29.48536481 eV
Zr 7.862115567440443 8.709330742185578 9.344472288915506
Zr 8.285931260980563 8.858711672390934 6.953924813497088
Zr 6.20862898672759 7.59374791690102 7.966374916960118
Zr 8.42269567539443 6.8262792358301825 8.319316302801735
Zr 10.124034134433135 8.542170807716108 8.319316302801736
