52
Energy = -385.97991215 eV
Zr 9.12751858022489 11.94455157962274 10.568652920595694
Zr 6.981420234816713 10.52368985399031 11.902966692406286
Zr 6.385407176507749 12.443656612208095 9.502102116248185
Zr 9.047977904624487 13.016786852320312 7.94899616502788
Zr 4.252667114663586 10.72193413609246 10.566087346310123
Zr 10.94068527136901 10.824959517426107 8.571320350681694
Zr 9.55301023206425 9.081279749309074 10.835828861103451
Zr 4.678063260120859 8.423814087758412 12.152130364951713
Zr 7.446513060188758 7.559756470832025 12.290401189079773
Zr 6.776984834089666 12.368915299289592 6.437483036235083
Zr 8.086654305003048 10.271021328591788 8.243096630663173
Zr 6.235270375519451 8.63583995773394 9.750122627115681
Zr 4.5849067658557185 10.69953190327525 7.720530739498225
Zr 9.545649971427354 10.788344531680417 5.710568143873797
Zr 11.153766851353529 5.221304083177703 8.80805258088253
Zr 12.347875666756037 6.28708110790042 6.603467537083007
Zr 10.288788513509447 8.077037634908882 7.953100821196791
Zr 3.366092250610197 8.092275338249229 9.268842163316535
Zr 5.532046856301658 5.824189394786025 10.780823818972092
Zr 7.53470890025874 3.509795728250671 10.942227667790203
Zr 8.55859429390977 6.297801203615923 9.840401103299929
Zr 11.883590989763908 8.815098827613307 5.45488047303008
Zr 6.477114024130629 9.675325219712043 5.651440186940373
Zr 6.792872830702254 7.324297936007399 7.313134101528974
Zr 9.609690580345116 2.8178412007218454 8.686522712096036
Zr 11.190373882470553 3.6011169577232476 6.089797643827365
Zr 4.63082446789316 2.966244379017116 9.85045237574352
Zr 9.199188153031358 5.399074553931488 6.548407025759639
Zr 2.601015384218948 5.292341273159915 10.097222083499753
Zr 8.921325577883453 7.93992333041196 5.088812071709318
Zr 11.293283930696116 6.2513099368458755 3.9242291939137703
Zr 10.578340342250696 9.103149020495664 3.0189457885768345
Zr 3.858272390170727 8.019268921236128 6.055848968367504
Zr 6.993031233536469 4.2731088252879825 8.26866626204571
Zr 6.030408501518339 7.12982712984831 3.9931492034490237
Zr 7.567852252072938 9.50884856541359 2.8979527598131463
Zr 4.458941231829943 5.568758639341629 7.913921005378474
Zr 4.475935483963229 9.542589692048127 3.4284236300286985
Zr 7.026244920719252 1.473128144669683 8.800936660522378
Zr 8.137050515235282 2.3262834099895335 6.0848485861202155
Zr 2.4476418911223345 3.4294505504660155 7.800593744955028
Zr 8.7505364974072 6.845183802999048 2.2448692615358077
Zr 1.744436407244445 6.219086812239002 7.339365436621352
Zr 9.01951175299857 4.171832370769382 3.691809600144918
Zr 6.5166946845987646 4.823156143056985 5.314781636027309
Zr 3.0214305931992143 7.126533436073259 3.2817887632818104
Zr 5.0058821371719135 2.2872163433146855 6.818503263543129
Zr 5.4292074417789 7.401482563883367 1.3178053383951194
Zr 3.496628097583638 4.672520462642895 5.2309603125949184
Zr 6.909650945325882 4.736971668468499 1.804822784922281
Zr 5.884251983410319 2.662937788683525 3.7642706183159524
Zr 4.299157648641204 4.824873885078291 2.412396151158213
