54
Energy = -401.99983839 eV
Zr 12.54478853917512 10.166084103849217 5.782574869954886
Zr 12.198877215048823 7.752713786292395 7.294993436269882
Zr 11.823829596109842 10.443245049410812 8.652568351910139
Zr 11.305521771417448 7.96312252753984 10.167982957791752
Zr 10.794629049390263 5.318982236539765 8.921770772788356
Zr 11.297002397365784 12.542632996892094 6.596120791646234
Zr 10.97707939533378 8.109235004454977 4.428259013452936
Zr 10.33911838441229 5.433639600213027 5.905276423993933
Zr 9.743077755549308 2.840756100576601 7.296902327313118
Zr 10.380516158297837 11.262541712346806 4.036375885963226
Zr 9.580427937564464 10.127246937900573 6.522297256328892
Zr 9.081721018186128 2.8602915043651174 3.8031186998209536
Zr 9.300356241684918 7.707139407804352 8.062165740811539
Zr 8.772521677881649 3.521515521052227 10.25418582548961
Zr 9.361126769739805 12.351180712271514 8.723870699331156
Zr 8.999711980365301 9.867834538907008 10.12391318863953
Zr 8.58101405436689 6.553391960013999 10.748259479589478
Zr 7.862515145349043 1.094412911922791 5.938839373581073
Zr 8.782490616258054 9.098880934570213 2.8677626555992535
Zr 8.724528203707086 6.093000648226437 3.325020069703711
Zr 7.890181509860218 5.175655304684779 8.065659667003178
Zr 8.462248290260066 12.880130201671262 6.015311955390206
Zr 7.8967042419121665 7.697324000000297 5.4998631461692
Zr 7.20302970385258 1.8090455374048315 8.571125043395195
Zr 7.514790588741803 4.185833715454778 5.425736426009322
Zr 7.212124134049372 8.937076427490325 12.293056101784693
Zr 6.989425562062692 10.67634437913666 7.720828437181891
Zr 7.075316404913474 10.895954944126853 4.472393808492941
Zr 5.162081731274579 8.97263019333642 6.005718071405539
Zr 5.392092364508729 6.050032107330722 4.743735733727896
Zr 6.7281880527698945 4.362783796227824 2.4470758610509633
Zr 4.420351753318859 1.9444486310685485 9.344110358804105
Zr 5.743199113642342 4.542718662429764 9.9257577896066
Zr 5.6022095717222955 6.601703706098853 11.989664727436205
Zr 6.419373153852778 8.208685138976664 9.45927922147136
Zr 6.037830014039879 1.760422977543904 3.8659193036836212
Zr 5.001918539014739 3.3835271467734036 6.6760809771835365
Zr 6.2389794932147975 11.121486654354333 10.487052320057106
Zr 4.126109327859674 10.542766888335645 3.734995237794219
Zr 5.022232350514183 0.5117708565586431 6.716433340513535
Zr 2.8937640241809155 4.490619350962227 8.796865789204162
Zr 6.0476926115033365 8.180253649504072 3.1043517189194643
Zr 4.7301821090776555 11.894136561203132 6.300621865306933
Zr 4.429215291316376 9.206757930924734 11.591383284364037
Zr 4.92962048044517 6.316749266102253 7.619989652219688
Zr 4.110550453767131 3.9749268319776574 3.3096243971886636
Zr 3.291717381808236 7.2007382577320875 10.075936622574188
Zr 2.434125943615512 2.0556173533494775 7.326023398023553
Zr 3.181510429591176 1.8420152821320026 4.731280176880834
Zr 3.881405680215673 9.925889601219184 8.68376011929787
Zr 2.5738850959670136 4.8395354162767426 5.800150204401211
Zr 2.4238957610152636 10.134334017023344 6.000414156602178
Zr 2.960404017745171 7.772625228176116 4.291248033822385
Zr 2.251722873872766 7.604378943518908 7.263659119323329
