54
Energy = -401.69575781 eV
Zr 7.131362476583328 8.763420374291803 12.030009848524275
Zr 4.962771649423671 6.0837031206968994 11.969013583565253
Zr 7.96360322842346 5.944867299395979 11.243573076791213
Zr 9.979253553425561 8.013154468290155 10.708744287393888
Zr 6.6553316386849914 3.5409644042231703 11.877873274020025
Zr 8.817371362726867 10.741811476690607 10.265426962910315
Zr 11.47557841468757 9.98675118263731 9.276067030977194
Zr 3.8340561920303875 8.316968194788872 10.521575539018903
Zr 2.4431944337654654 5.6022843203090185 10.055632539729364
Zr 3.8233396094658665 3.404646294120619 11.386094237819375
Zr 10.588786848782721 5.1392544349365865 9.915896715954235
Zr 5.831713806415875 11.042810556792293 10.193772164167058
Zr 6.6126612629620585 8.187162886772812 9.423708667613923
Zr 5.673365701364261 4.702051114642539 9.341890259127089
Zr 10.192883125369299 12.03193655558813 7.71088242700014
Zr 11.965202205970359 7.278215530706474 8.354198810964022
Zr 1.7370588159111475 7.992577720266963 8.476139460377604
Zr 8.284213467828629 3.434780069855873 8.994931953107475
Zr 9.714406337499206 8.937429059389194 6.980039433271994
Zr 7.676846216306318 13.035429207558561 8.865092609166318
Zr 12.276852402911219 9.894058831431224 6.415256359640983
Zr 3.1850903243325868 3.068620671389588 8.54326654512282
Zr 5.642515355644568 1.7573479266303667 9.937955397282487
Zr 4.240370338156855 6.6749545240188 7.775400080919185
Zr 1.8554833946475258 5.462196059083548 6.909082013477079
Zr 4.009237745405317 9.886259601065166 7.992232872405276
Zr 8.498147516222625 6.426171304833366 8.368615014842415
Zr 6.013101143290904 2.1833949030783506 7.262116228910612
Zr 7.223254105687239 10.459795131134085 7.454917370827625
Zr 5.18933725678028 12.560624214730705 7.621230868980044
Zr 10.47599600435412 4.967584777344756 6.874756929537745
Zr 10.144064417578873 11.45850478828451 4.974174553549381
Zr 6.80762924113044 4.858037828205188 6.551549939563217
Zr 8.605924755911902 6.99818045335725 5.155729427194857
Zr 11.821456129877305 7.026541388019489 5.436610111333387
Zr 8.781015478093428 3.088049441090747 5.334351610890659
Zr 2.8172944944755285 8.403982189160567 5.7578231549159735
Zr 5.1430656249749855 10.827092558365932 5.273637859729106
Zr 4.095140827883902 3.671452158587733 5.762967977787821
Zr 7.636043945710932 12.762167755504 5.864527032805537
Zr 6.066819729315682 8.00712173362764 6.143215323598227
Zr 6.131515352307835 2.0754604084474964 4.066201227024283
Zr 7.747766758718283 9.955724750426997 4.252884430759654
Zr 9.901082047283833 5.3586235949929755 3.2944961040161966
Zr 10.570228396139662 8.881800683844705 3.9092631308677412
Zr 6.711439253055753 5.040070438021023 3.590646184045221
Zr 3.8876710242411345 6.193079202358268 4.421421099007563
Zr 8.636251255892471 2.7832330383340844 2.5945642315934196
Zr 5.448954090321328 8.275690922961672 3.274324226187443
Zr 3.9689005956008265 3.729589712516508 2.8161392835203527
Zr 7.924300557387524 7.542386431965279 2.1495803452126
Zr 6.157080987779553 3.085397687080758 1.2624153531869218
Zr 8.15945099710799 5.0367340117150805 0.829773731440007
Zr 5.301227178046419 5.967438624994077 1.2428001780006728
