52
Energy = -385.64967607 eV
Zr 11.38018434309611 9.522899947885817 8.082975701513934
Zr 9.853667470729295 11.102017234590763 10.059029236182582
Zr 11.59616130189508 6.418634460934538 8.382868273264926
Zr 10.290151964329752 8.251010840314926 10.646660048093043
Zr 10.154424379751239 12.284031819509297 7.40712111976193
Zr 11.495896942394662 10.33064738220627 5.3738123259484665
Zr 10.601213940171004 5.486421730673746 11.132911122841376
Zr 7.4123271484008715 12.036150180644814 8.889587949351656
Zr 8.234863519561504 9.058305734996553 8.675550475001538
Zr 9.460630531714687 7.642490590850424 6.257783378432336
Zr 7.406351882625176 9.633604319526265 11.32750421012872
Zr 9.706153522765522 12.254902388358358 4.308002597794435
Zr 11.713899910083859 7.400405526935145 4.949660138853422
Zr 7.523149625386332 13.080029649958693 6.086566116378175
Zr 10.627412565640313 3.596087733428276 9.057250276411922
Zr 9.556359511509369 9.298903389292152 3.382698210325286
Zr 8.019658176579034 6.703682029515264 11.946943844348999
Zr 8.447652613566946 10.322885643225218 6.062381944298985
Zr 5.172037436422641 10.209865066971911 9.627642232452436
Zr 8.118894335541754 3.884576547191481 10.919115460610596
Zr 6.765486306488627 8.46702958699972 4.3902922004600144
Zr 10.211215033469038 4.699010181096589 6.281802964245898
Zr 8.701178004324335 5.797921208943608 8.772673311690411
Zr 6.921791617461239 11.287107517785252 3.7829377313000925
Zr 8.911830261736647 6.187258194888134 3.604831404860063
Zr 6.055483424856591 7.986648489415463 7.0694240068020795
Zr 7.328092657433572 5.277060143502882 6.154829818430538
Zr 6.875702560971964 7.4209524802975295 1.56775544811158
Zr 5.9999991812637585 7.012043559478555 9.675777254657945
Zr 6.225603776781451 1.889299605726452 10.497916516648388
Zr 8.034674316304685 2.818766538017388 7.799236388447438
Zr 4.481780930094996 8.039151552430381 11.554371358974628
Zr 5.5601873079178326 10.868768718795614 6.679090598253907
Zr 7.913406990116992 3.295943159259914 4.0613552729328255
Zr 7.230738893382568 4.64492718639915 1.5947179324191052
Zr 5.613512679861748 4.11866638637333 8.604132675522633
Zr 5.314040135807295 4.729061927124334 11.559051133470161
Zr 4.4258215643803585 8.427025416902916 2.415609787861366
Zr 3.3710027937847213 8.450273665530691 8.405001161124222
Zr 5.556751885791691 5.794936446536037 3.880932527375346
Zr 3.662666649345602 8.693482703220273 5.29192817588425
Zr 4.136694396943084 5.865335748398887 6.4430001770409495
Zr 3.477667068159118 2.760719706742324 10.18900168118162
Zr 3.1345454930998806 5.696707364881157 9.456120883360574
Zr 5.258507234399042 2.9187575256750744 5.665435614351997
Zr 4.949217957739239 1.2824274632492123 8.109348868372596
Zr 4.308740864339379 5.536160307175459 1.3925013375802657
Zr 5.266450644321314 2.9688122816950684 2.742877355835461
Zr 2.4765863392133984 6.724799945561703 3.648840332107883
Zr 2.8236592254437203 3.3920592053246454 7.412972914262868
Zr 1.578016574333589 6.433078871884452 6.607872164381881
Zr 2.950149089871034 4.1024490242247404 4.104964153510235
