50
Energy = -370.08105932 eV
Zr 12.036489876598345 11.748861733454525 6.22645218176494
Zr 6.408010611397739 12.689737018223964 5.886742649162975
Zr 9.304258057566129 12.385901305091851 5.831036798932633
Zr 7.623052403560561 12.413623818149164 8.416839983919422
Zr 7.408144862225619 10.990176101381827 3.76456264256865
Zr 10.390536878067023 11.432803712560066 8.655362892849057
Zr 10.55729879264026 10.467964059339259 3.9588700765833065
Zr 4.462992546988962 12.40889065332573 8.180260304010142
Zr 13.051234840357704 9.940273239748674 8.18816853283192
Zr 4.683680176331217 10.475906576490724 5.728014797966445
Zr 13.210016183079157 9.409874395380994 5.352426137129797
Zr 7.735957944268325 9.792137472487777 6.257735610983311
Zr 8.685517565466533 8.19938845801458 3.535968719032053
Zr 11.467750818199171 7.500061649770218 4.222746134150117
Zr 11.124199461663519 8.628675164427758 9.881394235647681
Zr 5.695761395067017 9.811386347040909 8.85651338019577
Zr 5.770783701308769 12.368607922306598 10.717252076715
Zr 8.438227790390766 8.80645453300094 9.174543042739337
Zr 12.68999251044196 6.982601284902039 7.276950546998319
Zr 10.558367167739597 9.035992297076621 6.747333763381146
Zr 5.800973067888642 8.115301142525944 4.281637137129383
Zr 11.575296675500148 4.572693871510283 5.417947905264542
Zr 8.422920800108258 11.379138980230666 11.006896109525478
Zr 9.94717436950858 5.463869013566012 2.989145259765359
Zr 9.031383192459987 6.190621926356895 5.71239945116039
Zr 9.042937166944398 9.007275268938239 12.270260390998562
Zr 7.068400863702795 5.349998461731082 3.6227720875138503
Zr 9.98833633745862 6.133945041441936 8.422000172206603
Zr 2.733708121781707 10.133036271860677 7.972811421164856
Zr 8.985640042113685 3.353378342163181 4.556701248401454
Zr 6.580260352909798 7.1010287160936825 7.20519752750533
Zr 6.212137644013548 9.919705806342195 12.173520260364775
Zr 12.292091884915799 5.943855449336889 10.278941706264039
Zr 3.4927279216948905 10.606774208808963 10.677713677453516
Zr 3.704799357150114 7.818693758101697 6.558735891028741
Zr 12.281796099143794 4.127305193860479 8.138384461653477
Zr 9.64839797070467 3.155758588914674 7.350942315070727
Zr 9.393816877515215 6.33818613397069 11.401338719401794
Zr 6.423525368104742 7.042714408691782 10.599287196556714
Zr 4.744566884145443 5.568075707155146 5.241218888419637
Zr 3.2954765960934687 7.693382997144351 9.55533830644752
Zr 7.0476472837045865 7.380579723262919 13.531389131850105
Zr 6.8066863805450835 3.9073419820581954 6.395864854882116
Zr 10.26396745764038 3.7607044777335608 10.207477970712237
Zr 4.070234730330846 7.887881068070258 12.379179719744211
Zr 4.552526109503208 5.287765149586008 8.168169447915698
Zr 7.300593703610385 4.5592108531432425 12.146889463183298
Zr 7.399103338326323 4.599422325288911 9.217416905556595
Zr 4.088243843484408 5.18235586829887 11.038874948031367
Zr 5.084136143047696 5.421156751440249 13.481199507502035
