5
Energy = -29.47510475 eV
Zr 6.908341141545262 6.034913817140589 9.073635493334574
Zr 6.76339332403339 5.625739130614116 6.296069371470888
Zr 5.7423304024365605 7.999725073262456 7.405465313436637
Zr 8.517007131053623 7.506735475979474 7.4201103767305785
Zr 7.271337163918088 8.107033750955813 5.046220328566486
