50
Energy = -370.69976773 eV
Zr 2.0560667354612936 3.394550741099394 6.833941531782069
Zr 3.514090115398846 4.375146638837006 4.451024299923031
Zr 4.679348155340741 1.8519841076733516 6.256851596885831
Zr 3.1299391703669017 7.52994118663297 3.473757249774652
Zr 1.6335068895494482 9.197213017828364 5.351784815563164
Zr 5.202806535787035 5.734729354458303 2.276902815799326
Zr 2.324706847148839 6.441174331839552 6.420663382158281
Zr 6.439725789241256 3.6041326266638047 4.309709405512617
Zr 3.544804612045018 2.4454533644775314 9.021940507426976
Zr 7.718300442472651 1.3755750714285893 6.228910317030878
Zr 2.4109993046262637 5.106280344948558 9.211825792875945
Zr 3.8167058478225577 10.469732689798368 3.9336070767174873
Zr 4.669778964315338 4.675905293905792 7.345678856009058
Zr 5.986914273457387 8.667276412278682 3.037481862026904
Zr 6.209313795217933 1.8441462232046306 8.871709059508058
Zr 2.0952975539907066 9.00086073867827 8.15781991502844
Zr 3.1014593834774393 11.356409812735555 6.633665619286073
Zr 5.485543765102127 6.439477948388694 5.053762920281126
Zr 4.479914453412341 8.747226526318288 6.342202004380336
Zr 7.937606687219424 6.239765376636629 2.9068773005181927
Zr 9.463223699222988 3.4947586926726446 4.959869746485377
Zr 7.450879463685399 3.8753410180854786 7.182196430951884
Zr 4.401117436859043 7.21903553451579 8.883310016160092
Zr 8.252292556089355 6.036046138702511 5.734734500129366
Zr 5.434497737225553 4.54408246374687 10.372974644575915
Zr 7.409034482934143 6.296029799166162 8.876283301824394
Zr 8.975104188530967 8.926377455505047 2.3983623556329063
Zr 10.38881763419335 3.242092770477027 7.923351834923556
Zr 4.678329748217299 10.2949709204258 9.075995662115854
Zr 8.326222027819687 3.4343547896935553 10.189254226233912
Zr 7.821845089251153 11.27201256139254 3.5553716847206522
Zr 7.330115949229673 9.27801613916972 8.197712257849005
Zr 6.017281199480889 11.24084446838473 5.957921256420783
Zr 6.920625749593637 12.265197397097158 8.585392618056856
Zr 7.937555409687187 5.788154800737261 11.777876473220187
Zr 11.902790435673325 4.780723160222109 5.7450234856665885
Zr 8.033431348242829 8.895381311988082 5.259600808928989
Zr 6.132686074718012 7.948365406699362 11.031155292388247
Zr 10.600519962531814 7.276864043496633 4.494305858282931
Zr 10.167879410946894 6.320806800746635 7.727820543208435
Zr 10.565848102249195 5.3913072227575425 10.529771008877496
Zr 7.230840487536262 10.598411450833154 10.89264726718855
Zr 12.71833011788734 5.102435637010444 8.485324160392343
Zr 9.554692719778732 11.122142537767846 9.346091426786156
Zr 10.553021616502908 10.272345664999111 4.441048411821507
Zr 8.907226482393478 11.760250801116955 6.405612228168965
Zr 9.206327877796259 8.2492904121113 10.418486108551019
Zr 12.775182761438758 7.4272304883460665 6.645775048296987
Zr 10.375600309203051 9.210639810446178 7.271973316003224
Zr 12.06073575670912 7.8326059637006775 9.434745145894736
