52
Energy = -384.46289 eV
Zr 6.491709536700754 13.057304588714635 6.806567635343782
Zr 4.9212980257761885 10.919759397212049 5.153148665105432
Zr 7.913978810410797 10.876450533326553 5.365288695567515
Zr 7.131202276382305 8.903039226124816 3.1356011739953398
Zr 1.6784626381581267 7.6568852639731455 5.673253580942552
Zr 2.0941862249700463 10.510580399954364 6.692339048285758
Zr 3.9529221925433498 12.297880600949918 7.6043756280243135
Zr 5.8093424013445984 12.27543661215316 9.857053001079
Zr 4.134553124312408 7.81569855321854 4.1820633770354245
Zr 8.88771391542248 12.08283203778844 8.370050257223403
Zr 10.073597944018863 9.69336244476863 3.4719374322312864
Zr 6.435624404047639 10.34958059626433 7.982383160415303
Zr 1.2763073760503787 8.406256515858033 8.385255612408148
Zr 9.083389572447938 7.091078769876682 2.304467517140811
Zr 6.494870118911306 8.262206764613698 5.773622680910322
Zr 4.097108959094629 8.565294128531335 7.349281742893351
Zr 10.493870653028548 11.500317046882282 5.877783996491176
Zr 2.0095667440993874 5.625766249369974 7.799405014413025
Zr 6.894519429002014 5.7926597957669275 3.885786711762976
Zr 8.137813474728068 10.50006757318225 10.611451710623133
Zr 3.196130478776554 10.365020000678411 9.619957462415396
Zr 5.585747963666821 9.124342589463497 10.975406828080704
Zr 2.539191467308193 5.106093541188695 4.713051329650794
Zr 9.353240577309036 9.16424574260661 7.868284610175746
Zr 4.766745031310824 5.793147797043377 6.399862718721653
Zr 12.111783769963578 9.057063096623176 5.721254944936038
Zr 9.230624006126073 7.429133229184537 5.341833152310723
Zr 3.2455937488980333 3.23662759226243 6.689591074673985
Zr 6.657053985903029 7.192012488195831 8.69667274049538
Zr 3.37007188202387 7.199201926532154 10.090245738420274
Zr 11.619051490952641 7.228283794165267 3.459097280440199
Zr 5.231067550657525 3.408951430816966 4.618185658999073
Zr 10.892665136235989 9.568246539916705 10.435741978831503
Zr 7.739469899220587 4.911238220669718 6.650259360635308
Zr 4.434834638825155 4.533853272294596 9.273830538527934
Zr 9.913684138547053 4.815958236906303 4.008983648779485
Zr 8.42168335255263 7.660562540678177 11.003603592874205
Zr 11.873162920819114 10.85161085735414 8.12015995460065
Zr 12.46426803686886 7.964722665743845 8.465179620688378
Zr 5.79602454650897 6.163626717665334 11.396153793722675
Zr 9.813189091206409 6.207978593074601 8.608250351672675
Zr 5.919728027316416 2.4820486710195553 7.302468545531725
Zr 12.03629993577515 6.07759172871439 6.03773720808304
Zr 8.073828691432821 2.553493501539102 5.06956184425716
Zr 11.41295717352444 6.729871918924805 11.124668375980589
Zr 7.411916077151118 4.3668024783449475 9.678483959327185
Zr 10.66004258669882 3.5515549177064663 6.63824787309834
Zr 9.280918234231724 4.983469451066984 11.98107667728236
Zr 12.531766374310667 4.934979690745951 8.868046657591348
Zr 8.568183810634173 2.1070104693982605 7.8376436721527245
Zr 10.302320299829605 3.4200783401334864 9.758787778523036
Zr 12.079745211016217 4.123191616649702 11.868530981546728
