5
Energy = -26.88646707 eV
Zr 8.191648595170724 5.353520781709014 5.500855225427484
Zr 6.801593372296434 6.468488554746076 7.637399184267945
Zr 8.833866456567335 7.715067331983757 6.2318255341831215
Zr 5.69158616402281 8.245418720520354 9.542462179592684
Zr 7.426823026865042 9.142745926364752 7.978379162217692
