55
Energy = -405.88685029 eV
Zr 8.090793438750005 8.35514204659055 7.813834345033988
Zr 2.5420528464333745 3.3199109786144265 6.240526436725699
Zr 7.229610561403692 2.985119737187352 10.426029717816784
Zr 2.8851886637415256 7.879637268574903 8.91887296945136
Zr 7.474153383157142 6.4835182842549814 5.031602996004363
Zr 8.091859993039826 6.518281246532876 10.231080808757087
Zr 7.965478709193469 11.29295140351955 7.70790106614108
Zr 7.649890065700081 9.877656489448734 5.261332535611115
Zr 10.022512895435336 10.791335216597707 9.606404427376637
Zr 8.032300970225466 4.641097492829821 7.771897085879388
Zr 7.614415499776891 3.1125520397813617 5.199141917076106
Zr 5.349626481272833 7.937749176738034 10.577599263621375
Zr 2.7822955558134326 5.080256801971413 8.88230076670012
Zr 10.049624477037533 8.026068606591028 4.5684281921230205
Zr 2.911143036516758 6.482394297156442 11.507898248912594
Zr 7.846760413421118 1.7060378336165543 7.674763021443583
Zr 10.047289808821448 4.947278668682917 4.5630616046294055
Zr 10.809809038778857 4.908814018572275 9.644010275409586
Zr 5.47966423133052 6.556539084731493 7.731394225631483
Zr 2.0424465529744 8.015184759388463 3.729374136774488
Zr 9.852801169031695 2.1812718544160443 9.60542257960577
Zr 5.37290865595027 9.623094176534035 7.936229134642061
Zr 1.9931785670860849 4.99308532865442 3.6739691471126052
Zr 7.406142112698397 10.01603008114797 10.492539463697229
Zr 5.284108786369424 3.4502215348070115 7.807133503448149
Zr 4.996963616459047 6.509387529219998 2.673654385432669
Zr 10.839489899740121 8.003002039960126 9.636012118182402
Zr 10.312739094466473 6.470823273678649 7.04852607393404
Zr 9.610369959822616 6.5028711571140825 2.35180243313343
Zr 2.8223322373372612 6.5274551373732015 0.9126036854715293
Zr 10.558798979459468 9.668132708940908 7.087787412137132
Zr 5.811352718006688 10.872439712923462 3.009404797592184
Zr 3.629731910278209 9.260885165741911 1.6943703622695123
Zr 10.489743665369764 3.264023027422066 7.089773322770871
Zr 3.0443254378923315 10.815129566499984 3.848614460820687
Zr 3.588529743204364 3.7778980177378103 1.6037222511388538
Zr 4.962497627894076 8.523798687904826 4.932190552191471
Zr 5.784634763414233 2.1700053615782138 2.9027991914752116
Zr 5.400016114118868 7.995911440476001 0.013760855869259415
Zr 5.0499579625527256 11.455136347627858 5.7569438247733205
Zr 3.0104531659013816 2.196459389134149 3.711245649933932
Zr 5.404565660839707 5.0413623119745195 12.75219650126803
Zr 4.911811176745025 4.481813893282762 4.857463787718431
Zr 7.372980867054486 8.456171489539708 2.546195903490285
Zr 7.720691822349204 6.516859634419271 0.34879754948985847
Zr 5.005470846587234 1.5498835866012393 5.633069075323232
Zr 7.387995951231242 4.55772276348908 2.510599536125038
Zr 10.082084157928131 6.455244368308328 12.373842764736713
Zr 2.820988141484693 6.461310903388516 6.21596758442034
Zr 5.25180775145858 5.063259994204193 10.447558908804242
Zr 9.788723929987293 9.316989763462715 11.94576809164018
Zr 2.629648417337123 9.654569132071126 6.359841205793608
Zr 7.458329557559387 7.981075038124685 12.75219650126803
Zr 9.599935191281572 3.6478848133402084 11.928936710132158
Zr 7.300139657896824 5.0944312571388535 12.679791607922406
