50
Energy = -367.75261188 eV
Zr 12.899043598581818 8.374094985833821 10.382927026867952
Zr 12.440232887116817 6.713756516743634 8.068154340913006
Zr 11.509887147177274 4.721625892259987 5.9301169330085415
Zr 11.36038872819747 7.7721647042281115 5.650927368782279
Zr 11.307672890831675 4.369808106850663 9.014573754799605
Zr 10.589430924183022 9.102645375351392 8.716134900942604
Zr 9.600200711713843 3.348020950589056 4.158990930714143
Zr 10.891832473832075 9.364272608656398 11.870323951051253
Zr 11.830652565988185 10.476625345217679 6.454622796733163
Zr 12.024285940148026 11.211189412814912 9.963189911490339
Zr 9.606362968833519 6.336841670537805 4.014213935001419
Zr 9.805140950587571 2.644043486443951 7.303576993713989
Zr 10.098115748550057 6.680185102138379 10.539120995859241
Zr 9.471224432965725 6.337172050864608 7.576838471463179
Zr 10.261830557328004 12.393955941199605 5.039536742670897
Zr 9.879208333326925 12.16493022462441 7.982500792453052
Zr 10.399885216658173 9.701050951384175 3.6891294777037156
Zr 9.131733318861986 11.273473949584071 10.817111598674654
Zr 7.669702806705952 4.505467618673882 6.0762226078533175
Zr 8.074559774117523 1.4536963613158298 5.409739486925647
Zr 8.388981714388507 4.167195853243471 9.575079282487515
Zr 8.709457536050408 9.98632267102973 6.158589383505045
Zr 8.089828019020647 8.666650495207119 12.341962703745956
Zr 8.155977200293318 11.54638254255753 3.4847601860049453
Zr 7.899054284539725 8.606938169393414 9.343060120742809
Zr 7.487315807598811 12.822642826657168 6.064013301093227
Zr 7.158030728231292 5.25329432067862 3.232410563450296
Zr 6.98617179395323 6.00410169591419 11.589586530377812
Zr 7.4181696155754375 8.800573055904847 3.148303287519215
Zr 6.719508855988271 2.2921297422636746 7.868139623963487
Zr 7.1789702578346155 7.378889634997444 5.648914187625051
Zr 5.722277879647679 2.6670226976542373 4.87925865773113
Zr 5.308432441471712 7.984960749749374 13.080684573452055
Zr 5.679863229107897 10.878086765576148 4.547788295628477
Zr 6.975240227920959 11.9049927239951 8.849601262409179
Zr 5.276830309729709 3.9483436835642176 10.183130277644068
Zr 6.183318336051375 10.445207022196996 11.290659348158918
Zr 5.720723632183757 9.416475451285152 7.413177199280159
Zr 6.324270345613012 6.028108508950012 8.280782495085099
Zr 4.602029578730468 8.273537995774303 4.183649407745798
Zr 4.016945582305565 5.826100766503201 12.086501230080852
Zr 4.847008326099996 5.35590102428083 4.7620430534798
Zr 4.924668841042789 7.877768692276738 10.16436717468561
Zr 3.058631979468417 5.659951738103602 9.266857738159047
Zr 3.7287945771428124 7.034465340512314 6.70455269547094
Zr 4.285519535937625 3.932050466873797 7.26419211393279
Zr 4.7031522785816575 12.288630886687645 6.927225963720718
Zr 3.983645951359246 10.921484689384936 9.249870729841877
Zr 3.093281812322803 9.972414373665341 6.272651589559227
Zr 2.410983461013836 8.577763164960329 8.782097637754589
