51
Energy = -377.40902643 eV
Zr 4.435443250713192 6.633868038573597 11.57393467921021
Zr 3.9213546928599827 9.449249879521194 10.890957049474013
Zr 7.445576701262633 6.188588281537807 12.068138949974186
Zr 3.8599307598014008 11.228955514052597 8.575861022399788
Zr 3.401528783078338 5.319060691714022 9.31994986098194
Zr 6.234952120728886 9.094035877657944 12.500700659854932
Zr 2.8819554589113374 9.955664843593933 6.090517237818368
Zr 10.550145663433355 5.863312522322886 11.643500264845507
Zr 3.3695361296706907 8.082817257642201 8.32353525670498
Zr 8.197859223135378 11.276021202143745 12.39387621892476
Zr 5.7687187211822355 11.794664420626667 10.984188609029903
Zr 6.2023797745358475 4.29581605796655 9.738063873347429
Zr 8.623549688793165 3.6828177699276723 11.361634651020848
Zr 6.127823847545366 7.628046423517036 9.654290658219452
Zr 9.122949719988817 8.520964401119649 12.189677067911768
Zr 6.18683393464899 12.851747184812833 8.380584087763708
Zr 5.74820697416666 9.41794344722771 6.928042647158934
Zr 11.139513442015899 3.45453149725441 10.203760125093662
Zr 2.7646302800831926 5.753815132274832 6.586623845268043
Zr 8.681960224503069 5.95982831228167 9.332446200924965
Zr 5.055395083444044 12.114124902739485 5.9089476690246485
Zr 8.586975255878219 12.770587700215028 9.867778431704254
Zr 7.881453737421092 9.98940607250906 9.600136893146347
Zr 4.378289313930689 10.295986840772429 3.783042332513202
Zr 4.272347118013692 3.4194087366831507 7.525320444525919
Zr 10.537456944922027 10.812910532942052 10.928777745101316
Zr 5.911587933870571 6.020265361355624 7.167397145897824
Zr 8.700348777132838 8.38665046105896 7.078753726142336
Zr 8.17475651067847 11.673673238425565 6.732394094242005
Zr 11.60939769409651 5.761621156547967 8.373617126842099
Zr 10.653073379407683 8.296843512964896 9.48605521833366
Zr 4.304748890532482 7.5691510233986685 4.743845663450818
Zr 9.248994072505425 5.3235316869444205 6.269055911225202
Zr 7.185706115859098 10.510548057576687 4.235092059850432
Zr 8.951400229474588 2.837362033918883 8.47392131339602
Zr 4.741246598326353 4.545470783122657 4.813194786027208
Zr 6.858288756878141 3.0893923010970714 6.531545609143203
Zr 10.474408861109032 10.687488929720116 7.99155296045547
Zr 7.388836301510168 7.247321436267837 4.51596388175785
Zr 6.114083110136752 8.548704343887415 2.1382546103917504
Zr 12.093142146225684 5.137336046649002 5.45174617755141
Zr 11.699269002808144 8.018557465494656 6.482506262163387
Zr 7.463041139478806 4.022225551466392 3.8018668683505172
Zr 10.06627957908287 9.983428208822158 4.881097462598431
Zr 11.672700031028711 3.0758312772430836 7.464668945104604
Zr 5.556661264467208 5.848281597777571 2.409387160882809
Zr 8.888730212560747 9.091977328941462 2.3852427470353192
Zr 8.38883177311062 6.305564695545708 1.8844436522188337
Zr 9.828288254591833 2.6585884800163564 5.380711702183783
Zr 10.679618378322724 7.29204080772024 3.8348415645561884
Zr 10.238757284338607 4.528585405178351 3.287605519930551
