52
Energy = -386.3147672 eV
Zr 11.145836554354506 2.755851102633653 8.343084903438948
Zr 9.690696327084167 2.52397828030871 5.902521515868126
Zr 12.31884370556983 4.050287196690768 5.882082697066686
Zr 9.837283801145453 4.452236630103261 3.923111966718131
Zr 12.538226721816505 5.044474902531132 8.833288034902326
Zr 8.262299250978089 2.8789524898840977 8.384929785409685
Zr 7.1225022590063345 4.108745427057096 5.724834590984296
Zr 5.937541597939167 3.541752552386951 10.738125309727844
Zr 9.816048644564598 4.90595215530556 10.150090863044504
Zr 10.074471272726354 5.424648312467707 7.1004778579851155
Zr 7.14624183916276 5.579767263072566 11.981792390916647
Zr 11.387536518297036 6.6505656557869965 4.319563898505782
Zr 12.8828051640559 6.884186287365446 6.797330913161461
Zr 6.8509090279018015 4.614968407995709 2.5850084933936017
Zr 4.996923644046432 3.4649781674051674 7.984643648548082
Zr 8.434032667566889 6.854208239955388 5.3003157268275976
Zr 8.6961109194691 6.990095489993714 2.3691150505591647
Zr 4.183353397387281 5.829761293985299 12.406715889362664
Zr 11.2721725858039 7.646668726025976 9.257883805372108
Zr 7.263047764923184 5.547814922893042 8.643344465505301
Zr 4.756292437220943 6.181641488089426 6.62323825548169
Zr 8.989918179161004 7.482773392187945 11.537725109120377
Zr 4.499469629925394 3.934842201217423 4.528521565010458
Zr 3.0406685557502993 3.7235925191420263 10.382017340178825
Zr 8.650717837022883 8.341406146855281 8.4411279525393
Zr 10.754788855231103 8.765341060374169 6.352771480304472
Zr 4.617048261469507 6.037563428263402 9.581899049650948
Zr 8.4323005751503 10.119436964325827 11.146049376814123
Zr 9.904731515577346 9.584866625785848 3.546684617636306
Zr 5.477336758566509 6.731184794064283 3.987635993298909
Zr 10.227655129078766 10.70193647978733 8.746068670495768
Zr 5.945224154594183 7.43700810631231 1.1136727195924425
Zr 6.244250205331175 8.400700058935886 9.977901481183572
Zr 6.170277904041407 8.25633730173065 12.807604618037113
Zr 3.978913378359353 5.263334763008168 1.9844351715809523
Zr 1.8569932455415303 6.329776482463181 10.53004442748571
Zr 2.335739530872346 5.12937338155018 7.853069216596243
Zr 7.059796706473368 9.05696658323445 4.23613861259772
Zr 5.9398770798723195 8.835526020629663 7.009423916865323
Zr 8.607551016780663 10.81518360480614 6.114951274845952
Zr 7.853202590330242 9.630046048064502 1.4028921285215072
Zr 3.422337043342873 8.689470741297473 11.286086358359684
Zr 2.5867597807710547 6.219099628400668 4.544132866950541
Zr 7.0878380331281905 11.124086233024086 8.68119417077009
Zr 5.575975192021723 10.839679221531842 11.354182377302255
Zr 2.656436934703378 8.063984013130636 8.28878560959188
Zr 3.265296264276383 7.988972580354442 2.3443016312844587
Zr 3.661916889024903 9.131773516103255 5.061287592485124
Zr 7.6931391337550465 11.678159803135442 3.3686093452822465
Zr 4.161432922095398 10.390705588586247 8.821597444113113
Zr 5.592019851294203 11.352808895450833 5.464016731065735
Zr 5.064202308036081 10.223508287049562 2.430490331302835
