55
Energy = -405.93838427 eV
Zr 7.770121375748748 8.246753483723868 7.742046431559166
Zr 2.0228072054399395 2.874024087114243 5.817472853872495
Zr 6.7171206245624395 2.176942178513248 10.226135575440026
Zr 2.4968157029590823 7.679919534208342 8.169732101468181
Zr 7.068253078415965 6.078110675758079 4.819701451160276
Zr 8.059179418530306 6.3334708690039 9.876634193722392
Zr 7.352814063106129 11.168639712642241 7.39776613027045
Zr 7.097512755613616 9.428976439787762 4.978825293585349
Zr 9.56484971356647 10.523280216048548 9.03023098174268
Zr 7.774603274744558 4.05015049057589 7.927803915476103
Zr 7.195262065116876 2.732777962579301 5.11704409102321
Zr 5.211401949442069 7.709791839512022 10.283011337830041
Zr 2.4669145620623807 4.651607551294485 8.27426542704798
Zr 9.633383820921951 7.610877783535969 4.397305906775431
Zr 2.974431425906076 6.119705614394487 10.471626428402155
Zr 7.463138199223429 1.1056396750545265 7.456037664790996
Zr 9.595084647094057 4.3837689409913505 4.376099362219823
Zr 10.704315024286704 4.513862770016785 9.04897646890104
Zr 5.141489300782483 6.178698512622175 7.577821283274038
Zr 1.7116580725162591 7.548445768160087 3.3371314661050273
Zr 9.480809015818187 1.8060821471592987 9.316265329809747
Zr 4.952450066952708 9.42308871195129 7.657669452217989
Zr 1.6952637564412278 4.475088999496962 3.171610858978046
Zr 6.9177971015295014 10.062283199434484 10.242583521206386
Zr 4.9843920542329645 3.0163709238670005 7.509557317186222
Zr 4.674425921488377 6.3122204459199525 2.3955297151120614
Zr 10.80967795463808 7.864256797517825 8.814711813662903
Zr 9.686316521647209 6.060711547613331 6.820733657797297
Zr 9.334498179615492 5.972428780830323 2.1741297728715843
Zr 2.553628567445771 6.103042229983008 0.5131855337316941
Zr 9.936759936522293 9.726568206923396 6.413358212924693
Zr 5.245959970306891 10.054478922082843 2.4288670569702617
Zr 2.8703827645034665 8.920206894945537 1.1674407145674044
Zr 10.03956400479487 2.586891457103959 6.668035976463074
Zr 2.5387832008375857 10.429866888823414 3.427916934112667
Zr 3.627957125087553 3.3865101443334207 1.3432382210859877
Zr 4.422948837932614 8.108678125307804 4.8417698304179755
Zr 5.576034632396522 1.6275392508159396 2.7991274340217314
Zr 5.150120619499307 7.930736066989513 12.731278795297449
Zr 4.564007079571107 11.032169623336964 5.24445509863776
Zr 2.738696924040621 1.7510774574704762 3.332081754486268
Zr 5.181197236617941 4.927839973855087 12.462404084943914
Zr 4.519898248737712 4.045473907280297 4.539912611068441
Zr 7.316150878044579 8.090371716919172 2.327643669727062
Zr 7.462596415414446 6.242078315217225 0.1840987970071932
Zr 4.560091247655276 1.1149581974180562 5.472513510173493
Zr 6.955481341597326 4.161877880664848 2.264088441072746
Zr 9.79291763877773 6.248784770496528 12.090084580789247
Zr 2.4404438509706203 5.989949894660972 5.726303662436297
Zr 5.260262545159728 4.562311609608827 10.073555784391168
Zr 9.500783328799056 8.97660198230996 11.201509497997423
Zr 2.033318730938427 9.465719489542552 5.978255561727649
Zr 7.28878963581765 7.89018754614436 12.422521691566066
Zr 9.093836008322063 3.5957613770100423 11.312857159920037
Zr 6.985205719583944 5.134945753207111 12.462404084943914
