54
Energy = -401.61785712 eV
Zr 2.760237909325264 4.172822989702165 10.319131689680486
Zr 3.0599686565197795 4.574151043898969 7.32281874835569
Zr 3.7158916549557857 1.9945012052564903 8.661923405846768
Zr 2.88618112151821 6.950229375719994 8.88482111140642
Zr 2.6827005548255967 7.319940737960937 5.7017206640772615
Zr 4.827196055072909 2.2992568024667754 11.266533446240487
Zr 3.8795267872995796 5.237533024138195 4.153050602770837
Zr 4.8506878114167415 4.992680253530842 12.227652240541268
Zr 3.3555207003004393 8.029086520360226 2.562570030617672
Zr 5.537046754704324 4.291570575559887 9.168165892640879
Zr 2.194862019917242 9.552177388535203 7.802749170976049
Zr 5.318715883461481 2.928093170094915 6.393693421943743
Zr 5.774245196663733 5.9020168481936945 6.614676925372643
Zr 6.801105544470441 1.6723058079023447 9.076252172372886
Zr 6.812225068392281 4.594247739225399 4.069978034968855
Zr 5.656335226853528 7.1013019686385395 10.151960169774272
Zr 3.4148820801547837 10.119616172529978 5.087469846200231
Zr 5.543937776452924 5.924325338093365 1.8289248450068394
Zr 7.466098580924837 3.5007125370218226 11.593370722268393
Zr 8.943911634696972 2.5133127797689143 4.1606915337223205
Zr 5.549895457968414 7.803456841948289 4.187749689010946
Zr 4.08073736453252 9.548197505390112 10.209473347325366
Zr 6.0078357969209 8.538433117646656 1.2015689264675895
Zr 7.423085931192313 6.278606582064774 12.491680663244779
Zr 4.363290321744264 11.577940429158742 7.905341130322645
Zr 8.07996524687799 3.5887354531232294 6.9305817116378945
Zr 4.883717197249426 8.575811266316297 7.349707217905104
Zr 5.235639721073684 10.835249142064452 2.8848189322961226
Zr 9.43253370123534 3.124558025003884 9.420716863653587
Zr 6.917075788742586 9.979001130060457 5.468138588213108
Zr 5.2221225625770575 12.481298668169954 5.380068148652727
Zr 8.184523902394947 5.941210758514677 9.125091340376393
Zr 6.6913629713846134 9.559146898713475 11.813342386381896
Zr 6.027909237530892 11.815849197645129 10.177525122384184
Zr 7.254362066094649 9.349150415231287 8.792376183544967
Zr 9.980042719747347 5.343479354745677 11.263542908291328
Zr 11.030724507121953 2.8518129945870836 6.22602828409162
Zr 8.475120474299652 7.5984279382818585 6.464610209177582
Zr 7.993513884496865 10.178015961388214 2.304744080193147
Zr 9.172652066088574 4.707649614901398 2.1801944926523587
Zr 9.634551574380259 5.279905483954942 5.1196632347448725
Zr 9.074791029924532 8.224192673899704 11.316895370764357
Zr 10.930195216733175 5.320403756333425 8.033482095394438
Zr 8.263130279792723 7.296560993314677 2.9565161505937323
Zr 7.351999339596178 12.289033022069145 7.559149672350436
Zr 11.549264473209826 3.7193271447470515 3.4292844490461434
Zr 7.917199176138489 12.206938886157669 4.302666901589182
Zr 8.913971195804773 11.097450194978784 10.13072395915362
Zr 9.53678729854625 10.38496263162881 6.98859517254722
Zr 10.319895319724031 8.230839133223919 8.954609649170141
Zr 11.538420746506596 7.817271187352183 6.172537117337742
Zr 9.90528727013287 9.475527663154326 4.2912479267770385
Zr 12.597424515175135 5.255557869484122 5.56615828536873
Zr 11.307097286545874 6.718685595112992 3.20021393147084
