5
Energy = -29.45029812 eV
Zr 5.975182503458139 7.287870176229113 6.9977929199499265
Zr 9.892291572175761 8.60697443616567 8.797729708905054
Zr 7.195874147926902 9.323278988553092 8.518416951547028
Zr 8.584612078227192 7.9171673116789885 6.506617791743524
Zr 7.9052487425405555 6.613528130887176 8.903361653201108
