50
Energy = -368.36832029 eV
Zr 11.579417583331532 6.739197144861722 4.491885741226133
Zr 13.172761328925244 8.207520360992206 9.286787117717358
Zr 11.557252176336883 8.394627357208657 6.879914321470148
Zr 12.9468075876496 5.9668120778288 10.84471317357093
Zr 10.691852419719268 9.550589066343555 4.194867269687641
Zr 10.186190651652296 5.31050138371069 6.76261617057493
Zr 11.047723241769207 10.263339457971423 9.492677834923855
Zr 12.512604123038098 5.512985861486528 8.13123924141642
Zr 9.405835153031724 7.422812753730118 2.6672526268040233
Zr 9.567669295639677 10.658975761070515 6.811491026892495
Zr 9.26669432457411 4.836977280251333 4.146406694511292
Zr 11.60192346178915 8.26463472654564 11.811279641748108
Zr 8.577935706804535 2.502615730097348 6.217089444543776
Zr 8.350363022866052 12.17102398825339 4.606177210227412
Zr 8.786629656281146 7.6470845220290204 5.622811942556672
Zr 10.335049978459345 7.180131430210665 9.36490586239419
Zr 9.245907409456912 9.69872947093204 11.607976906211151
Zr 10.413803603323851 4.983570356265585 11.395685967862256
Zr 8.5499021092022 6.96012471233964 12.154532069808786
Zr 7.643967869510495 9.518776527504773 3.5817079940613255
Zr 8.07330046942803 11.427514323712092 9.747176275438417
Zr 7.992484804620596 8.75239587565071 8.49264672943289
Zr 7.067984875452916 4.970889542663075 6.510783454726008
Zr 6.052556319657606 13.697383041620562 5.195787868476173
Zr 9.569837122602266 3.616106468188485 8.94807825865944
Zr 7.650539015736875 3.8991895477170067 11.518261601513391
Zr 4.92811541479023 11.549541113081741 3.9772185086429257
Zr 6.491373007697618 10.366346655686478 6.227144706913694
Zr 6.828703612927265 3.4017369164420073 3.882498392950436
Zr 7.392957621930655 12.858853535073042 7.411177050723148
Zr 6.585576893696294 6.339582649680111 3.4459224266555792
Zr 6.586437132015274 8.92892363831929 11.113563215970348
Zr 5.560009039066939 7.547422733140111 5.79180272433624
Zr 5.362429336631325 6.373933309739197 11.876277368104024
Zr 6.824439590679745 2.6682949892019936 8.775461335434416
Zr 7.426823102221707 5.7821028690194565 9.481741834006279
Zr 5.1482774894975085 10.505108842058135 8.895894777000757
Zr 5.659311507288259 2.274770731991009 6.1497438861802465
Zr 5.071325620572192 7.456144221719255 8.70517747263885
Zr 4.925127755247975 8.965808791227762 3.0117335209968283
Zr 4.213747345153199 12.271791204312143 6.831672354897884
Zr 4.305891376232757 4.5907365956743 4.897529930973512
Zr 4.912789561304305 4.090831869419234 10.43910941748116
Zr 3.359795957283603 7.081121900853331 3.870038225885858
Zr 3.730921672291422 8.761315476806567 11.078179031289148
Zr 4.1442634368112685 4.215619840959557 7.799502238884528
Zr 3.4884606146926354 9.478536003604722 5.913347284593151
Zr 2.825233681888241 6.149641503547098 9.961648075311144
Zr 2.6654723316940676 6.583096123603717 6.799640087031875
Zr 2.431956238469864 8.87245447027739 8.63810165246112
