54
Energy = -401.14661148 eV
Zr 10.782292049699366 8.16417174043487 9.808489566479757
Zr 12.095985009529151 8.720133275044871 4.744990218670914
Zr 9.235013786117804 10.74684986176293 9.5672642665173
Zr 11.720269807687302 7.052844205132762 7.029147022956085
Zr 8.738181877125312 8.921428186884162 11.991696936622375
Zr 11.005655624134747 9.92191577819148 7.185774217040977
Zr 10.438093808724688 6.422397325629351 12.091877268202255
Zr 10.639067183652783 11.29162466432625 4.1794592197182086
Zr 9.408781521718806 12.182888961797305 6.775343052751967
Zr 11.89177039027972 5.913045037036539 3.973730269245689
Zr 10.535683744129702 4.828828910731891 9.522963869999693
Zr 6.359820715605083 9.801595871294793 10.082204861533592
Zr 10.458840066886628 8.487922298800129 2.53377733621252
Zr 8.081929245273686 6.6171789206382545 10.35085445919517
Zr 8.822304825469717 5.716647929841269 7.512376528694479
Zr 11.442376770860525 4.349572187843619 6.552183325927807
Zr 5.617752434691871 7.760270833642805 11.920447840736555
Zr 7.806807849968943 6.348805304189099 13.302239802737732
Zr 9.331323221554895 6.682792297883553 4.845958876520503
Zr 7.674938943248691 12.21312805849455 4.585987055264257
Zr 8.304383867595261 8.534500225311572 7.897529868111528
Zr 8.71298320376395 9.455314136865702 5.019994166404259
Zr 8.262666520612102 10.61681229975459 2.3432500295233205
Zr 8.751553183825648 4.0458006694306 11.852611032452888
Zr 9.55108394988613 5.555332404391211 2.1386927346460136
Zr 6.777008516186453 11.00485157584069 7.191920488824883
Zr 9.764713656401286 3.6350652550535663 4.428695524502158
Zr 4.26814934310259 11.56977596038129 8.77068617909097
Zr 9.113033912914924 2.6360921374088186 7.206154525192679
Zr 7.550921890863736 7.704134978599479 2.498295215204818
Zr 5.808132137200487 4.8740378014801715 11.62725139683889
Zr 7.301926007609336 3.682167383362727 9.242697447731349
Zr 5.765747064397161 6.644284647093357 9.004063819392773
Zr 5.773846223554245 9.817798492848679 4.184680445669448
Zr 4.647648206282905 8.896449604839843 7.435037498828703
Zr 3.2617845828289824 9.18082891767807 10.114473542947731
Zr 6.307319654190448 7.165359938281572 5.379024449421475
Zr 4.015821234055022 11.364185238482934 5.884008573330661
Zr 7.546073983969733 1.8768586438441617 4.715262670803967
Zr 6.588578191091345 4.199239356087437 6.227434551281065
Zr 3.222467826434576 6.05752507377798 10.315579873030908
Zr 6.829744462051034 4.8417748719680125 3.326153994802784
Zr 4.340109614912245 3.3782299298958147 9.148175603329555
Zr 2.021271974084676 10.195197671206085 7.521475436705291
Zr 4.705854055628962 7.28358618172576 2.8384729092150627
Zr 4.068698693978539 5.6351317847490945 6.88839280971241
Zr 5.722728624470362 1.6140552833973014 7.082607484635155
Zr 3.030471354893688 8.070254699325004 5.158381169060646
Zr 1.8377050818698744 7.427635029667661 8.070067409716179
Zr 4.938824601560027 2.4782411276590097 4.308339266770858
Zr 3.5665877086020634 4.948961533248825 3.9668333352830647
Zr 1.741493505070486 4.457725105742447 8.455273431350603
Zr 2.9899655403483436 2.874923723670033 6.392429210747331
Zr 1.38128816572624 5.4536254096440775 5.764954187396458
