55
Energy = -408.96505365 eV
Zr 2.959687783614362 2.9289840651765875 0.5995062157876831
Zr 7.408759341991569 1.3541422262652112 4.453030011551871
Zr 4.533015710020501 0.8088136062904843 4.9545081880237705
Zr 3.9043295588039237 4.975153565299468 2.7067182321382237
Zr 2.665333591622004 7.725027783090771 2.1638178181617405
Zr 4.9460529272952884 7.252073361337227 0.7013099116928644
Zr 2.758288552514945 5.62616658444216 11.254169506594478
Zr 0.894162517067907 5.6143126520537106 7.323219917755236
Zr 7.493368651895929 5.175527158150516 7.537160242921477
Zr 5.487702507434202 7.334553304030721 3.750156503932317
Zr 8.526934325770814 6.706271611018974 4.671211567866102
Zr 6.205810433476469 2.30506595227452 7.250957928381745
Zr 1.0302682018505784 4.705376554129706 2.048800716558235
Zr 2.956798029275412 2.7022993331977894 10.563704447561838
Zr 1.2822956775059273 2.8073840673012254 8.070220438242897
Zr 11.388346668210803 6.154495697450936 4.506027097725236
Zr 8.641353069401408 10.022254855869692 6.5973143913944865
Zr 10.006353332014186 5.090773945818295 2.041571715402965
Zr 3.7838934860312814 6.680285590822645 6.292198555501838
Zr 1.3011729457048333 8.39037980945238 6.745230326831452
Zr 2.2809047134662594 2.0796291185633877 3.1658635521196548
Zr 6.450654487544407 10.263964360224552 8.447431031022244
Zr 5.400670213155619 4.289241500449096 0.014308078570285342
Zr 10.576684711225282 4.412324060201105 7.166944984552457
Zr 10.11891269938318 7.939040184158606 2.3915352871268967
Zr 10.72758497781039 8.949918633867709 4.840562465062205
Zr 5.253331179517401 9.86356850833138 2.4504554353897885
Zr 6.5005598445425905 7.9942540860126625 6.591148536423386
Zr 4.117016629774993 4.6606210457911175 8.434058170334712
Zr 9.863317880953359 5.683518782976484 9.598825962216312
Zr 8.962873261019068 2.124925803958235 6.715633965140433
Zr 0.511269618133909 3.6587100412023585 5.000670777877772
Zr 4.063122646041167 5.338674776055688 11.254169506594478
Zr 2.466174066276924 7.354807483837489 9.279353289503655
Zr 3.379810449391919 3.5998223642304907 5.653202424854662
Zr 8.098340749537279 2.717107595102196 2.061753545971071
Zr 1.3839950913936905 6.560960319021642 4.457493715721941
Zr 7.065802619846319 5.396350930767213 2.218344650607563
Zr 10.266080398862037 7.3601980969420095 7.193186130099964
Zr 1.7717191328824136 1.0956961879696026 5.815823849655511
Zr 8.712216650008731 3.140854694378946 9.361361210724745
Zr 3.801481111204672 1.390774615212276 7.989529592995993
Zr 5.754610709797597 2.947771750082718 10.234577498060009
Zr 8.078336690233675 9.85753060606552 3.686595798795862
Zr 5.782782899024083 10.652008857224342 5.470499067327605
Zr 3.198921749961777 9.29427991246138 4.776358922363546
Zr 7.141074698083867 5.457439393611088 10.59054234540909
Zr 3.830577555317193 9.645756553288603 7.614497344892074
Zr 7.509566152564003 8.253034467434162 1.405095703126525
Zr 5.319381277899908 7.528316931356242 9.308418990985468
Zr 5.259093152651735 2.3218194865674797 2.501201105647697
Zr 9.4545448596661 3.727480739568485 4.459443284162959
Zr 6.306622528075303 4.299167009230267 4.899992579414198
Zr 8.213595043082169 8.03499346883764 9.150022508327263
Zr 1.3675076163035267 4.90916128767879 10.097354317352252
