53
Energy = -393.74995795 eV
Zr 10.648495707948946 9.496491127794918 3.0188640351228804
Zr 11.68071237298972 6.655091883506413 2.9986167983178063
Zr 9.484670425197894 4.801162410879915 2.094818548079431
Zr 12.026516435003773 8.79730394459359 5.487557960962115
Zr 8.889911437371477 7.504828119831752 1.7051333496468801
Zr 10.600283194670828 4.1084460588886405 4.600551827468343
Zr 9.416241369630862 10.622823542708984 5.406475228773718
Zr 7.662524589337158 9.551632554733787 3.411062961150744
Zr 12.313606656644101 5.916896786613903 5.7666520135816315
Zr 6.513730080300808 4.862463325799206 1.4407799405549004
Zr 9.611205968285379 7.349878221731457 4.821274122992603
Zr 8.168312036800092 8.408715717989363 7.325995288696939
Zr 7.911653991100579 3.035535446251003 3.8723448988356495
Zr 10.591336909914416 10.13133946927199 7.854814493423282
Zr 5.392314214617277 7.753208352369758 2.2484662046631967
Zr 8.143313608417373 5.153706884526156 6.316313837557166
Zr 6.281537521745923 11.191306435107505 6.021190872980246
Zr 11.126501093743284 7.176274314445894 8.042213295008363
Zr 4.7975183362207385 10.306533109487605 3.5606602080954755
Zr 5.230330660792156 2.898135205011556 3.118632314718835
Zr 5.78564818390619 8.229390363306447 5.395628549885738
Zr 10.738367649292432 4.276040669890672 7.855839386738381
Zr 7.612407164238657 10.811605900617149 8.902496232994674
Zr 3.5019145192836785 5.237504626814009 2.4230578774437985
Zr 7.191198257045518 5.975400159120585 3.8366507191346115
Zr 9.706491200106045 8.551726176190597 10.10289862959858
Zr 8.504523336070456 2.530024056337587 7.394872031416218
Zr 5.22597240731261 8.922457612583163 8.301157838729097
Zr 8.31229515708057 5.748262236337577 9.10025273136197
Zr 2.911351156617893 7.996224350227873 3.8425700814299844
Zr 4.5504532426803435 5.544478973420083 5.066567314955013
Zr 4.746382590267473 11.821183187081047 8.386030059110643
Zr 3.4785495094902625 10.29578195256046 6.189853270327976
Zr 9.159275365396796 3.0558673156924625 10.138561628807267
Zr 5.757432055248881 3.016046165097319 6.181824422700078
Zr 10.406559602253992 5.612520752479981 10.895401735757977
Zr 8.215354988199518 10.308953199223772 11.787997330851784
Zr 3.0303207885545413 3.083360966559654 4.681745286500908
Zr 5.511206305310094 5.947245827636648 7.917049290123076
Zr 2.895651276675787 7.44559709486118 6.828199877610005
Zr 1.6201994871191914 5.464929277855794 4.9484365722533346
Zr 8.62931304790259 7.4052781012143996 12.798636315257074
Zr 6.31929523474537 3.2889256700772167 9.27844226882074
Zr 5.339780944017438 10.76506072391409 11.020963250567801
Zr 6.651469815466535 7.913304080354646 10.67857531124338
Zr 7.526804628938438 4.673798073249828 11.871040658203922
Zr 2.7868382661203004 9.816608090133803 9.374480784805334
Zr 3.202852113336449 4.351549378636392 7.428330280848228
Zr 6.242728863524201 9.19651917435217 13.39504150063706
Zr 2.8356368847431503 6.806546629265557 9.479804279234534
Zr 4.681402886499954 5.310146164140727 10.942424942350387
Zr 5.793586872077442 6.490614577444652 13.280053116033566
Zr 3.8570102663642167 8.247651478091983 11.80607319614644
