5
Energy = -29.46913775 eV
Zr 7.111552588701284 8.915987024085162 8.196512518445195
Zr 9.105057085613902 7.074737681527673 7.461652639040098
Zr 7.722029368428327 8.627270439610568 5.549501479431945
Zr 6.410189545925978 6.519671513829746 6.90917197683408
Zr 7.320930083291047 6.5653896116024795 9.585025710910411
