55
Energy = -404.94483418 eV
Zr 8.952276897906712 9.23252214601659 8.725234115487204
Zr 3.758918192098169 4.523764358701459 7.528265634833943
Zr 8.373581332230218 4.219316930232929 11.464716529182391
Zr 3.694657180537008 8.997399630088495 10.401956754850147
Zr 8.8036202342128 7.581727446572781 5.854754773732583
Zr 8.985916556094404 7.582358636095254 11.30755425242926
Zr 8.820047064006074 12.240417572635744 8.691505878640543
Zr 8.843532955007298 10.73922855688966 6.05667154107659
Zr 10.934657561032335 11.857828450294273 10.536331705054735
Zr 8.959980565437233 5.933938912983234 8.730080395052013
Zr 8.856026607191863 4.426733216694576 6.062618056945348
Zr 6.20398611197946 9.05378219620776 11.968240462618866
Zr 3.705648078882918 6.163018199853191 10.406712677091765
Zr 11.352197819915833 9.097024971078099 5.239682841356587
Zr 3.849556518608452 7.583377220180408 12.98978741144425
Zr 8.835682532618682 2.926007349414605 8.702376626058323
Zr 11.35775297188542 6.0729972247466435 5.2418044109810475
Zr 11.74510583308713 6.102642489851999 10.494932989429516
Zr 6.360229263516557 7.580578247462155 9.245963573833354
Zr 3.4003417010662633 9.014747416346218 4.981447615122701
Zr 10.949518424531544 3.3187730430238753 10.544496103056572
Zr 6.228109987817555 10.634885480685277 9.25708812270778
Zr 3.4055041355535454 6.127859478421283 4.986148792152027
Zr 8.361889789912599 10.949399055559308 11.454545079800647
Zr 6.240935354763816 4.529115136076712 9.26907728980629
Zr 6.360504654892307 7.575550241422918 3.8380521011515087
Zr 11.737073336872552 9.074980448859494 10.49186757477212
Zr 11.42194363981061 7.58587878159322 7.842489161686309
Zr 11.155756316063545 7.5839025585122135 2.8299413943036216
Zr 3.940727098672709 7.570085852488404 2.167257164220377
Zr 11.390915785006277 10.735759918509165 7.980835569340105
Zr 6.654430302209911 11.004240573370332 3.9007143769091495
Zr 4.221192832837034 10.38501290465165 2.609546821009324
Zr 11.402399650831688 4.436863998308543 7.987247581268366
Zr 4.068003983868349 11.824317684822173 4.962619840427619
Zr 4.232942823676519 4.757190742613614 2.617414941799644
Zr 6.188714797331412 9.18250584770626 6.500449343624279
Zr 6.667845338454874 4.151361133048395 3.9092922705409108
Zr 6.5299651071988825 9.14693929200238 1.3618883966550377
Zr 6.252553161694938 12.231440824055529 6.671519951850572
Zr 4.085523398473164 3.3216446142322686 4.9746681312107945
Zr 6.5355135480132605 6.003042216802486 1.3644671527570225
Zr 6.194649200511434 5.9764858642471355 6.505309336926919
Zr 9.026551818836321 9.482400486736447 3.2548291895840853
Zr 8.95739042301026 7.579046391415824 1.1421510859894877
Zr 6.269691419294974 2.9293570829872104 6.6862018331703545
Zr 9.036093590975762 5.676676484977026 3.2553637341225365
Zr 11.208414051726356 7.591061365574242 13.260692020703368
Zr 3.717005631442011 7.577556785214901 7.697050789403596
Zr 6.2164184274966905 6.122104280251312 11.983727194363865
Zr 10.810221963065938 10.414457910729027 12.88880663641587
Zr 3.7468980907542995 10.629926217555473 7.517740670918977
Zr 8.56097293627274 9.042133560428574 13.860491784020887
Zr 10.82467440652423 4.763584746018349 12.894759392291084
Zr 8.57514312683147 6.124852357296413 13.870415458361991
