51
Energy = -378.7349845 eV
Zr 9.89037845651796 2.513540688231019 6.236392071213841
Zr 11.0953274755819 4.758750030045924 5.132917526917419
Zr 9.653480656450409 1.786647356222459 9.033364808549605
Zr 11.411995266360579 4.185028558884698 8.107990587355564
Zr 8.059973294016377 4.151243292687452 4.307800717071495
Zr 5.623458230584007 2.366209440416029 4.505565436569882
Zr 7.136750249211835 2.3385289572118966 7.105713483469667
Zr 7.805628579600618 6.3840737528809735 2.1101026172772346
Zr 11.149542258091703 7.531247265321098 6.764909445396464
Zr 6.739571260663088 1.6431795417845754 9.976849935170334
Zr 10.852675763857329 3.920744199588022 10.898551057424218
Zr 8.80858857241407 5.326158221953629 6.899339379186453
Zr 8.73531670285806 2.462589546296478 11.845099571415702
Zr 9.435405229649026 7.044317281085334 4.472559728541164
Zr 5.309861168590817 4.85881836976777 2.965614673010849
Zr 8.143027530973978 4.294566839677919 9.490338109912354
Zr 10.177389701465758 6.588396759245347 9.790455213952512
Zr 5.634492409424055 4.881987921292785 6.292954062273084
Zr 4.056135395733134 2.361272633472288 6.910469955254276
Zr 3.172621268659818 3.906800720013543 4.69114798036508
Zr 5.188996773493214 7.97938306072145 2.3838925680412615
Zr 10.937136535930154 9.355363765371399 4.097557104460256
Zr 7.820325384859296 9.384571285481327 3.0964209990620986
Zr 6.722434899605782 6.967292832781088 4.764391006391403
Zr 6.215474007156955 3.986165621292545 11.780843595627518
Zr 5.10167841843869 3.928619387969166 9.059112404785738
Zr 3.522006850649517 6.786900841429365 4.766882625224767
Zr 8.720645306546986 5.417485065618817 12.219145640108461
Zr 10.915816883958868 9.286569812116536 9.092581145469673
Zr 9.713503516614471 11.801672478181361 4.092795903701844
Zr 8.488927884619473 9.862002049461621 5.921986779849329
Zr 5.106731798294999 10.90869975711122 2.66612615675289
Zr 5.290339582881041 9.424909588253554 5.357007058607963
Zr 2.8348271498990267 9.49447982689517 3.462699205736412
Zr 8.714199956813415 8.97300710040953 10.909145454725069
Zr 2.701690063050647 5.205724647660875 7.298781071518587
Zr 8.176544931565006 8.031126596835913 8.098743831467388
Zr 11.123371956357015 10.857698442376993 6.71053400816552
Zr 6.580713360181058 6.807673628715251 10.406526543576065
Zr 6.74956347456013 12.078407557696545 4.579870853907485
Zr 4.843531937564524 7.547235618250646 7.815852608837669
Zr 3.5169364989244034 5.97095255478018 10.078247159880327
Zr 2.1602715920520317 9.260990136346123 6.080989819023847
Zr 8.937226718764789 11.304156631075765 8.911705558351922
Zr 6.280394109168452 11.654497329235168 7.346825318232205
Zr 3.687701787071296 11.769304795801807 5.248056977877495
Zr 8.925865812850537 12.873548525774083 6.538379392473808
Zr 6.252241380714694 9.85499518789607 9.443834285715843
Zr 2.005157395881404 7.96538869507403 8.630229869307737
Zr 3.9710051236704627 8.668892840251509 10.60519533343496
Zr 3.518383720836715 10.504119892677203 8.215212258422417
