5
Energy = -27.28736609 eV
Zr 5.881037277797506 8.058638327513219 6.253290224913321
Zr 8.013973168147725 6.793452588325467 6.253290224913321
Zr 3.5809319909021804 6.958097262487486 6.253290224913321
Zr 5.635781146643527 5.206929221687575 6.253290224913321
Zr 8.15472754107554 4.249333724552735 6.253290224913321
