55
Energy = -408.54536765 eV
Zr 3.5504533145379384 3.466577577189925 1.2846279750818481
Zr 8.180984848272146 1.9936624212211667 5.234295649725478
Zr 5.40137421889251 1.4065213184347054 5.867083800144791
Zr 4.553536097050631 5.7282194255075805 3.1022449842405493
Zr 2.617153798776225 8.20528063877288 2.280564520704577
Zr 5.280607577403155 7.8747482902642805 0.7884103650510209
Zr 3.1521548024240635 6.091763724090229 0.3783154572107099
Zr 1.8997730112519096 6.844547029554034 7.874398962226959
Zr 7.593279934060066 4.247491757517543 7.645843312856757
Zr 6.405413536552739 8.05940474972373 4.216745724974318
Zr 9.440733854540074 6.656473713213377 6.966868512324974
Zr 7.390904803841452 1.4834289481724348 8.304244820811464
Zr 1.5572331885091566 5.3497811719863835 2.694798704594816
Zr 3.5847004141478322 3.5194950544993286 11.015765112763916
Zr 2.01377400019747 3.815214515683856 8.625739965984463
Zr 11.964754284097463 6.485400540198729 5.524248832765477
Zr 8.308799254596915 10.036808261648629 6.441490604764018
Zr 10.41224266790487 5.75629213733284 3.0900655120153697
Zr 3.780148797451619 7.528997452126043 5.522153240252763
Zr 1.906854474062165 9.57950995071538 6.992062499240834
Zr 3.265535506776843 3.0199527617452575 4.006644931216355
Zr 6.6860740811502835 10.561961793894664 8.567576302750053
Zr 5.797807740910003 4.855653829234974 0.3916413856094016
Zr 11.57747381228361 4.578065189563121 7.9202128879207345
Zr 9.349433090278662 8.211685071008407 4.144760696239802
Zr 11.024643460530058 9.213594676818097 6.415874983190425
Zr 4.945135282128872 10.141420476842173 2.651796450764202
Zr 6.632562188341638 7.5483828064530005 7.354054810520893
Zr 4.562263496630783 5.787047282857081 9.012040210567767
Zr 10.243421050874746 6.186488207520537 10.051307189271087
Zr 10.011936073360244 2.1890751669490602 7.400612709723497
Zr 1.845130386049453 4.8756852184217365 5.693722054201052
Zr 4.787880439362982 6.030295680680889 11.908385702687202
Zr 3.0735430961807233 8.212263816978215 10.513853882623067
Zr 4.840016636799331 4.386880745598318 6.17610952730689
Zr 8.944267695535308 3.448173247810441 2.716972772212522
Zr 0.9571799201762341 7.686171715692441 4.7692153956789
Zr 7.672712736875691 6.14946896720069 2.0839422692202625
Zr 11.936878678925853 7.4755444001988 8.365173191688092
Zr 2.7048959642693124 2.092151850109831 6.5490794421025145
Zr 9.393657529262066 3.449252965210834 9.857832341300202
Zr 4.533238783956601 2.127903129708863 8.700274218776539
Zr 6.41135072250908 3.523163937105045 10.522583808012207
Zr 7.653520899465419 10.810215154847509 3.7954688552610367
Zr 5.310771102715448 10.610529368960023 5.729861850182335
Zr 2.5888388777874045 10.133493130237545 4.401413485411957
Zr 7.48932165774396 6.128201301977456 10.106029041951695
Zr 4.320009626000652 9.070881314943124 8.168855525079653
Zr 7.733257254088758 9.10668240985231 1.7055578438849917
Zr 6.017121858113534 8.386602481041221 10.482711703346045
Zr 6.070963726724694 3.1444667379294517 3.104873968539798
Zr 10.662990183767349 3.7483974105470406 5.13963030247322
Zr 7.7074259638264095 5.258692233386444 4.8120369260370115
Zr 9.184547250503476 8.838213534931919 9.07668944257328
Zr 1.9743796519620445 5.788786610329731 10.75829863837709
