5
Energy = -27.53124735 eV
Zr 5.922350692134902 8.316212921514044 8.230127123599669
Zr 10.423135888141884 8.517572344375242 9.314616373333417
Zr 8.12297538371147 8.460550460286976 9.801851878482198
Zr 9.068566885000386 9.411917052498689 7.120793821428288
Zr 7.813420565697033 6.847583528296462 7.0676645413832935
