54
Energy = -399.39848343 eV
Zr 11.675335117427947 6.579662736172593 10.436805058081108
Zr 12.453133380459734 4.407433191259165 8.470049992317136
Zr 11.730637271628714 5.072951822777868 5.522548341640749
Zr 12.504732247845931 7.399396203916247 7.648218280434604
Zr 11.94949308186944 9.386890539399722 9.707269933064138
Zr 9.625622637220589 8.672894983000653 11.599953688322548
Zr 10.194634012811624 3.91116842769599 10.3586641082486
Zr 7.670403930745704 10.600917541184801 12.430841729920308
Zr 9.572401270102088 11.204741715242863 10.130423682337268
Zr 10.471588823276388 10.540645117325715 6.73433570598642
Zr 10.506103256650475 7.759237388410163 5.37063193996877
Zr 8.41086090699922 6.114375652134296 10.614602232958307
Zr 10.60972497042315 5.880248752166302 2.8851055717919833
Zr 10.003919572456496 5.810578632765476 7.899839574258699
Zr 10.03905113934602 3.0138205548650636 6.692940895605339
Zr 7.784921281382696 11.77473242476489 7.715236294698202
Zr 10.064662300665397 3.2073342942428527 3.7267974956127077
Zr 9.86325785662799 10.071989826740989 3.7304937832106324
Zr 8.608550527582631 5.308805082809034 5.262046570899802
Zr 9.525440269729176 8.500945730141222 8.544455215563293
Zr 7.075754707577172 9.463099788872393 9.63837545378816
Zr 4.903611883448203 10.406422931680044 11.470214702281918
Zr 6.466281779165683 7.936667818000074 12.14654516454071
Zr 9.584597244805273 1.6003434551732674 9.048438490013613
Zr 6.784637765138078 12.372418736176797 10.423888134009893
Zr 8.436675579999239 12.064307640943712 4.98815202381975
Zr 6.583468809335276 6.7725301968495755 8.114011976850726
Zr 7.580446924486534 4.104560446576885 8.322107141945716
Zr 7.807948936262885 9.231687171382124 5.91454442377339
Zr 7.449562197471848 2.487602368022069 10.728795604350632
Zr 7.437171714855964 2.611187011051896 4.629971937041162
Zr 7.891768964945769 4.744953751238495 2.3365314798611223
Zr 5.71475871215172 5.0942992858137774 10.738131557437532
Zr 6.949029734198643 10.282554233872302 3.0994950730965742
Zr 5.631432399429969 11.548075517127675 5.512357664018855
Zr 4.801696186836053 11.487809727856833 8.505968476803577
Zr 6.160634404303297 6.950671664208874 4.8086815990813445
Zr 8.492282810705563 7.694474170396052 2.914661504727059
Zr 7.104600570095036 1.380225603043935 7.662488662273931
Zr 4.27032744946419 7.866366541080757 10.022461472514804
Zr 5.028070592246857 2.617752482258686 9.190565477718245
Zr 4.747684157918302 8.754293151727902 7.05187194498216
Zr 4.323301418733359 9.289775153699807 4.053653810008307
Zr 5.2397741730917815 4.467968521625318 3.433220108229227
Zr 5.2529715699822805 3.5946663408319024 6.328497923969272
Zr 5.822380839679492 7.2912682952325145 1.9039346627846463
Zr 3.940273612018225 5.124702026381165 8.571602232293072
Zr 2.6561976448159217 10.74161436077789 6.217234957319445
Zr 2.436756878208145 10.065365737778588 9.17343104736571
Zr 3.575070597287418 6.023436082195641 5.848645732633332
Zr 3.454487773477964 6.6670210967080985 2.994658128561155
Zr 1.9549854356689924 7.524452951173292 7.9019622620329715
Zr 1.7500707984330455 8.200956558034509 5.04608816417818
Zr 0.2760308834101964 9.6252541601193 7.215445900413419
