54
Energy = -401.36152704 eV
Zr 12.243234951339426 9.158769006314564 8.7709980881676
Zr 7.596480890196919 13.17574580273595 8.436873851424536
Zr 3.296286695714582 10.507230936724486 5.53473699524886
Zr 11.23348794977919 9.269701612705047 3.6867898386860425
Zr 5.760099050183864 1.214012392422221 8.928623729551733
Zr 2.1451095980397725 8.093487013844124 10.202153965572041
Zr 9.439712470745656 8.423170804263785 8.71972402771006
Zr 3.323398155705926 2.56463099611241 4.887373924688905
Zr 4.369973804359808 9.789791403027785 10.03386367569113
Zr 7.092477221236514 7.171507467587003 5.460403216008403
Zr 5.381519678823615 4.716646140858434 5.37907563702444
Zr 5.124881009733561 3.7255908882139557 10.359802982601778
Zr 7.318754178521363 3.349740340698097 7.291459993435008
Zr 12.812184918398316 8.317093231444469 6.015713568898419
Zr 8.026575212774947 8.02243964147382 11.344886819072153
Zr 9.016549467612052 5.687065619740621 7.048404085848723
Zr 3.8188093052799297 8.016855171434988 7.490841965779533
Zr 6.313112233492703 5.9598843677357864 2.7966610270919743
Zr 7.653494630602856 10.702828319941224 10.097603363980179
Zr 6.015771625846282 9.909355991721432 5.204078253308481
Zr 8.184161740245031 10.696057285283471 6.963960328793444
Zr 11.547327629880343 10.992746572464828 6.337796242650925
Zr 7.8277150653720895 2.595266887825487 10.272428241371774
Zr 10.316698885590903 11.666247338310907 8.984866943108813
Zr 8.524441252429035 0.9123533737426601 7.784152954282706
Zr 8.222311804057599 1.5842822407431156 4.844455311787307
Zr 10.242352751741935 3.1065164696775414 6.2250944200044245
Zr 7.830620950109819 5.598989512451824 9.998848732457303
Zr 5.496165101272163 5.48777927830052 8.077333309337542
Zr 5.217621892781639 11.216767954324373 7.796499480086391
Zr 10.751680489483892 6.77990386421049 10.53169176721691
Zr 9.347268484387959 6.919945611122026 3.001472501076551
Zr 9.765482628343912 8.367783120354519 5.837518911456842
Zr 5.90396142305197 2.7308721649222574 3.354173081343341
Zr 10.372375217472076 9.69439464146432 11.150990283955197
Zr 11.768664554669492 6.257098390401695 7.747964202484976
Zr 6.6227946768794475 8.389591731583343 8.473960589572753
Zr 5.650805280435143 1.1031863161912918 5.998189511998531
Zr 2.516910853297057 5.372684371407454 6.120851354481702
Zr 3.7318643306653727 2.8079141481916525 7.739725767147346
Zr 8.067980124198131 9.203033807376457 3.2540634137100164
Zr 1.8205699985146218 10.109571521597806 8.049146034699453
Zr 0.8211085817648571 7.255743545879273 7.893839746895736
Zr 1.5556765968935444 8.357391431307441 5.523643384424008
Zr 6.781515722454292 12.796839517420265 5.5921708694019285
Zr 4.272309835265088 7.540541614585343 4.438072624725005
Zr 10.064653609601576 3.556680188142849 8.976823762678784
Zr 9.612190960583057 13.255011893224001 6.459972928753243
Zr 4.87290154068677 6.947685891590266 10.523304061924579
Zr 11.354019941765797 6.0819612410232295 4.754006548502832
Zr 3.57040306729495 4.857213284898278 3.2054592039406824
Zr 8.486870125613924 4.387685204575857 4.1722097779108935
Zr 2.7111347006737763 5.378436908690154 9.187750741324795
Zr 9.409478026047694 11.60130738191674 4.212865445693826
