52
Energy = -386.38003328 eV
Zr 11.01826538610638 5.876279838617214 4.165485056691629
Zr 10.678114252554911 8.804652045378434 4.985498902761518
Zr 12.71585061319075 7.16521468827789 6.187888950040836
Zr 9.134188108920476 7.7793881177353175 2.4479437492462597
Zr 9.687173317555645 10.927513050178032 6.484361102461891
Zr 8.35511316864466 4.847711851960567 2.524330360292209
Zr 7.765697765119022 10.007918232337389 4.243508853883118
Zr 11.63478026928227 9.263443771389543 7.914308135729956
Zr 11.874111198243524 4.474445269611901 6.54697206661689
Zr 6.993683847733002 6.617978803878698 0.747355511695363
Zr 6.857884274220468 9.335814019777782 1.3435617959195056
Zr 10.057817130774977 6.739092311894902 7.6835736079961725
Zr 12.450365217879057 6.261367513292772 8.971645246881844
Zr 9.052348458452586 3.445658342874892 5.726491845417507
Zr 7.681248334819988 8.594923931958704 6.8771247218722005
Zr 10.49366584071773 8.176959376772228 10.605958842945025
Zr 6.064518969882645 7.499898443045628 3.5257299818360646
Zr 7.013769862136045 2.5229887089860075 3.5250704121682217
Zr 8.979083631447546 10.330602152742829 9.238673142922261
Zr 7.047129116586668 11.623469104272226 7.476894761932793
Zr 8.46585817493214 6.470752851655536 5.096928197760199
Zr 4.879231970843839 10.285521976745692 2.9099927312653877
Zr 5.3247023717680895 4.6136969572106565 2.064776849288015
Zr 4.203140408327248 7.597059524509665 1.4484021602970492
Zr 10.343340944287023 3.6736829991796647 8.786149629336467
Zr 10.158779030118934 5.514038069653786 10.842800971349874
Zr 4.215002420531047 2.8251050097046373 4.185719506119527
Zr 8.09568123773019 2.0304283097686446 8.475198587182277
Zr 4.964396205912339 10.198780840123785 5.8779895280947985
Zr 7.603238970103378 4.8525784220084125 7.914435307797678
Zr 6.18121865755125 2.0420688435981793 6.3387597017849355
Zr 8.131640727691021 9.526749218663149 11.931575931983438
Zr 4.22960973709336 11.769721642475496 8.31263418503876
Zr 7.643735329516404 7.274882429504913 9.944309490081718
Zr 6.110263512237649 4.779000473651735 5.227360538934666
Zr 5.616932458448646 9.245496249242763 8.794997862163877
Zr 2.9740187039348296 8.596959466728647 4.142284606682895
Zr 7.697921335396115 4.045262306532693 10.793210191708893
Zr 6.173842212619381 11.307088603323862 10.689280187963416
Zr 3.3750159680998713 5.730728190537477 4.043802052593836
Zr 4.735970223764936 7.311513243046844 6.112384665312734
Zr 7.923689006099535 6.709481326929356 12.570572868122715
Zr 5.353676715836374 3.1237317874169555 9.217576048720106
Zr 4.948270025905315 6.223448861405606 8.633980459847967
Zr 3.697748453480139 3.999138984435031 6.880769899408374
Zr 2.703900251320154 9.227557682137036 7.818053005521329
Zr 5.3708084318789835 8.506206700851443 11.935663097604087
Zr 3.417884336860844 10.320974845736124 10.546407755156611
Zr 5.125212068158929 5.525405501258177 11.504142113753707
Zr 2.1547383156684905 6.419119698710313 7.543101480622244
Zr 2.899321434867959 7.487514054206768 10.430748072266983
Zr 2.8179642742709827 4.615813441907611 9.729297481370404
