5
Energy = -27.29387834 eV
Zr 6.042783054399339 6.66943964454646 8.521749028860551
Zr 8.667085009954212 6.9326262905293 4.956024092764861
Zr 7.010758162013512 5.698792734122895 6.460797529110671
Zr 7.9429647052072685 8.314298420124862 7.1437070006625
Zr 6.729178683774885 8.92448714802208 9.47983665962342
