5
Energy = -26.38727124 eV
Zr 6.926851190787909 5.6781137893199665 5.6719434848338
Zr 8.725057219275559 6.5418094433428955 7.494288527258527
Zr 5.340322669757255 7.396946745350529 6.126766567613439
Zr 9.020207492753789 8.343064231553187 9.276598009093796
Zr 6.801072651132337 8.61363934711367 8.042647476785758
