51
Energy = -377.12229859 eV
Zr 3.475916544826335 10.09805218962394 9.236308749096295
Zr 6.391069690104647 9.120732891258067 10.130680159197519
Zr 5.82706440605497 11.518935792301772 8.82104567290426
Zr 3.8252316016902688 7.536813111909628 10.975338980191214
Zr 2.1459490339716134 7.690831843267049 8.62358010920143
Zr 9.559293485251622 8.431141021689161 10.614109848788306
Zr 8.65846293273061 10.813809906926307 8.985264703281105
Zr 6.867974742800542 6.726399026720736 11.457598136086085
Zr 7.3098819036982245 12.817255692251326 6.830504040471661
Zr 4.6243546801553 11.335210508122179 6.254463057144728
Zr 5.000427735554638 8.400115442229264 7.420192305242522
Zr 4.7245777496000345 4.78515695104663 11.669692097952748
Zr 2.5064938831622348 4.969337619785633 9.865140659416399
Zr 2.809790890399523 8.472873413284498 5.371338187225076
Zr 9.748741731317253 11.516688145230106 5.912713158155022
Zr 8.052810673463144 7.109370070648431 8.554261024592291
Zr 10.462796249075797 8.899403332009229 7.658087257391045
Zr 7.392948329298383 9.837472510908484 6.456709501686513
Zr 9.495412062934413 5.647016813194895 11.164548216593657
Zr 4.684070744591681 2.7055542433287627 9.552918240054344
Zr 5.174121372732314 5.7535340466515885 8.867045757415188
Zr 9.075480746126086 13.929142343492563 4.566684626287548
Zr 2.6618299313969946 5.759020569619944 6.806266915992358
Zr 7.3021879160833585 4.0443022182932635 10.23532163323211
Zr 7.101653876227131 11.993612203413159 4.066065995976094
Zr 9.86891512984959 11.745411226405345 3.0343046258099853
Zr 2.719875965796932 3.033273537120067 7.663448410109286
Zr 3.0620199096768848 3.264008020267644 4.863914456252947
Zr 10.232888753287353 3.442972038021832 9.509376686594042
Zr 11.196814136911673 6.326631488168366 9.003421382387321
Zr 5.746188418226802 3.9823301147178314 6.4949815363083
Zr 2.12223683897103 5.890009873301454 3.9849326116450468
Zr 7.537558868203355 2.0430504084084675 8.259445869427633
Zr 8.814893683296193 4.560061361851587 7.046414187271484
Zr 5.0380703525953185 6.406973349730764 5.00916360782711
Zr 5.378813503504398 9.356720451623508 4.1769775344301125
Zr 8.060398969447954 7.15489062803356 5.400004609725049
Zr 11.21950558681438 6.511830180212006 5.899855126569951
Zr 8.150323820191424 9.36693211718053 3.2390834768721675
Zr 4.8958345567726065 1.3024680088804221 6.619911588267385
Zr 10.553111871947632 9.007060225965455 4.657782827805704
Zr 5.471587253899199 2.3085870074612953 3.835975429538075
Zr 4.471692467641741 4.703312466794141 2.585267297026394
Zr 11.870051150683343 4.093757456628159 7.2020458993830525
Zr 10.212422653220848 1.8865556951957538 6.959773045139247
Zr 3.7598489221718596 7.608880536333878 2.5558459394555917
Zr 7.824586177741887 2.0984725229825267 5.3969458404115285
Zr 7.511447353119602 4.488288014420701 3.7179816552954383
Zr 6.667478899109662 6.917959257343362 2.4849666646325854
Zr 10.435186363105714 3.846778443241833 4.621665848138004
Zr 9.791457793012249 6.5167740530645375 3.181750826618198
