50
Energy = -371.03538788 eV
Zr 12.308557557821878 5.324742991381022 8.806850959187747
Zr 12.876514402127238 8.208396668531407 8.081257188433433
Zr 11.245049718320569 7.187310723788845 10.817415789934591
Zr 12.38322495998413 5.977659434039868 6.09352656448699
Zr 10.224409686163574 4.150836912801802 6.990135641004837
Zr 9.639077937079048 4.811696525379526 9.829027737479715
Zr 8.300498722156924 6.106990383594584 12.290356167566834
Zr 10.25005362189324 7.351906905176613 7.767553030958542
Zr 7.446311208014392 3.3555956411187253 11.219476631435601
Zr 8.919553434891641 9.492097866663102 12.118599690203252
Zr 7.488193717285782 3.016795692892645 8.157645881129437
Zr 11.1232630598317 9.798699345356246 10.015329962079333
Zr 9.751415442977812 6.162611710589223 4.637670472340724
Zr 11.649209046107263 8.535946918411094 5.276415046011532
Zr 7.546551161428906 3.6798769223477485 5.135337748136231
Zr 8.442954394458578 8.135113131025081 9.950014030455645
Zr 6.729492554739305 5.773175293986765 9.693443949141894
Zr 5.248386630737104 5.127537323185003 11.996209081021311
Zr 6.238914281927316 7.98651578040748 12.152544379189187
Zr 7.8568399905994415 6.030905964122623 6.948504680325413
Zr 10.668798584013516 10.44967965085185 7.307857121680487
Zr 4.95359218292086 3.2464423156113424 9.59832708184127
Zr 8.84169952902151 7.759396156522871 2.3580691419220257
Zr 8.711564425093966 11.359935175238618 9.447866042817715
Zr 6.228926317094052 10.450767954890857 10.666177061916054
Zr 4.603568600257912 7.94751927156357 9.75959028730132
Zr 5.310765885506926 5.000423248833113 7.212237872400911
Zr 3.2951741322941563 5.436985190842022 9.578466903401528
Zr 8.828987308897329 9.200611578386788 5.09453800067133
Zr 4.765350819968618 2.552578580322977 5.798550932571118
Zr 6.106673574416338 12.043220202541729 8.141591597547643
Zr 5.701247554505977 2.5291784182518677 3.138669485388129
Zr 7.612101839011357 4.84111831610664 2.340990756417607
Zr 7.037276355487163 9.197921038566555 7.715758697848068
Zr 8.182074576934866 11.769814425577774 6.426365420152929
Zr 4.670665956470082 7.687764940526254 6.536779214649069
Zr 6.827423677173992 7.283966110810811 4.361146025541721
Zr 2.554572803196181 4.456353340735966 6.621957388950381
Zr 3.997682496650606 10.098553521087611 8.187568444059307
Zr 5.036808570758596 5.255500922000706 4.135439513176029
Zr 2.073790181224158 7.351711607581064 7.673105698385249
Zr 2.806431057788499 3.7291167513217567 3.536877957196602
Zr 6.879873169321403 9.777342540727918 2.746103755187936
Zr 5.583862868930612 10.404670630811033 5.494918780278944
Zr 4.823208457233128 4.327962432948134 1.2662534169092894
Zr 5.958417385073782 7.1272845567869 1.436044361119377
Zr 2.127001063830054 6.680876161862232 4.731941488939321
Zr 4.068940988784101 8.729474407039087 3.250646622543183
Zr 2.570132781957809 9.535760729693754 5.658244763474047
Zr 3.116292961357678 6.380252515900135 2.0339838606371647
