53
Energy = -393.77121191 eV
Zr 4.904650482045085 2.579264356410466 2.8294035241228865
Zr 5.462054514581528 0.6662835316588072 5.062520269866149
Zr 7.6255781989654166 1.9667962976440327 3.7946840512359294
Zr 3.078411319174973 2.4373778998803832 5.062817366361986
Zr 4.86791332440749 6.6337652446686395 1.6909675238725586
Zr 7.068219243190005 4.639520044670084 2.7073305072822245
Zr 7.520353112242526 7.4016521454093755 1.3615747503071858
Zr 5.80564835604909 3.66735595792473 5.500881651257917
Zr 4.561506778425497 1.7539835402079613 7.505092540359676
Zr 7.5753715597655535 1.8426572412073807 6.887119724216304
Zr 1.7087968968126228 6.464310090334391 5.453561784353406
Zr 3.861286180095654 5.246928628309221 3.9936273067328076
Zr 5.649868117286684 9.586813748295386 2.485757226232854
Zr 3.1984814070458842 4.384501611130019 7.289510564760699
Zr 9.027775782398702 4.13347352436036 5.12052028280659
Zr 9.578692305865362 6.909454308392221 3.273566752296232
Zr 6.517213722075596 6.99113823879286 4.1035853118912025
Zr 3.181343050559821 8.30614921248116 3.654093847663514
Zr 8.637993946466326 9.827530518757925 2.6759331141299523
Zr 1.8200848869675696 7.08466382184671 8.201174914647563
Zr 4.084284783188231 6.210967594588937 9.699683512878439
Zr 6.062934699122217 3.82967898133959 8.9143099035013
Zr 7.198595894881311 6.01933298578425 6.824286945604765
Zr 9.049337630381217 4.2571386559123034 8.168276615067787
Zr 2.340793032413894 9.354927138119631 6.383806742624133
Zr 4.376157334384073 6.982827600645979 6.744271305251923
Zr 3.7827232668748354 11.129198761160792 4.392374775888615
Zr 5.456872791575557 4.958048944849777 11.774740475600701
Zr 5.480827564032447 9.350648852692734 5.635674654210981
Zr 10.122378851356395 6.8547826358196815 6.2485315011296665
Zr 11.932702657937352 5.256441594651899 7.939897370114968
Zr 8.33293732708631 4.269257766195192 11.480655345987534
Zr 10.918156896520648 4.479974630267109 10.474416543107974
Zr 3.952147809584562 9.110501800425562 9.02725723798744
Zr 7.088606766647287 6.524460002873011 10.00149124416909
Zr 10.996924999567417 9.19532499260529 4.535675548254013
Zr 8.25020653128736 9.123309314751022 5.519916781286763
Zr 9.774688725156464 7.215208129434621 9.125770066122197
Zr 4.751507005169793 11.386017208918046 7.350609991325886
Zr 9.604684856146173 11.655278818193796 4.971459959239009
Zr 6.728424338560413 11.787937238076044 4.357951253009279
Zr 5.317633177754712 8.252138324804248 11.681391792711842
Zr 12.379173834595385 8.134374238300047 7.967718902149867
Zr 7.042263967753828 8.933809056652365 8.361865440309753
Zr 7.36330747575587 6.609608083635011 13.02043277280576
Zr 10.086928833517627 6.7680506638186335 12.189126030401841
Zr 12.488589470018049 6.73714658589771 10.435307786105955
Zr 7.700468664262293 11.648668597097341 7.261777316125315
Zr 10.328315261560224 10.001203664301993 7.45268833226782
Zr 6.138264535127794 10.896724047911796 10.30333303020491
Zr 8.199056628574986 9.156250706878216 11.763499025421165
Zr 11.051688780308943 9.294663699910469 10.661942166578008
Zr 8.92123604438452 11.132370680982952 9.807730993062936
