50
Energy = -369.7913444 eV
Zr 3.2062944465924974 9.625689932277364 4.214187236867169
Zr 4.07521112310966 10.889600011957112 6.8837828833108246
Zr 5.869499071807845 13.444089669760439 5.762641141901308
Zr 5.456542482470622 11.35864394376349 3.635129611596763
Zr 2.6864402433360106 8.120819801855884 6.5029242114190575
Zr 3.04477041849808 9.431795234929586 9.214605851479325
Zr 3.5703558896923298 6.624101754199496 3.936535824917493
Zr 2.8720212394213043 6.53039846357033 9.009820727556082
Zr 6.307571389154217 12.785516907539119 8.494427436670252
Zr 8.120173918205209 12.509799661101527 4.170241798945885
Zr 5.304880149088545 8.625675132677618 2.403501961369175
Zr 5.85823934532415 8.378099738042053 5.14945736760924
Zr 4.2926642706963465 3.8385167448112227 4.3443934186823565
Zr 2.485626924438358 4.847866100616142 6.418426686227106
Zr 6.880480782463062 10.736372270086367 6.321107781879231
Zr 4.818186924501671 7.736871356427983 11.018086539963464
Zr 8.604958753303169 13.11998373736932 6.949277970547171
Zr 5.1401152587909795 5.784444822018166 6.362317644852692
Zr 7.966624420947984 9.741534924756428 3.349782416511001
Zr 5.594506009163104 8.412916701373184 8.122095531924048
Zr 3.9487225333186387 4.95450213099636 11.305838328271017
Zr 5.752502655750741 10.506469875621425 9.9821092674543
Zr 6.586047098417066 5.858497306690334 3.5550248274509992
Zr 3.257757689121357 3.6618494982467626 9.0308055651266
Zr 6.078112993124969 5.468123675735882 9.045705393324148
Zr 8.486377639274812 8.114754645131928 6.806479992457141
Zr 7.674578198620105 7.857955883551596 10.424245793819974
Zr 8.599080603236672 10.531525369360793 8.70728229909679
Zr 9.835184742897455 10.60544475879271 5.744172917726958
Zr 8.197126566159884 5.141113825278153 6.512137265390197
Zr 6.943222280763452 2.924311502494925 4.832067676792681
Zr 9.40288262936841 7.19523327001711 4.024361635061013
Zr 9.183491111472959 4.4878066383518345 3.647291749037566
Zr 5.794134573650353 2.861354295703635 10.239685396559322
Zr 4.979437595822289 2.766773703708056 7.081678155545188
Zr 6.652250395919888 5.455398319189318 11.926660290795905
Zr 10.370416362011637 6.728298744601433 8.75567547889678
Zr 11.210293291166572 5.493878861211311 5.872078548840438
Zr 10.081975643780261 6.64273790450109 11.903638395071269
Zr 10.228296435396112 9.170288676998739 10.779137126976071
Zr 11.610533331286796 9.677012865626503 8.278597930118368
Zr 7.761834998060912 2.3725427764929945 7.784899933694352
Zr 11.48371219475707 8.436637075039817 5.569508208350792
Zr 9.778918077032337 2.689225169847848 5.617993644015913
Zr 8.610911581766905 4.278656992444688 10.315392256462866
Zr 11.52839852577467 4.661191263341445 10.78726260127751
Zr 12.665253510739701 7.51058581921368 10.337400634259634
Zr 12.98571132306041 5.027292671110333 8.494134903179354
Zr 13.190398190569557 7.43360479152505 7.394915576605963
Zr 10.401768228243608 3.641347517021346 8.211329257239496
