53
Energy = -391.98579206 eV
Zr 11.762028691925405 2.823635881198375 8.819835886963505
Zr 9.579248424305941 3.76363269067805 10.585191958523067
Zr 9.25753439299021 1.7641608378645897 8.353912037607705
Zr 11.63578455260858 5.65308886825551 9.772382129891447
Zr 9.94245821168179 6.7091516511399085 12.101404000452462
Zr 10.114474011916014 9.385735661849413 12.759582531052692
Zr 10.899691295686779 2.6002497824023 5.932643401479091
Zr 12.684519302591935 4.799967665639575 7.096626737748844
Zr 11.558577034298617 8.737276138863745 10.292587075749612
Zr 9.645897740287705 4.662774596850311 7.441897708007604
Zr 10.28056406110349 11.621367213263229 10.817267729720214
Zr 7.045845965866956 3.721799078030716 9.057464659998487
Zr 6.960953181955318 5.313087264274906 11.850541924655163
Zr 10.954939102901683 7.481345139288704 7.425338690475477
Zr 7.198759245596161 8.135019041775543 12.424198403454337
Zr 10.801037360140555 10.430256606987381 8.004767083967455
Zr 7.848293076868803 10.990549220714598 12.691972089287892
Zr 7.7671053454067644 2.4955136319636138 6.1644324795759395
Zr 8.663065069663993 6.423418007842633 9.534299063860313
Zr 8.472707223857919 4.516448845144311 4.058611412947935
Zr 11.177626862353272 5.666324647995945 4.938165349770311
Zr 8.604715365027337 9.44775656448011 10.106773283229112
Zr 11.286978074351882 8.715116047234838 4.605496145495633
Zr 4.597561154753936 4.426314205618939 10.551079760873098
Zr 4.341494975441656 7.0585035126136155 11.933120522529522
Zr 10.378794536302703 6.841955620399678 2.464730602890337
Zr 5.808607371150555 7.151881849616312 9.568488141035035
Zr 5.561440408636615 3.6229466087130695 4.7177060960910575
Zr 7.506775914196437 12.855931417084554 10.79288125048577
Zr 6.884984176785223 5.598326685358611 6.597669908467556
Zr 8.342112094077299 11.861080673327518 8.180741442902915
Zr 2.7192286828410683 6.146633200731182 9.59813467214049
Zr 9.238745832793457 10.808928754740638 5.3422810641218845
Zr 9.014353667974547 9.486084145503101 2.591742099059982
Zr 5.762056760752751 10.274269260377356 10.682451681868377
Zr 8.68278899976239 7.332369669408242 4.804224876982549
Zr 8.026995569054437 8.689557222604714 7.426467741486077
Zr 4.687360914861613 7.5561735135256765 6.8913002775565975
Zr 3.166186140221252 8.892633166498738 9.219739105166294
Zr 7.713449137711105 6.893650019388332 1.8653404881055686
Zr 1.9424828307923363 7.019896154968673 6.89283286581263
Zr 5.549993462907275 12.901423697503404 8.94310833069548
Zr 5.725366978001733 6.382733489561842 3.7084099223638054
Zr 4.231901699209412 4.408559850862834 7.600646977746372
Zr 6.693767679205028 12.466773604642427 5.867086229434273
Zr 7.1418466121650015 11.589120817230489 3.271053375395852
Zr 5.849868677709111 9.224256571606562 2.249331186816237
Zr 5.459891816470836 10.400666034714078 7.758190784634944
Zr 2.6647409957834354 9.819063302361302 6.525868900642698
Zr 3.42822398417256 8.229003134036445 4.192304723531357
Zr 3.3417792068456516 5.3548650068123065 4.988156272328085
Zr 6.446738394359565 9.30041288641652 5.072666725963233
Zr 4.419298483292127 11.164033982238577 4.4697725062162865
