51
Energy = -378.54160775 eV
Zr 11.28011201639102 3.923412609873183 9.448474809270138
Zr 9.19222475632124 3.169243822087599 11.366900744996009
Zr 9.388641060501019 1.7798165395824481 8.771654252007345
Zr 12.522806438324505 5.451034578497662 6.1249595007435245
Zr 9.767143293832788 6.130330272882854 11.197088086905786
Zr 10.859336507306152 6.599047325496055 8.498605700872247
Zr 10.104025255233191 3.699855270114996 6.479306588812045
Zr 12.325595887640056 8.29932539970066 6.635813470185243
Zr 8.433141160123427 4.558356870735212 8.888338102274085
Zr 6.794197351329261 2.32836970646113 9.997600671362745
Zr 7.770763094871836 8.785942552372124 11.854530632979664
Zr 10.232353465211393 8.955756781843156 10.289164268765953
Zr 6.90895887885851 5.229165789351523 11.309331242593558
Zr 10.932956553271913 4.800194266416481 3.7059605221122465
Zr 12.191567357844004 7.3396370349148174 3.866366717858266
Zr 9.840232750634605 6.74465344625366 5.641641005493321
Zr 7.1487689305774795 2.6287483953863684 6.925973849379292
Zr 7.763430356222771 7.637689953590675 9.226950647173815
Zr 9.60870697539782 9.361150805703954 7.445563818846289
Zr 8.031836469692118 4.40967561063326 4.1792624980929505
Zr 10.644777520562615 9.740114349554778 4.653456357201728
Zr 5.049824886639137 4.167035143118847 8.510528044276654
Zr 5.212422609739827 7.494675815420274 12.256559146925309
Zr 7.103527551796077 5.881190722565831 6.7688878047625645
Zr 4.081890818831109 4.961492974565619 11.475736829492579
Zr 9.304252947291765 7.562670733046004 2.8280417706814096
Zr 7.6343437307601425 8.838095171709938 4.8667469066675135
Zr 4.984761137883601 4.332290429527502 5.44520302942617
Zr 4.647842857492152 6.946898807987286 9.279469515155931
Zr 7.960904896949423 10.692551965215813 9.461277062330037
Zr 7.430914554970801 5.836188954697017 1.3174769520381369
Zr 8.521585512657072 10.782054807859382 3.0284818319613183
Zr 2.1754251855562843 5.042647143085684 9.597437472250855
Zr 2.261805433340065 5.2627007164804915 6.657708050160486
Zr 6.216209223192624 6.619605326812055 3.8831905107057914
Zr 6.1339242916481505 9.471968064968966 7.247283686584297
Zr 2.6198178691421368 7.720987251349101 11.096161917486448
Zr 5.346913447887091 9.827197055692672 10.297451926460077
Zr 6.737189973049877 8.831563807901228 1.7336684756246223
Zr 8.251956460238366 11.514629193667103 6.030646653548813
Zr 5.304141391875245 4.235429927585381 2.5055392825591087
Zr 4.413290256209157 7.324853283646671 6.29462568656532
Zr 1.4732535105532232 7.4079439170599315 8.393786188222771
Zr 4.668208278039522 6.840512061645684 1.350130167524132
Zr 5.360501464192759 11.991321329806754 7.647180598491209
Zr 5.885555268367091 11.30525146895265 4.48168359003424
Zr 3.1535395146264946 6.10491879674743 3.7944804990115437
Zr 3.167742743697987 9.70657110535205 8.305241210272126
Zr 4.102931710960659 8.916671857054562 3.4804589487085735
Zr 3.4730830893116553 10.653791719092592 5.745538912531047
Zr 1.7888587080482659 8.190618515569186 5.668968196465614
