5
Energy = -29.44355843 eV
Zr 11.247123755606623 9.229081458210622 11.032308014032127
Zr 9.116943781034287 9.73544119854107 9.236270087706812
Zr 11.716487815552568 10.588776579351256 8.621829122161675
Zr 8.764298498497855 10.110629276989906 11.997297730952495
Zr 10.344964089323808 11.867219292403542 10.617639272325052
