53
Energy = -389.07571389 eV
Zr 8.037176964129713 6.009438433936098 2.096654359050405
Zr 8.989411729869845 3.60219278599031 3.48836540460934
Zr 11.066284474919028 5.413426099920818 3.0950657337305683
Zr 6.3201222853509655 3.591955494257694 2.8234520907732246
Zr 4.529156216110498 2.964806501131733 5.316909810610832
Zr 13.007955574429468 7.597783178732668 2.7813634129842364
Zr 7.48534855360967 2.7655826385494553 5.725926006504445
Zr 5.270758252180987 6.7702702958796115 2.2942794078759996
Zr 10.248580110949609 8.344785436824507 2.7954770479489377
Zr 10.113106208198264 4.158917823089642 6.2803384053119835
Zr 9.160898987470553 6.644246323452062 4.925472082143072
Zr 2.7774961496617263 5.12313091486586 6.569394817270057
Zr 3.624121686761257 7.208404777022707 4.761395268706804
Zr 12.146228681977767 6.890175445416898 5.418177740673058
Zr 5.775690394521439 1.4196963839406918 7.610875277192382
Zr 4.435057318701392 9.434188687657388 2.9211602073882847
Zr 8.094089117669185 2.9899134966472904 8.685587432572303
Zr 6.238447942752896 5.4174290878795635 4.992227248880686
Zr 11.311241875535044 6.290006084906054 8.037013102147782
Zr 7.2679539632451595 9.074626805501861 2.017042329511935
Zr 12.018247208134236 9.744292341380014 4.69296887093864
Zr 3.1396506933232793 2.5971016299990923 8.028006442966934
Zr 8.095241491690654 6.2450822177190775 7.490163810172655
Zr 5.645022548041676 4.3804665378979495 7.820409174305025
Zr 9.786217890331153 8.910333182695272 6.628126266316593
Zr 6.623172697046287 8.233649270272851 4.619641212347808
Zr 5.125732210836664 2.810870669920126 10.274442977095935
Zr 12.277974428833872 9.308390762597295 7.810160855831254
Zr 9.364783924069789 5.428962431366487 9.976007710566796
Zr 9.040773534377246 10.644770892181722 4.1609954539770655
Zr 10.999884854365172 11.649945833587974 6.420844694227818
Zr 3.8739238540233023 9.967421379205726 5.778969776816623
Zr 6.233853678798838 11.300730591002417 4.3123359366881155
Zr 5.081692344576175 7.23631900006972 7.604297271622369
Zr 3.066813466892403 5.138592352507168 9.463706549303554
Zr 6.455590806852358 5.398893269776191 10.705453355534273
Zr 6.926948502045168 9.709317140986693 7.072847261080043
Zr 10.20266356908662 8.238534069633294 9.816028372603608
Zr 2.3693761500393062 7.903130831500437 7.605288288350601
Zr 2.3269560365402624 2.801916586109397 11.003801079895597
Zr 7.1415900484604435 8.30650982810496 9.747516468644756
Zr 9.786553720253044 11.008721216164322 8.90675398807168
Zr 8.201976209847368 12.309424970117878 6.6070953571618265
Zr 8.575558636160618 7.420776581762346 12.287268706276148
Zr 3.9997853835699617 4.6487328851864875 12.276380628152474
Zr 5.268695657204682 12.130523166628281 7.055710749743662
Zr 4.465243829938589 9.944768940847988 8.892959583336985
Zr 4.108523071806022 7.5495018131662395 10.686181746511648
Zr 8.720892661715602 10.268046794715266 11.76427880359691
Zr 5.715940381109985 7.170376157649123 13.020185566636654
Zr 6.981065269222476 11.477070457260906 9.45633714995264
Zr 5.770671355942583 9.892557066850362 11.908697173154728
Zr 7.357642739877488 9.20685874268422 14.144155270497725
