55
Energy = -406.54813851 eV
Zr 7.800990481695189 8.210795556177665 7.624054871698997
Zr 2.094241788338001 2.7887400680349854 5.8182395820061945
Zr 6.583115809922016 1.4048621876589948 9.71546135267757
Zr 2.6347866898867274 7.380488350510762 8.32736862842303
Zr 7.161358156853421 6.1212653761159945 4.809221186053975
Zr 7.8503114747515275 6.372795099651841 9.76557025602404
Zr 7.39418015387917 11.14208535942521 7.170554460215138
Zr 7.0530628740359305 9.341829243456885 4.88027751035466
Zr 9.609915446202244 10.522489763697413 8.857431067706788
Zr 7.59938431852655 3.872445868157205 7.889397242687874
Zr 7.217840026343487 2.8574016676874034 4.972239280419262
Zr 5.127374119378958 7.82179899535875 10.12960537869738
Zr 2.7003170541461397 4.349549687514545 8.306763460547755
Zr 9.768926941341396 7.557349411542574 4.3623390051025135
Zr 3.395544397220841 5.7983366494728905 10.718630948050455
Zr 7.583874898938369 0.8948052614839781 7.094682666117086
Zr 9.674382343840364 4.469931769669317 4.2620077813035495
Zr 10.283159902068979 4.488347228375252 9.26598946076564
Zr 5.259638714044937 5.998464233486261 7.552129651340408
Zr 1.3733412966208245 7.546516878410384 3.3524725033225886
Zr 9.366258183074878 1.665127232023102 9.279953283428856
Zr 4.974287055663949 9.291528913942223 7.495388235493978
Zr 1.9486073795443348 4.615765003548584 3.2936512414882486
Zr 6.926110871988385 10.170397199943695 10.011222318365887
Zr 4.839967138985378 2.3931620803510514 7.472816508664274
Zr 4.687462905211993 6.047023932214003 2.4318358686912456
Zr 10.762913859349354 7.796260557995214 8.74024185704063
Zr 9.62458171494446 5.920650028428402 6.815724234938671
Zr 9.482992668446277 6.126483335308423 1.9921640266891534
Zr 2.4881215546963666 6.131606411837879 0.4969940045348998
Zr 9.912702771041577 9.70257867765106 6.259212185426442
Zr 5.204064380322422 10.033795498342988 2.374825345666546
Zr 2.8600132583751403 8.808208970758576 1.2602265779900486
Zr 10.016409787687548 2.652149947239237 6.711261982829839
Zr 2.4742866249172786 10.243491182151947 3.4482479560423323
Zr 2.784952830003562 3.296994896530652 0.9995250510622501
Zr 4.328095025807102 7.950644762977816 4.71059423591829
Zr 5.175841970230784 2.3800708894313187 2.299614922501433
Zr 5.101724432326619 7.740901376264797 12.321998822643655
Zr 4.507544932485321 10.923839689657337 5.199310006624045
Zr 2.5453831805709926 1.7360044683663096 3.2573400712979073
Zr 5.133432452657261 4.545692346061731 12.280871103770236
Zr 4.588267514249672 4.136617837714909 4.9259944030862215
Zr 7.3076430438488975 8.055852019068672 2.2252964104597117
Zr 7.448551235527022 6.189648407679112 0.12947118376122044
Zr 4.6608122138427746 1.1416265894347708 5.042463558718434
Zr 7.294405905538445 4.253879746069339 2.263955672163763
Zr 9.379879259648458 6.185133248777739 12.120136563671656
Zr 2.2507693177370496 5.989244909285475 5.8545737038181445
Zr 5.338338002839351 3.985418540626863 9.9969139919042
Zr 9.45723040272746 8.930923607696384 11.03152844100513
Zr 1.9587633324728622 9.14258299797496 5.980977946174611
Zr 7.146780049740379 8.187786907829352 12.280871103770236
Zr 8.17067890402096 3.594934188176854 11.103222377226304
Zr 6.245544512429491 5.652840503737707 12.247677941478996
