51
Energy = -378.36427681 eV
Zr 3.877634257286806 5.690495895324033 1.9395040120154061
Zr 5.3901770140164595 7.770522280360732 0.6109863263747857
Zr 6.744180317653587 5.214637461904655 1.4030796098215683
Zr 3.205117745256742 8.325732699941282 2.599745968902576
Zr 3.653415393524108 6.248949444428826 4.9599020506195695
Zr 5.224144912911978 3.9647763645329266 3.635073409703562
Zr 5.674730534719684 10.164623403679355 2.334352668827971
Zr 5.876886576876177 7.462318577799824 3.5257968653490037
Zr 1.57706679141231 7.866743544241568 6.065533061769094
Zr 8.079611196690818 8.18763229528887 1.678604413867681
Zr 3.8673971252200734 9.65809416179633 4.978725796193237
Zr 8.06779040407692 3.135683161723089 3.4915713243333153
Zr 6.111649119859561 3.426202838870357 6.384764744940686
Zr 9.136946966589475 2.1494936506173508 6.3128384950607845
Zr 6.036199871748324 6.283075257404875 6.9092591145135955
Zr 9.432904476973652 5.605060953208393 2.2354624165849146
Zr 2.1642815179304717 10.424543286490966 7.434709716589991
Zr 2.985240968761252 5.549836175150454 7.730432061415948
Zr 6.9955939106043274 9.189355417117053 5.828297968080803
Zr 5.828888256174033 11.813107778980404 4.73981393530176
Zr 7.701725650111487 5.604942105344944 4.684679445594543
Zr 8.421427802835224 10.594345272421254 3.586918391718228
Zr 1.4834848222914785 7.927740285126581 8.919167768582879
Zr 9.815250984541409 7.822810722373227 4.197615269437865
Zr 4.100463824604945 8.314721586276193 7.621672440583109
Zr 10.48625026190204 4.710653434167313 4.775614953771632
Zr 5.316253923948392 11.01456094876806 7.63698975781693
Zr 9.0245140898194 7.334025996853603 7.1892168927426
Zr 3.414362854839124 9.87153514294737 10.155255405994085
Zr 8.009527587929444 11.976165786153846 6.352147446083679
Zr 10.02797684118014 9.899663133934347 6.129116010037704
Zr 3.5538384042870526 6.769462453927144 10.523512352118889
Zr 8.800758749110352 4.587639818930919 7.551092371695635
Zr 5.686622691188865 4.638617538239109 9.402248166368565
Zr 6.294168310749647 7.917081706339948 9.472265267756764
Zr 11.719247052338163 6.472828639250567 6.800587004031597
Zr 7.295811408069648 2.2028799454656 8.708299291064872
Zr 6.251666473287094 10.782576247326366 10.456954050279641
Zr 11.643262641991106 3.5425320165987007 7.124066441785013
Zr 8.346875548796682 9.926586169411635 8.517624244186385
Zr 10.94542957096557 8.289408357669119 9.288947935429038
Zr 5.248583330486677 8.73717434810524 12.169126252134681
Zr 6.232047265048972 6.0497990394327905 11.874212581052305
Zr 8.79290343915711 6.0327658182967445 10.13004753457292
Zr 10.094003921271577 2.615803735953985 9.435813626629031
Zr 8.29221471786697 8.608465685253465 11.48425824531815
Zr 7.800858795947857 3.4438366091629145 11.33364574283915
Zr 11.81133545709215 5.314684347553153 9.450906188226396
Zr 11.035160787915007 7.056348087504617 11.798930066217785
Zr 8.742065878073845 5.9543119841652254 13.106702835207576
Zr 10.628461037638855 4.1911605677087165 11.82415212696668
