54
Energy = -401.26940484 eV
Zr 8.51034562600302 2.399963009242715 3.9173075356426446
Zr 7.020327926557423 0.8629940259794677 6.187929109996232
Zr 5.490864615366881 2.1344882821079425 4.048018521233716
Zr 9.655858821553462 2.2524248509244864 6.750047132586994
Zr 6.459018712343001 3.715472902995169 2.0953660957140166
Zr 8.002534996752447 1.1017370776459146 8.967839845418407
Zr 8.714020524697068 5.6036758863370615 2.4814414860603833
Zr 10.467718025667676 4.89162752670571 4.825806941893811
Zr 5.139186182560698 1.390706964436543 8.645931433426227
Zr 11.979648169633647 4.8617352577738755 7.913815835979346
Zr 12.900769707184052 6.573682924329076 5.839597229436527
Zr 7.030809673653526 4.63740893185953 4.833836924147566
Zr 4.077571502001834 3.3080345683813928 6.3495724634319695
Zr 9.423197600557128 3.5123771574952336 9.804921040991875
Zr 6.873554816644099 3.4137064956136833 7.591165099710417
Zr 5.853718644704265 6.621615328642095 2.281401035896782
Zr 4.115781695966137 4.960967839470286 3.9422993425193296
Zr 6.5970014509354336 3.2188012924997516 10.701174166022877
Zr 10.930614674427812 7.686940726609131 3.9499009206734024
Zr 7.934410872225762 8.704134073811243 2.501653442871801
Zr 12.639268210987586 7.911444578508616 8.60149727809202
Zr 9.14695151492415 5.09194184810537 7.332065431482057
Zr 8.19500489021133 7.205185890857612 5.012189323675173
Zr 10.348715573188402 7.523125462957677 7.1274467158277535
Zr 10.824457139823444 6.027675209750352 10.178221866560284
Zr 5.121756100954948 9.440185394277739 2.368333632748723
Zr 12.355338905199893 9.383902422427186 5.977235872649525
Zr 7.492944129615714 6.170867919920158 9.317988809373514
Zr 4.16995308218156 4.077294853849983 9.120960212715987
Zr 5.39560246251657 5.994853405678897 7.132501117046999
Zr 9.549899256797126 9.948359640408473 5.1696059095551465
Zr 2.973187409846193 7.719457090332269 3.4380424939424534
Zr 9.58767285936112 8.506555804126357 10.12220031014364
Zr 5.256655031144766 7.98543164055683 5.096865578950999
Zr 8.270815097641425 5.819604431076398 11.832998250165614
Zr 2.536632795611562 6.043425519336087 6.067213733018149
Zr 6.841301332081291 10.711034478626999 4.452867508331548
Zr 7.7790292610634495 8.909138821991373 7.633250231715518
Zr 5.035401434216227 6.037905263130582 10.970765568975981
Zr 10.379610220497272 10.382595484506066 8.041259596615223
Zr 4.784864822146374 8.306824606199951 8.82738046982009
Zr 6.646768035323535 8.611624548352346 11.13226048352741
Zr 3.7943669944679623 10.593074027862322 4.703084373315156
Zr 2.513786258002615 8.77091984517807 6.6018438829784625
Zr 2.3986210831161348 6.714458307919773 9.180399364992612
Zr 5.569430033225072 10.467562052320384 7.134635922202565
Zr 8.032540270300812 12.231349512250446 6.948095791669363
Zr 5.306627594975464 12.98617970086584 5.8164978911895275
Zr 7.637298829575235 11.146416706091953 9.676059677450361
Zr 3.5532530769740545 8.431630989426576 11.461310349148494
Zr 2.115621897821153 9.646856850757041 9.350680494774425
Zr 4.573611910714996 11.023671766168976 10.363573298377458
Zr 3.1313494467141108 11.845602288725281 7.720961162623924
Zr 5.709211529523774 13.068255555392984 8.614101350933163
