55
Energy = -403.37223693 eV
Zr 5.02705630494526 3.1027072785941137 8.518461253168946
Zr 9.251022414017898 0.91712503543613 8.740904105478382
Zr 9.395472427790667 4.173825091299017 5.13196588915797
Zr 8.137762481056777 14.291570936463135 11.024659747961193
Zr 7.454999663172827 8.482910295566477 8.876032835835257
Zr 6.035691166817491 9.944941497607832 11.474008649727336
Zr 11.16919805644697 10.404762119470318 11.348801761868309
Zr 8.315673761239546 11.624418383741418 12.66755043747428
Zr 7.763051840090222 1.7712606456319175 6.473894468162084
Zr 5.173636558859044 11.250167483673513 8.764331834984663
Zr 13.284498175519913 7.0213329288562605 7.9874971121254
Zr 7.793377893638931 11.452833357491992 3.8786970442044684
Zr 8.69363776284015 6.09126320498703 12.93215362156614
Zr 11.564621670156214 11.846273193645562 8.711942837360986
Zr 4.935918726997069 7.520092949428871 5.459154619827581
Zr 8.486866148670648 11.466032820605692 9.810538288609727
Zr 9.704595682268769 9.135936381802292 5.454169672987419
Zr 5.682467348354084 5.8696104002626734 8.39931220475262
Zr 13.20951682329815 9.490983159106168 9.44063578533162
Zr 11.933411774381145 4.634293909076421 9.256340523152346
Zr 9.469450279147734 3.0414759168066485 10.727247656869626
Zr 5.283576869063344 12.640694447663883 5.965974290969818
Zr 12.214583147588609 7.265880300142464 5.1064917071167635
Zr 9.018403751383287 6.003150605851959 10.087472037631162
Zr 3.6715104564386043 10.162047506162338 6.415407260203017
Zr 5.93882464627903 12.772030185590229 11.124551690313343
Zr 6.64320273078555 4.103655285169146 11.126373806877556
Zr 8.04637884982592 3.9755892591537587 8.263867439162434
Zr 8.844288318297535 8.667308660124114 11.39368569734519
Zr 6.921287532098203 1.4953929045912526 9.915894163301342
Zr 7.324580719535376 8.53029068742127 13.767156692105022
Zr 10.66523780395619 13.17339720685708 11.18735246352745
Zr 9.695179519651589 6.782784170814125 3.7714849556597705
Zr 12.506716990965964 9.624740906437836 6.620457135600347
Zr 10.659254034300133 2.8464082272359397 7.365728138435028
Zr 12.566536530166363 4.700313539831747 6.292799458666041
Zr 6.6652949070327745 9.93820643373252 6.3691091471718835
Zr 7.679698789364891 6.7257759787467695 6.224926582885036
Zr 5.948819484445868 13.668814535226238 3.4438708515037226
Zr 5.0096454900509055 10.465227878468019 3.8644700931483524
Zr 6.262553786650143 6.984248495408121 11.412765256463253
Zr 6.1556373708302 4.121610096447954 5.810590971731526
Zr 7.128927240334174 5.537097393139457 3.6117862248954893
Zr 9.145012208029975 11.654229539586622 6.91202861473731
Zr 9.684308599193308 14.155859329360814 8.559315435392085
Zr 11.754143334674266 7.195137647681394 10.661221482601762
Zr 10.389485878860048 9.080220085302555 8.637885052385894
Zr 6.895018955257321 13.692371095770495 8.250872176239762
Zr 7.250891427948273 8.504196059439375 3.7645356771111236
Zr 5.965765034501845 15.448141516352734 5.722080847208098
Zr 8.160443249806631 13.896618273206093 5.327771146340574
Zr 10.359011952463133 6.328738369153407 7.244892840100753
Zr 3.816333284649267 4.9876519152441245 10.439666622088952
Zr 4.565214019829387 8.437023050196272 8.55932057174488
Zr 4.184466856861746 2.4034921557636473 11.202053849557867
