55
Energy = -409.37065862 eV
Zr 2.921242170362512 5.424049248582168 10.22861046197668
Zr 9.98224863937019 7.739333420919358 5.824722673332694
Zr 8.478254114209651 3.4180304669239794 9.395813597911326
Zr 5.1671125077423685 5.600773111528834 3.4004483322945784
Zr 9.572618955085385 7.857052635769947 9.02478820968431
Zr 8.403799777667086 8.911540986717045 1.458615306981184
Zr 4.747449293366154 5.643232433550992 7.589802474692058
Zr 2.598335094111185 5.715734781601523 5.254773438151343
Zr 7.560244066585965 8.49538135208043 4.247431416662183
Zr 7.910738445025536 5.808135994365636 11.904440411948851
Zr 5.071376862890578 6.454094515293589 11.756117109299234
Zr 7.180509833615006 8.685604090757998 7.416334545779473
Zr 4.3825306982701315 10.27772710210102 3.930214193201094
Zr 2.364270747794109 8.800651342478194 5.935277443116565
Zr 6.869891652235652 8.722910672636065 10.51631375473348
Zr 4.520645977517851 10.739191604084722 7.0115993368595575
Zr 7.901837324868791 6.07844369094785 2.5029245043002626
Zr 12.439241817888542 6.543796092984284 4.458274979100706
Zr 9.948115074098013 4.9776540272277146 4.3589966759205865
Zr 7.4709735093029135 5.619090750160654 6.026568068532447
Zr 13.106511877351258 7.2834897115513755 7.118111992430099
Zr 10.386018599611575 5.543142705958911 7.694486753864458
Zr 7.219095014127464 6.029255183278169 9.0790344815042
Zr 3.0667602536386758 7.708088626652468 3.262011005098689
Zr 10.53725183433581 5.3482573413480825 10.748284536079145
Zr 6.809151668294347 10.903258919261852 2.5751601254503975
Zr 2.643388000486507 8.354275671716028 10.970336472068707
Zr 9.578951929438407 10.628200417172197 3.664861020744385
Zr 6.965021207027974 11.301964221067136 5.446280725438649
Zr 4.76227563363832 9.421042358670622 12.630087458458863
Zr 9.527857395053456 10.601756021426244 6.801696696437214
Zr 7.03971826629152 11.468084151261925 8.762275817230417
Zr 7.039972951911819 8.122982961808216 13.410952942185485
Zr 4.506806339811645 3.540651328861092 5.267408802674349
Zr 12.390709828568628 4.194993090392857 6.253933863450328
Zr 12.304167209024495 7.612671960508587 9.972756416718603
Zr 5.339754150154258 3.8577437674077713 10.147804440493486
Zr 13.07640573674872 5.0603371827364905 9.05817382392151
Zr 9.537213159713575 8.427291766225663 11.977151356209758
Zr 5.573447624213193 8.237639198677465 1.962531107896222
Zr 12.084230983343005 9.471118852616241 5.0853469170533065
Zr 2.087024507327163 9.958444745903705 8.64683249762229
Zr 4.963104419433297 7.80033145809426 5.573010274299893
Zr 3.2060076586679083 3.4926118178204417 7.949271600416416
Zr 4.443551630578428 10.973568904282251 10.209667123438866
Zr 4.466920117237632 8.29350037328267 8.804222181299137
Zr 1.8760673413268603 6.844080555682192 8.112024235315484
Zr 7.329131713357735 10.940293190372495 12.037148758871922
Zr 9.287430563264556 2.97579192328734 6.515620481936632
Zr 7.20553980780621 3.3830865555203693 4.2688794182428556
Zr 9.496046592621267 10.583205680247485 9.916248022834154
Zr 11.226338899792951 3.002260930539322 8.846427244181868
Zr 6.288704038471052 2.8786470772258763 7.400747251346519
Zr 11.906472287982135 9.733573163970267 8.086504362963232
Zr 10.570350408516175 7.850766075636609 2.841479068520706
