54
Energy = -400.43954961 eV
Zr 9.919512827137222 10.255370289611134 2.194270444679335
Zr 7.182304308242443 10.40820592046885 1.5698976028837515
Zr 8.049834949980658 11.78423631842256 4.144613533796413
Zr 10.630724934811326 10.157606126801335 5.153803644620184
Zr 8.47388589967645 7.688015438579203 1.2998950864556982
Zr 9.146727062484874 12.551664423481633 6.970076245189822
Zr 10.835393073964113 7.756520324211477 3.3590254507001815
Zr 5.148310822158161 10.594610950577163 3.6539092675599516
Zr 5.997713404705663 12.151614269278731 6.105100749592649
Zr 8.096986238484156 8.862137871257383 3.9878744591647344
Zr 5.423728209903972 8.084533425710802 1.8007768415962375
Zr 11.199597333713129 10.484206017446438 8.323222845082935
Zr 8.360377392047932 9.986064287555152 7.06446331053911
Zr 9.61863922802708 7.249559309946804 6.0804923899139345
Zr 12.237854036634142 8.16950477988093 6.916603887922866
Zr 9.079482024430137 5.4665024241354985 3.3699757460719013
Zr 8.640599678395555 11.00907231912971 9.805296477836535
Zr 3.4553429426111086 10.51828881123387 6.331507372001868
Zr 5.502266787786522 10.868431697712964 8.552439260129598
Zr 6.6648246361519305 5.3308225454045965 1.6646400234165715
Zr 3.429530666903514 7.930108503670931 4.746491336709712
Zr 5.842404744935288 9.058319920650511 6.1454288812805595
Zr 10.98856466028969 10.017409121473067 11.181921539288261
Zr 3.982564028896614 5.221709544238438 3.228578953254091
Zr 6.259913951828435 6.6343908081826 4.191015731146522
Zr 12.547710978281337 7.77940482866427 9.917934815132627
Zr 7.070924224893996 6.470521615818826 6.965075701436083
Zr 8.310772729559016 9.091699361190047 11.958034308924894
Zr 10.624928979723311 7.45675708206112 12.30175077110454
Zr 3.88900676206492 8.123279346786658 8.220605507076723
Zr 6.85664974079553 8.474460989215283 9.310187625179102
Zr 6.6315391843484734 3.6990407260900025 4.197010893544725
Zr 4.150138112418675 5.492572638229666 6.2906464278254015
Zr 9.697295304017356 7.866928507237139 9.367814455365421
Zr 8.874812080355596 4.052006000045253 6.069681616035283
Zr 11.514411987508243 5.638696935487417 7.9462547725215025
Zr 8.696925495762319 4.777100135559708 8.814568371625768
Zr 4.980485126498609 7.949550015705477 11.285350331473312
Zr 7.832357415258065 6.232951424424719 11.403756652422398
Zr 3.981263598590172 2.647211572361702 4.542324968548542
Zr 1.7230109008179206 4.334675665510894 5.4225532844374325
Zr 6.114751249297584 3.6457232895072713 7.402377945581186
Zr 1.5095778257092147 7.037133533552951 6.884947911072852
Zr 5.404426184734065 5.652833487045818 9.39407305409282
Zr 5.896650331634477 1.1415410698216413 6.135711859035539
Zr 10.87217916322505 5.29773586133682 10.68955993488346
Zr 8.175341011378292 1.8085748780184105 8.225141332275655
Zr 4.9644812527171736 5.133035058396926 12.20082451233425
Zr 3.203843895244692 2.2307983971005587 7.279812037060141
Zr 2.742778361580331 6.265479753720669 10.546357545640271
Zr 1.9136012973328484 4.621028092829176 8.353139165129122
Zr 6.847099220634691 3.179068884531435 10.669257140915597
Zr 5.445475213187599 1.2022967847479618 8.997811198470766
Zr 3.733459727652123 3.2956644045895893 10.21385323564189
