51
Energy = -376.49884901 eV
Zr 12.645759532490526 9.201121719253507 6.152337672527069
Zr 9.565370485106106 12.437726999599594 7.681115240235964
Zr 11.182421044506611 8.327747749258394 4.025796119495567
Zr 10.312562180351106 10.909429299460227 5.104938746366953
Zr 7.364348964887441 11.036563300765245 6.088635091976805
Zr 10.436428270287907 10.703444373757396 10.101170580855081
Zr 4.698550662253149 11.894499594490384 5.18939500941455
Zr 9.0361286880863 9.227234804656296 2.6415196810073667
Zr 7.568985463188758 11.485331057659039 9.39518437699859
Zr 12.041190389954231 11.321303668464026 7.687934587842912
Zr 6.106593418039637 10.11273941956911 3.3271259106793023
Zr 10.863401354940931 6.829344867604305 6.643081964703928
Zr 4.904679489485289 11.218606833747808 8.068033486214741
Zr 9.588456127033083 9.393726017072465 7.644666187521528
Zr 9.314529082420233 6.133220147277556 3.694755085163464
Zr 8.13006814677107 9.395216521842361 11.246650655285706
Zr 3.157847874465036 9.975655794695326 3.746356403417273
Zr 5.34520362397008 9.819539514218986 10.786399917802163
Zr 8.160373320798959 8.202798763253297 5.260153496675594
Zr 5.081090940400478 8.814848988193068 5.840211070871325
Zr 2.512975886556614 10.582553721042508 6.455113403270374
Zr 9.823043947900988 7.293115661818395 9.925431067855701
Zr 6.834995642950974 7.398607608217374 2.4456985867663192
Zr 6.566660718002228 8.557837824271246 8.521232832215508
Zr 12.236854150218184 8.581325979772805 8.858569101764834
Zr 8.138598168746654 5.94412035797492 7.858425731056127
Zr 7.119315000560278 6.743542391302487 11.06856012159444
Zr 3.399261278261352 8.72045061483739 8.492471506807657
Zr 2.186375402043552 7.825384858731897 5.573047506053665
Zr 10.917538545168036 4.841888652990689 8.55862613124429
Zr 4.087563546519886 7.351087755283377 3.2685850589076666
Zr 4.797815725327739 6.084874925645551 7.628071626420124
Zr 7.710526465528384 4.835551250513889 1.754974966415463
Zr 4.228641370799428 6.9412976952637 10.51909900954961
Zr 9.56660403278981 3.9742194366222283 5.86424111434805
Zr 6.508488891171262 5.509486235139796 4.941719322487783
Zr 8.760839550308354 4.286309929583967 10.434363409484757
Zr 5.077982567075624 4.416983716963356 2.6044839709691683
Zr 1.920234050886923 5.890475219737129 7.823967807490673
Zr 3.290665186168644 5.108215224629314 5.03295698544439
Zr 5.773644616988178 4.411778689988621 10.19196055383611
Zr 7.592081278867706 2.9511330802236184 3.746974100159744
Zr 6.559000830627271 3.508935700016526 7.351252459794052
Zr 9.477900536910193 2.445517136220754 8.230168464749484
Zr 3.2299835135419386 3.2180422609764516 7.3165719204152895
Zr 2.9182853114999876 4.3697389902376385 9.971763555362262
Zr 4.96061016450525 2.556830103601147 4.87137862095082
Zr 7.751285360027192 1.2148181651061258 6.248444064807128
Zr 7.152189321516899 1.4037594457372984 9.363227528606668
Zr 4.332179082423979 1.9256215864486999 9.662059904525027
Zr 5.113110917187506 0.8167148512445457 7.249496055231271
