55
Energy = -409.950039 eV
Zr 1.2428967567321987 4.24119448548625 3.1930213535334326
Zr 10.845163179519519 7.374893019165684 4.959501420576843
Zr 8.120099965096712 3.0180087767499315 8.001773660584231
Zr 3.8730583991759713 0.6061985970988087 5.082755121185533
Zr 8.333103676761143 7.130800927450315 7.664286533051649
Zr 4.032465167283776 3.398044281328859 10.245672665644083
Zr 6.472722843030246 5.6339377249325775 2.7501678016062883
Zr 5.273133213114848 8.188483476224688 10.05689424747782
Zr 8.358269875453965 2.400118750237393 5.071815045681739
Zr 3.6283183397083825 5.251084088723234 4.7148579256838055
Zr 3.589811114493598 5.168304914028566 1.6209048367582009
Zr 4.934487099142869 3.3053526300459124 7.154114719175134
Zr 0.8293547693341032 6.875334756990137 8.28573558293875
Zr 0.7136347341261964 5.447305091741542 5.815627171692763
Zr 1.6523431015182104 3.9363587224628134 8.463516818379368
Zr 6.023007699503625 10.29598321725932 3.10810605211989
Zr 2.9655393941471857 9.883161296612611 3.1798356623274686
Zr 9.964635858802225 7.419473464761088 2.2006961696072276
Zr 4.206318734304906 10.596968773410564 5.636345590067603
Zr 6.340683861696184 0.6779491250240178 6.495016940691695
Zr 7.9045692557171305 7.557962558740204 4.557935680788068
Zr 6.0662313225312685 1.507293595329362 9.352974327105745
Zr 3.5402217003850227 1.0778483914960606 7.966386489707391
Zr 5.4624508459374015 8.018993857569418 6.920183682330628
Zr 9.978662364548486 4.76576601599625 6.439683717380443
Zr 9.605495699485829 4.880448452411221 3.5627397310120554
Zr 2.8940385521716343 8.904304368940217 8.590644595753618
Zr 6.128171950172182 5.389954723693696 8.932689982562929
Zr 6.779280277023122 5.184987017424877 5.829763520956389
Zr 7.231568975116897 3.703251433180554 10.938013649933673
Zr 2.830169045242609 6.129986112807585 10.358183606237656
Zr 3.4399094882265704 6.061742471787857 7.480434654136899
Zr 11.421290924483598 6.922487101920295 7.71663230624513
Zr 9.996526651577572 9.492213855570183 6.881340783629715
Zr 9.208211992420358 9.830443073962229 3.665500569364161
Zr 7.837739617883396 6.867599128014189 10.966288261416441
Zr 7.78279894693176 9.79459953714486 8.996932340629485
Zr 7.18073306466799 10.26048092851487 5.9829333189180485
Zr 4.4260441152623144 8.304514509933936 1.1921943227471408
Zr 5.561200177291734 3.140803278434946 4.090004662420924
Zr 5.249057367010465 10.640833641031284 8.325126713961462
Zr 5.808408239873866 3.256195453056175 0.9955252213707189
Zr 2.109010131981695 2.7913572326400207 5.6567967239661865
Zr 9.688975165197526 5.191957512328577 9.521617055275756
Zr 8.231635112293443 2.7872920151285596 2.2282978394034383
Zr 7.398970206084843 8.344852648049727 1.3496627778613386
Zr 5.31800367345466 5.648074044422238 11.780249146598656
Zr 5.839248345921434 6.099020764204064 11.780249146598656
Zr 4.71891782475715 7.829376046765426 4.081879653828149
Zr 10.132459502763401 8.221020768289492 9.710935231765658
Zr 8.460468750775435 5.371716213250316 0.7013715070877548
Zr 2.1202650927472178 8.250051932707107 5.7441654939735605
Zr 3.1347199385647144 2.2418116677477626 2.737691223496144
Zr 6.3641268947509015 0.7143326852405425 3.3526757788377135
Zr 1.9127647664319627 7.128864605162941 2.958677316995805
