53
Energy = -391.27118426 eV
Zr 10.828453483450499 4.433988324371133 5.256237822710951
Zr 9.722919138963654 6.463119899160517 3.5582410249659833
Zr 7.5842968792978205 7.183029292100225 1.414686869281122
Zr 11.923709471313177 4.640416235406631 7.911598936627478
Zr 11.71892146432316 7.111880100215897 6.138065219833085
Zr 6.528440785407157 5.563975436594683 3.585945499105126
Zr 9.57148689950222 9.142702682643263 2.0497285153659854
Zr 9.210851247840568 3.206288498516394 7.447370033864687
Zr 8.08449187649173 3.4651235031826437 4.89795318567479
Zr 12.235784520374382 10.16427381721383 7.123024976378415
Zr 7.542467732078997 2.0029233355812903 9.866722040714897
Zr 10.329769687159011 3.1962321149214414 9.997424024318022
Zr 10.474017724482541 9.501134392881772 4.747608624216095
Zr 5.244950781140062 2.990091380043905 4.54602343455822
Zr 8.63670052237715 6.339162876423184 6.342089643311697
Zr 6.350944705908076 2.060034789611951 7.108099717924043
Zr 12.354361648197608 7.538335002236744 8.918746693128675
Zr 12.022503838884827 5.372116588823768 10.813600075742213
Zr 4.904006171032504 7.911421923516549 2.625073793197467
Zr 6.839267891944345 9.924582239585094 1.5340034410260803
Zr 7.566550095959526 8.418629956523967 4.1524561704377865
Zr 9.619424500122857 6.229263666439322 9.266921476962235
Zr 9.91440207054162 9.023264411944428 7.761577317371881
Zr 5.875935739774752 5.032139152469736 6.6676745125397785
Zr 9.501002119477208 11.700785120431897 6.3759534709014885
Zr 8.30077415316109 11.404393054241059 3.549860628482798
Zr 10.708104592987297 7.990362127533793 11.37849788481342
Zr 3.7224236201481293 5.381968628844313 4.3487509100153146
Zr 7.291878245979743 4.754170228929676 9.60843504238557
Zr 10.272035103161922 11.11418872298422 10.022409112468234
Zr 3.501322710888416 3.3842794757818826 6.851936552934895
Zr 5.206826156455266 10.613689991732738 3.8998908379176997
Zr 7.057448980373918 9.799050777233044 6.806616856793481
Zr 6.618257881013818 12.504547960020837 5.682868237479444
Zr 5.073638030420009 7.830869259575262 5.754053127974353
Zr 9.414894514140062 4.825301788142618 12.044354880459064
Zr 4.874609570614882 3.0298210756400317 9.470281972919084
Zr 8.154305470317592 9.302114992594305 9.953091859255975
Zr 2.748629726371062 9.006020752058431 4.911035241402442
Zr 6.231760582074631 7.541697667785738 9.08071453781372
Zr 7.9837345975837355 7.141565659476855 12.114908071424384
Zr 8.960402698935347 9.929233509601099 12.691680957157349
Zr 2.361932717707881 6.324941106116689 6.48836240659315
Zr 4.194910250856952 11.126594532188752 6.551389406209345
Zr 7.671477848575929 12.113498859513289 8.505660291960707
Zr 5.251621273393939 10.635860420177067 9.47056471243508
Zr 3.9454861613028873 5.79832048255634 8.99965204424523
Zr 7.45408059693621 11.870239950249594 11.26965889256912
Zr 5.393130727239469 6.02339661864527 11.641651711462579
Zr 3.247006687087905 8.74617091176825 8.001327686184814
Zr 6.064335097842012 9.369741143265296 12.117619460569944
Zr 3.6854106702154446 8.24126603418548 10.758394013044748
Zr 1.3455070500467057 6.897240294661429 9.268515123279515
