6
Energy = -36.39791453 eV
Zr 5.057173418337888 6.519135729063375 8.532752450323294
Zr 7.699512276854219 5.841201579078929 7.783221400477221
Zr 6.193389766281664 7.558504719222523 6.168612771866965
Zr 8.652776336575641 6.528287350994324 5.208318979059418
Zr 8.837373048164888 8.46576984733491 7.08313007769257
Zr 6.929841202131505 8.463225158659196 8.869761335048917
