6
Energy = -36.40468932 eV
Zr 8.723360653281375 6.028463111943025 8.254560576956859
Zr 6.30472581510247 7.715919974957314 8.19793871230027
Zr 6.825702928198654 9.418147856187094 5.997642067546375
Zr 8.794192359233712 8.965036120075194 7.979088706892183
Zr 8.03671062972306 6.9955380290876 5.931197591903267
Zr 8.106107450833607 7.598651796339699 10.36585377229295
