6
Energy = -36.39910429 eV
Zr 7.020102015142605 7.99632107073068 10.531852240787025
Zr 9.82727196752543 6.861721651977848 6.7033139026443145
Zr 6.8053141000305715 9.70382460864479 8.446193065862388
Zr 9.37546557775317 8.412538123275468 9.01285771405922
Zr 7.3016088906919 6.839575671298545 7.963605946009635
Zr 8.298769887138311 9.105869428837211 6.370175008522024
