6
Energy = -36.45925721 eV
Zr 7.73550179701541 7.190343368668519 9.07758642959318
Zr 9.052823289197727 8.577331020906012 7.028851949306941
Zr 6.257321376969529 8.140979339005831 6.855541466413332
Zr 9.475409803601114 9.383023183985351 9.766266039845275
Zr 7.190001281043344 9.994037057522291 8.712319412512594
Zr 10.551742096793141 6.988670363294228 8.837544202032506
