6
Energy = -36.45931298 eV
Zr 11.335035885758774 11.890830647166554 9.05351263412253
Zr 9.534821202292397 10.78999217727559 10.939968405513053
Zr 10.899769319073824 9.099310481900138 9.16922721662821
Zr 8.042021341698328 8.838619456807253 9.434192316047408
Zr 9.707347057798266 8.017328736907563 11.50974018142961
Zr 8.90563612352421 10.899995013124938 8.130713489341023
