6
Energy = -36.45862638 eV
Zr 10.367221217278148 7.145252968598918 9.952104496825497
Zr 8.777294435331118 8.593530027065421 8.1635202501699
Zr 10.124891044284821 11.893864645771464 10.937685340935882
Zr 8.881230304574542 9.349271109441942 10.934346899850066
Zr 8.669538393864016 11.136278791437734 8.69076752840385
Zr 11.1259429761442 9.789078560370116 9.320541273255634
