6
Energy = -36.15361905 eV
Zr 6.363590996931228 8.642996373652592 5.787807333366506
Zr 8.864098245543873 7.664592440009884 6.517129232228724
Zr 5.865952491009059 7.022048824069501 7.9887492644292175
Zr 8.442996441755474 6.723794910373367 9.17006028690024
Zr 7.425729238682359 9.380110125878451 8.260509545268729
Zr 7.653657961919824 5.223887615349926 6.906442140435294
