6
Energy = -36.462825 eV
Zr 4.629244723248138 5.866690118646757 4.015871300836958
Zr 6.298416002315828 3.6488046293391814 4.233421857974527
Zr 5.078120423220278 4.650776189315022 6.58259938817132
Zr 7.157148637529683 6.091075398382159 5.374295023995743
Zr 4.72341123657405 7.458001419655828 6.0631592309548274
Zr 6.45552548542978 6.626518752979082 8.072519706384904
