6
Energy = -36.43954869 eV
Zr 4.681653230208621 6.285717384841075 7.711718492118982
Zr 8.274111084012059 6.669598285486806 5.244089884609955
Zr 5.575358453232283 7.795962156043362 5.369384624984574
Zr 7.124266283327944 7.89715504803274 7.639262821277017
Zr 7.379932903123752 5.159765551631869 7.586715805335041
Zr 5.831658484685021 5.058782027487381 5.315808795330327
