6
Energy = -36.45968968 eV
Zr 11.499907831571148 12.310185208457048 10.820547799426386
Zr 9.166258943503193 11.803558812133408 9.380798697755258
Zr 11.366338269620382 9.955637136419012 9.244270878530608
Zr 10.3888906405111 7.590511179453277 10.461165337627746
Zr 9.87777354753945 10.125756268236497 11.613654134558201
Zr 8.568460990245399 9.277584551272296 9.196601597906502
