6
Energy = -36.39831284 eV
Zr 11.598934554409478 8.771433856771038 10.252799876385183
Zr 9.058646488890254 8.90613875292795 9.593192477573279
Zr 12.640429534886762 11.131928850663256 11.15827698423976
Zr 9.94401340639064 10.637857201003781 11.795807454873398
Zr 7.924207516344577 11.337012626836435 9.927994995733098
Zr 10.644837090699923 11.341907087204724 9.185164648681157
