6
Energy = -36.45105787 eV
Zr 3.2452156021396337 5.5266855720508765 5.779201993489506
Zr 4.3275110568076895 3.35388085916164 4.1471120326010675
Zr 5.791711637364948 6.916318037112469 6.208033406281235
Zr 5.356946841287551 4.08714121648325 6.7913426323078525
Zr 6.864682828275605 4.740391714969737 4.583883162329713
Zr 4.7520329645464185 6.186226591389551 3.5756132647285033
