6
Energy = -36.46450217
Zr 9.301067027570506 6.910630384822036 8.998993476142461
Zr 10.805628129352469 8.61031319263139 8.074196621990177
Zr 6.973854802205316 7.387122979864278 9.004334700157596
Zr 6.251050758806334 9.487556539500153 8.091015163700805
Zr 8.493056641032679 9.485554513642558 9.186805953819306
Zr 8.493056641032675 8.436535389539344 6.9623670841896494
