6
Energy = -36.38733377 eV
Zr 8.59322232007039 6.658431594410836 5.044481264861368
Zr 8.467786929701258 7.818840904776432 7.581314955700615
Zr 7.503039295252075 5.116609069635384 7.130360606725148
Zr 6.106462393194504 9.258590508219235 8.242373658419396
Zr 6.098521631011566 7.4213190227602635 6.058996162213767
Zr 6.14042816395014 6.635109251831938 8.851414293994097
