6
Energy = -33.23515298 eV
Zr 10.071554569152063 10.96197239319794 12.035995052544344
Zr 8.969500202065612 11.491733640990967 9.78917248246184
Zr 9.39257715714229 8.777527915545193 10.596807571845664
Zr 9.308309898543651 9.863545398490958 7.84715629916566
Zr 9.794135851027503 7.139087016448649 8.65553070132822
Zr 8.235973630414282 7.677894237432968 6.708239967652099
