6
Energy = -32.14001223 eV
Zr 5.493044352684883 6.8883942001786655 6.768195200946837
Zr 5.417949402663362 6.004505209687005 9.180306780454588
Zr 7.571583313549045 8.565582746060612 6.194207713901911
Zr 7.710598706771905 6.8754802605646645 9.106107480527402
Zr 9.639368017017713 10.010295504558801 6.663681703664168
Zr 10.162451465338858 7.57832123173166 8.0168702068167
