6
Energy = -36.42877105 eV
Zr 11.365399243417649 9.593414390948617 11.534547941070722
Zr 11.179127623908107 12.41579568743941 11.172921418560804
Zr 12.891521964532961 10.841737465687473 9.558670508859208
Zr 9.087474015461419 8.466626923354866 10.354482203509011
Zr 10.13823346389939 10.744579980594311 9.10640013351169
Zr 8.858588063167279 10.954121395127704 11.646453821573129
