7
Energy = -44.42946527
Zr 8.266620500000064 8.266153500000037 9.886963499999952
Zr 8.266620500000064 8.267002500000043 6.646172499999968
Zr 9.002334499999952 10.533078499999975 8.267277499999986
Zr 6.338665499999954 9.667167499999897 8.266744499999872
Zr 6.339006500000105 6.865444500000017 8.26605349999993
Zr 9.002984500000064 6.000229500000098 8.265982499999975
Zr 10.649590499999919 8.266746499999936 8.266629499999937
