7
Energy = -42.32363703 eV
Zr 3.944224460329883 5.507793256714805 5.5053780939263
Zr 5.637127288962026 7.403827381990171 4.173737797939828
Zr 5.480147358626883 3.219124686030536 6.01743774428818
Zr 7.340004548288934 5.0497610652734926 4.935003071026896
Zr 4.895380746828409 7.655853022395645 7.127521882103944
Zr 7.641951465460819 7.48400183597431 6.238324804700337
Zr 6.6543754542250495 5.272850234657456 7.595807928736407
