7
Energy = -43.05485241 eV
Zr 8.095194540851345 8.703105112768244 6.139589349147389
Zr 5.356966341058828 8.995367266826996 6.112152982854242
Zr 8.983391701212149 7.807296255868739 8.754723838788635
Zr 6.117790297017669 8.182297487761632 8.620339598848403
Zr 9.213239198225745 5.995034225596251 6.652066052123472
Zr 6.376399456140244 6.419432768980106 6.374018159933882
Zr 7.419789268012227 5.519296543892763 8.902786187473271
