7
Energy = -44.06351484 eV
Zr 5.0085104832621505 4.558834697414664 6.480955949227839
Zr 7.242295028596177 4.957470542897135 8.22376978511105
Zr 6.939934064686725 8.628111692524937 5.424283274004566
Zr 7.38850779028043 5.804503882668255 5.492791583433555
Zr 8.432455674084308 7.474473797742937 7.568639052715676
Zr 5.59013165109641 7.175397896585463 7.485502696185375
Zr 4.822981810174222 6.826024007280536 4.7488741764359865
