7
Energy = -42.31632397 eV
Zr 7.262966137828448 6.967300674494337 3.7261731320396096
Zr 6.37425385314443 4.634343025616309 4.643502348391689
Zr 5.05101195786143 7.5302104042140785 5.089228092497
Zr 7.328189125505924 6.5564386519285005 6.596490408287481
Zr 6.701568957434961 3.5837852217419366 7.034741861740753
Zr 4.903497556270279 5.286202542106935 7.6016959527659225
Zr 4.755442325412078 7.818649393355706 7.685098117735358
