7
Energy = -43.04850966 eV
Zr 8.715531594454252 5.660501067876311 8.19081669062608
Zr 6.137301970385463 4.62242595391519 8.293082705777984
Zr 8.663638022250904 7.992976844040128 6.498517217576505
Zr 7.0101639464904775 5.66720579532129 5.928934163530341
Zr 6.546928094909367 7.5022030622827565 8.317300151730242
Zr 5.953819268975243 8.06634148303895 5.42033518452679
Zr 6.695333066017229 10.053739402818938 6.914750463867019
