7
Energy = -39.8329078 eV
Zr 7.671820572666343 9.097004940118117 7.2262753595281755
Zr 9.132109743566811 9.28222429094009 11.577044520602989
Zr 9.945240750310374 8.448373113186552 8.96384774440898
Zr 10.827895196772946 10.945007639925587 10.054995361754331
Zr 11.746601721022346 8.581443623470776 11.09981353304513
Zr 8.116646432393253 10.773212789572154 9.445898084499778
Zr 6.398097766762239 8.63618477032265 5.362634628174573
