7
Energy = -44.42140792 eV
Zr 9.29865064049596 10.57555522022457 8.729196310066662
Zr 8.70774493008506 7.433204555371493 9.282132000028026
Zr 6.697694977187399 9.49990092884814 9.355245198353856
Zr 11.120855305732016 8.790423561138113 10.08239090954439
Zr 10.617110525489712 8.414251884818437 7.351960051373046
Zr 7.88603661005681 8.840359018385902 6.903295959823693
Zr 8.699236883166373 9.473634703426805 11.323109443023432
