7
Energy = -43.21945505 eV
Zr 9.332435966891726 5.467066327280672 6.016803010283342
Zr 7.829739608575355 6.170689218310523 8.304067911325577
Zr 7.12061658607868 8.8234733663456 8.848078504271012
Zr 5.061301470621565 6.677095504354255 8.166361843480983
Zr 5.887386673353754 8.621644162025259 6.472036288487224
Zr 8.68844166964677 8.103560133990724 6.3091631198916085
Zr 6.626250108356245 5.929109750174907 5.696324630497368
