7
Energy = -44.27581402 eV
Zr 11.175376665523684 10.767786299976978 11.04757244401193
Zr 11.754968576310258 9.767295843333402 8.508075751712164
Zr 10.117160847086604 8.178630877491837 10.263782279658583
Zr 9.131400640752348 10.867626523427163 8.992831917251156
Zr 9.532975297336082 8.458354348688559 7.4367120811391
Zr 8.553457818072658 10.094942599297116 11.680829460168052
Zr 7.462637060676803 8.589433633800938 9.323083842385655
