7
Energy = -42.8541672 eV
Zr 9.424299931866837 8.431185434165027 10.436141724899297
Zr 11.738248981549848 9.68704139511063 9.542210747774245
Zr 9.905581880850926 6.999845575080692 8.130400883237343
Zr 9.136631718402974 11.08085996246131 9.554725270389715
Zr 10.285112331588978 9.594552265881633 7.309156531798303
Zr 7.640340245883013 8.908432818753045 7.997369846687937
Zr 6.876341226243902 9.60250823606501 10.485387743078086
