7
Energy = -44.27695447 eV
Zr 10.597834063317844 11.23237048588506 12.376328814440138
Zr 10.698223437543236 12.487576413023831 9.89468205124283
Zr 9.637634624598764 8.15375997852147 9.063595189282248
Zr 8.657269892755464 10.50895707191837 10.321841785046262
Zr 10.141452877790956 10.654896629523954 7.8348149918757475
Zr 11.707232388510002 9.796199353786635 10.111436837244957
Zr 9.92979096296735 8.584599898392293 12.011628279956927
