7
Energy = -44.28621732 eV
Zr 7.591966052160499 8.5076097490607 8.479165856554369
Zr 8.338809098230476 5.735088579855598 8.897335814583617
Zr 5.433616732629991 8.56681825061814 6.594451361972765
Zr 7.1194644421422835 6.278349746318339 6.323385530570137
Zr 8.009676429594169 8.962013943567829 5.64440950495223
Zr 5.629783395134365 6.472891588163587 8.742487252944905
Zr 9.739085763174138 7.255188373888308 7.017207820057397
