7
Energy = -43.06143104 eV
Zr 9.931309579785077 7.841749605875575 6.503693405888712
Zr 8.613502862004665 8.189028996226753 8.946192910303337
Zr 7.110871150985219 8.45749919514705 6.5511152873902905
Zr 6.114761321847876 5.659749995076066 6.043225835511982
Zr 8.380206512415404 5.8130910206209245 7.439960223261219
Zr 4.370038804863297 7.547572935664962 6.35720649066841
Zr 5.9961268411314865 6.942398702171073 8.659084334685978
