7
Energy = -43.02245164 eV
Zr 9.919177224474685 9.003031553452553 7.527739452928488
Zr 7.997394902381296 8.070451668433462 9.61548516704052
Zr 8.767274174102159 6.547693512891356 7.385987767894732
Zr 6.918966236496068 5.495719687479267 9.074809947278121
Zr 7.324825847017733 9.671683526022306 7.244718235950282
Zr 7.572143119228283 7.829295966585385 5.257241957677833
Zr 5.766426561214562 7.494693131639867 7.626626765717709
