7
Energy = -43.15668301 eV
Zr 8.62730538312935 7.12009506362186 8.805031977027632
Zr 6.3303879078977054 8.188004759093838 9.896589934300179
Zr 8.126769895944875 5.176212747462855 6.531479865289048
Zr 8.930315234915918 7.680773702803667 6.042093595969818
Zr 6.006469599707501 6.5247879873071195 7.692765940459621
Zr 6.920031950445885 9.243991549998546 7.410950655933168
Zr 6.4443794364324765 7.439188318055128 5.063023531679601
