7
Energy = -42.01573759 eV
Zr 10.322470137803716 8.621970444704047 8.055880673748673
Zr 8.900530837510695 6.262939194262915 8.932921798956995
Zr 9.439591872373581 9.437227363209164 5.550148436254287
Zr 7.587790546843495 8.176505562224019 7.204378674058664
Zr 8.04950875007184 6.7331288168892 11.265661354012067
Zr 8.466445059090546 10.781401318085994 7.944256460951823
Zr 8.10526764330916 9.081857100506205 10.005407965127242
