7
Energy = -43.06896974 eV
Zr 7.710423621184881 5.46188118591485 5.763818956286074
Zr 8.375975400204286 4.590352606471035 8.106757219450468
Zr 6.984832604629655 7.998283454331516 5.533020248336998
Zr 6.268730915140291 6.581955460151042 8.147786257559288
Zr 8.921980779294815 7.361909323257071 7.609667605071077
Zr 6.854792652221119 9.362475736070268 7.995347679540671
Zr 4.562573496908766 8.42390244425336 6.723814243158492
