8
Energy = -51.02976407 eV
Zr 10.454533998078746 8.257291540940122 10.013161783043023
Zr 10.518362661011075 9.84241486970921 7.623460991863332
Zr 12.238872756034931 10.403741316761964 9.839365050058367
Zr 8.334276143374352 7.686926955639181 8.352255887916629
Zr 7.993841783021704 9.307653229726093 11.035909576278288
Zr 10.515518982153326 10.040459366579853 12.168754061514786
Zr 9.650580983127815 11.522051082614059 9.927615768181148
Zr 7.752801299223979 10.299201222028092 8.335027042666077
