8
Energy = -50.7792605 eV
Zr 8.751776093787516 6.127970278301286 5.224184189739278
Zr 9.548695061641402 7.7234023768387114 7.135325618112965
Zr 6.1584273832828655 5.387526311792705 5.074735673102542
Zr 7.26190377482117 5.888095653580815 7.838632025072976
Zr 7.776666006615598 8.639328320612364 8.95871886758882
Zr 4.443549800371578 6.26693956063019 6.841056021866969
Zr 6.716917221361696 8.138213399586098 6.178930113616804
Zr 5.262773640064444 7.929585917507496 8.809514036806018
