8
Energy = -51.03209249 eV
Zr 7.570975471905746 8.805428333352321 6.169090849709771
Zr 5.963502845111289 9.607628105517506 8.400480658227444
Zr 5.605632540982087 7.006592078094593 7.210817057674272
Zr 7.35896013621106 7.443451197381277 9.49688712984997
Zr 7.651524398632477 6.016570678739819 5.319744240130609
Zr 8.908552968883804 9.616980558521588 8.551824112650847
Zr 7.499989786637406 4.989694286029352 7.9550851819508575
Zr 9.428577030836847 7.05500977819296 7.525852668320151
