8
Energy = -51.03814618 eV
Zr 8.823221985404244 8.66848432422877 5.639314563046071
Zr 9.9005347121581 7.98949470017024 8.135996037240515
Zr 7.763870974429351 6.418220800240276 7.048270014765721
Zr 9.206727492083784 10.667756483819542 7.734740787733546
Zr 8.865846666080817 6.258685202588222 10.001540438326833
Zr 6.422706649855728 7.243877207928795 9.465929707244891
Zr 6.806329493182581 9.19604788397998 7.542516125138495
Zr 8.310244620676235 9.336906916349848 10.108167027044347
