8
Energy = -51.09600819 eV
Zr 9.038793626179409 9.904373877503135 7.826901242176224
Zr 9.482375548293602 8.206111368931351 8.107092066962249
Zr 6.281432794386036 8.062288538041123 8.105528172360897
Zr 7.6908442941823 8.981034266902933 7.826901242176226
Zr 8.458386991843831 7.329343248807058 7.4998407721692795
Zr 8.469761129395524 6.634996120242498 9.162289925982947
Zr 8.384976763184119 8.366879469003235 9.449274444619782
Zr 9.093817494731981 8.282173110568522 6.656170491355819
