8
Energy = -50.55826242 eV
Zr 8.108928039742848 10.3070605441905 8.989329584940746
Zr 10.661944903744967 11.282863262004186 8.615901285994276
Zr 12.60254360965641 9.46748972733894 8.523870522024117
Zr 10.091088076063318 8.502631681935116 7.7419687244299356
Zr 10.486471597414523 8.946401584411921 10.541494186201238
Zr 8.100522565006788 7.506570351754466 9.625543563394936
Zr 7.772446538854629 9.329560770914679 11.603393023396848
Zr 9.389395203393049 11.555073538890824 11.305841501016156
