8
Energy = -50.06417131 eV
Zr 4.025904649150608 5.4798182543288165 4.87221973389356
Zr 5.2655311419687525 4.5647025596735045 7.459200743032619
Zr 7.846126719289387 3.5790107606347084 7.445223765588729
Zr 6.730879302724492 4.362114575697372 5.008959242213511
Zr 3.9174955694839593 8.1856592237821 4.313981807340469
Zr 5.027468520055222 7.394393564039073 6.746824537081616
Zr 7.725223076578996 6.277278752266553 6.8861810216615895
Zr 6.488322302840626 7.183973591670195 4.294360431280084
