8
Energy = -49.85703065 eV
Zr 9.24870039329782 7.77077891819406 7.415656923718174
Zr 7.6507334268577925 5.204965350393218 8.060019705759503
Zr 8.100739064384024 10.307012296741117 7.7347540475953025
Zr 5.0319756361073 5.34590819871334 9.042173890808275
Zr 5.334574188711761 5.3920897562852 6.385287119244746
Zr 7.656901090937654 9.060996286191127 5.410394872166777
Zr 6.437574622045002 7.755347482271399 7.774748009095968
Zr 7.728457604656123 6.327902744216212 5.404809181543578
