8
Energy = -49.81260327 eV
Zr 8.367957322344104 6.612005193181408 5.440801340591493
Zr 8.799653832319906 5.410932205448191 7.98531420643507
Zr 7.981888261127584 9.330700479655206 5.286895525255382
Zr 6.1905950559103 5.121831378037376 6.790844611587669
Zr 4.166248962200793 6.734427406338091 7.714518098060244
Zr 6.553334650782939 6.792694857901028 9.054161995307085
Zr 5.805342813541756 8.267215724072758 6.3290404321587355
Zr 8.724826509078905 8.283443809290743 7.706763230968329
