8
Energy = -51.04063148 eV
Zr 7.4157419291227376 10.388477576161259 9.303311475871755
Zr 10.625020975763404 7.264604551939147 8.499032256268343
Zr 7.832680681944985 7.913691315337269 7.9288521923239035
Zr 9.918414133079093 11.796757097632039 9.655088337932705
Zr 11.497343858796622 9.432228552971479 10.14613765445424
Zr 9.14082113840086 10.586953271299198 11.915038381982388
Zr 8.913109249173251 8.24720057317535 10.483815242314133
Zr 9.86823766627006 9.859121713372565 7.688596798701407
