8
Energy = -49.99521621 eV
Zr 8.216271165657595 11.697376576386775 10.973383155290174
Zr 12.294655665278588 9.62189469185207 9.823391314264228
Zr 13.071748038021829 11.89812532223022 9.004308576642796
Zr 10.391861140268464 10.13752211033688 11.847963208167265
Zr 10.688177880172063 12.397419416712658 9.79496297548739
Zr 9.397181902452754 9.97620685870558 8.966707878090888
Zr 10.284577064150414 7.654060766291761 10.296475646024929
Zr 7.9223264250426375 8.843862575531434 11.17251244725865
