8
Energy = -49.67151374 eV
Zr 5.4316861878992855 7.415916252591519 7.744612797625551
Zr 4.03264860056267 8.63044642482439 5.719405993554713
Zr 8.134371119838079 5.0361249867013855 6.376107420330848
Zr 8.152903330255612 4.996654331735485 3.6480632887215685
Zr 5.645725531679366 4.680849813013019 7.474752771837596
Zr 6.0773414995463195 3.7052402911835327 4.887235290413159
Zr 3.505821189617107 5.966779225044435 6.1840300431240225
Zr 6.0631556281033605 6.611641762408037 5.009445481894078
