8
Energy = -46.31721205 eV
Zr 10.591406868706146 7.75699379923871 7.888738699822459
Zr 7.063515559865323 6.1454497860370125 10.056801366559041
Zr 7.702421647081306 7.73697412874305 7.713448164506976
Zr 7.251455948216993 9.618844535498358 5.602306016911255
Zr 9.61102284130441 8.774778905016483 5.787253688624604
Zr 5.2148230931544 8.826846758975446 6.90051688925072
Zr 5.11979161620993 7.159892009570434 8.817349176890676
Zr 9.379487495876983 5.817765227568608 9.074666886866456
