9
Energy = -57.57786449 eV
Zr 9.129518504456698 7.0174976118637415 4.843765712989148
Zr 7.445606055218319 5.023162659467466 5.3649904778493775
Zr 8.973582945215446 9.123099182273055 6.4683686973771275
Zr 8.427928780947546 6.507313461588178 7.714948813251383
Zr 6.429304463429735 7.73144367764106 5.943622392473203
Zr 7.228212462565984 9.215184610641462 8.493300663466375
Zr 5.7011712046058465 5.144807956658936 7.389461864339318
Zr 6.454133651425222 6.681381877055515 9.798087359086614
Zr 4.639024273217935 7.794782594648363 8.189640397289766
