9
Energy = -58.51912416 eV
Zr 8.622861990591215 9.608964525142651 7.2301348369662986
Zr 6.354432960297875 10.163074132786042 8.748003633606658
Zr 9.929697049841746 7.239359369704589 8.49191266923435
Zr 8.695575149114763 9.322350172178771 10.00933488607546
Zr 5.95798191962888 8.647875223989034 6.320032335364999
Zr 7.036305495035295 7.278654917988068 8.632276818858422
Zr 8.537927911717649 7.226844815074966 5.865292823611578
Zr 6.159395308929209 5.800748304787367 6.204140618825635
Zr 8.473723853712276 4.946938463408437 7.499663236638072
