9
Energy = -55.09876461 eV
Zr 8.464482043588216 9.195933130940825 9.356382563110815
Zr 7.772409453143922 8.31862676117135 6.633519103252494
Zr 7.71402234983187 8.725348044089898 3.8619024843071514
Zr 8.54285527110226 6.470179905405693 8.954854164312955
Zr 6.06904324465037 7.839642530058695 9.125238829632888
Zr 6.560767362436514 6.494215104393935 4.139369510706121
Zr 7.712290372561504 5.286692803298118 6.427623918196356
Zr 5.2033279078525885 6.688115216971939 6.596928843640242
Zr 6.057303900812577 4.9554536254894455 8.780422430891004
