9
Energy = -57.62273125 eV
Zr 7.579563206617129 6.7270671812596206 9.162162281200189
Zr 9.345578654158729 8.40882994072239 7.420250770615091
Zr 9.895117374179097 5.679131295647812 7.923327859476955
Zr 6.668399483598678 9.033049733461601 8.152173627987475
Zr 4.360309226040835 9.289072016922228 6.6324598521310385
Zr 7.322329207144894 4.374700130599409 7.704707108922893
Zr 5.362886702656507 6.620584279913354 7.015054369063207
Zr 8.039157590251564 6.395937065282497 5.944678037198481
Zr 6.669773406720514 8.71415504528463 5.289075620632743
