9
Energy = -58.52777694
Zr 11.35275198550291 8.808948944393425 8.928017040592007
Zr 9.289988090513638 9.307481610924679 10.077461447954361
Zr 6.48629668489808 7.915361936445845 8.417817978088717
Zr 7.473744651341361 9.579977390428377 8.928017040592007
Zr 8.190696044970634 7.579805478824188 10.037947392485883
Zr 9.16538774805047 10.415798366653922 7.984448472585108
Zr 10.385398885668163 7.41462780658264 9.861995360256792
Zr 7.453367589241327 9.31008773824351 6.815859549991834
Zr 8.762930279661484 8.228474687351536 8.177552757605126
