9
Energy = -57.62952783 eV
Zr 7.753947796529114 6.929937341178259 7.496595199490649
Zr 9.822410215583682 10.948995365026557 10.115032767128671
Zr 6.366662517083907 9.165779335693884 7.608768367380326
Zr 7.454209245870996 11.212980354817358 8.862089777284462
Zr 8.147317598454356 8.53263024294839 9.972766957766773
Zr 11.609394207943417 9.072182351862002 9.07123909728003
Zr 9.32280264791378 9.453211666745831 7.377395937078935
Zr 10.566485052785108 8.2536106898654 11.387134944826755
Zr 10.13835917301442 6.73793965208062 8.712358643895387
