9
Energy = -57.84588452 eV
Zr 7.398570150090272 6.952223502315313 9.57714889151136
Zr 5.726849285600683 8.977969444287723 8.420122778064368
Zr 5.519666292356129 5.316259723591791 8.155289041575534
Zr 8.563639770501815 8.599758221909438 7.8045737062923335
Zr 8.578012144553407 7.203524559655074 5.201142925797364
Zr 7.1032673394737715 9.886442078863281 5.953862263399201
Zr 6.804296493436559 4.622281857427916 5.571294266836337
Zr 8.386936360188388 5.455839401471319 7.576704616517401
Zr 6.112841016631365 7.263697816578556 6.302453383491863
