9
Energy = -57.64109561 eV
Zr 8.757003085791881 5.013151909454556 7.542562191983164
Zr 7.803113797488656 6.878823046391417 5.420245708180169
Zr 8.396455577013555 7.534205892629795 8.392946968677927
Zr 7.200799500405613 3.986789216330876 5.681802846829645
Zr 7.052064791506543 9.30604211042098 6.743796118658514
Zr 5.256549297799334 5.516776477056598 4.74086523155251
Zr 5.979575378209339 5.97066986371235 7.610326039103639
Zr 4.773501740364702 7.935583614295085 5.812202866096748
Zr 5.4391512948548995 8.515975224271584 8.713264630423444
