9
Energy = -58.27909542 eV
Zr 9.823667106744484 9.131487477319608 8.911870465966084
Zr 9.939217004350821 6.680600399778958 7.242342433880103
Zr 8.104444153549835 7.015476018047197 9.421244452223808
Zr 8.685871700501066 9.230546819895665 6.415941062071029
Zr 7.599276621644858 4.8476750708125635 7.877880480843018
Zr 5.685413605697598 9.09646909022387 6.258993353388653
Zr 6.848011312773166 9.456236198802513 8.707246233583987
Zr 7.239215808063341 6.818543800463804 6.065988250598419
Zr 5.4012389744926335 6.909804151747978 8.261054030583749
