9
Energy = -57.38867868 eV
Zr 13.166290051012155 9.30778942009377 11.564041138911737
Zr 12.3543635467519 11.865765344343853 11.35084231184112
Zr 12.284039489696 10.533130790273148 8.863051611560788
Zr 9.81226574632293 11.867081127251263 10.280691646295939
Zr 9.441680966080023 9.740267037938443 8.253149568085618
Zr 10.773373073641764 8.626274030908109 10.407330755064644
Zr 10.496876577408392 10.220799291782322 12.779125145848743
Zr 8.186392456308083 9.568017619196684 10.923961258487765
Zr 7.332934775787692 11.283447108317597 8.928354911931898
