9
Energy = -56.70903794 eV
Zr 5.804271931821548 7.990011966791651 5.04641690821033
Zr 8.26091870854693 6.651380343332512 5.775582431935721
Zr 5.612676230774276 5.165228356362078 5.87925895677871
Zr 7.961411889470701 4.370788974262429 7.269358870025821
Zr 6.470416971651867 10.445550627383426 5.53077571264848
Zr 5.984448741977197 4.696311909275697 9.008388791473271
Zr 5.865987215802378 7.243987705979419 7.800572279719204
Zr 7.941389590977583 9.130703546157863 7.216861856587508
Zr 8.467282717819629 6.708188323122271 8.80918545540981
