9
Energy = -57.79933823 eV
Zr 12.224414081204113 10.67781233425775 8.122847596066197
Zr 9.870971895442588 10.034187639217064 6.8255894723242
Zr 8.44461587261624 7.618612409781948 7.502980836740015
Zr 8.51460569445935 9.00965297347043 10.803839795799496
Zr 10.797560139367905 8.37607581231019 9.074642282563286
Zr 9.917293237858125 11.16983900951642 9.516572948379514
Zr 7.419453991900793 10.180089794434863 8.38946491045284
Zr 6.3880879009755 7.7753995950876496 9.428425295269411
Zr 8.867352010515111 6.3450267676180925 9.978147212208002
