9
Energy = -58.33573468 eV
Zr 7.759301582230448 9.891369932162329 7.306115534753877
Zr 9.074589088190287 8.536433069153615 5.293641827667577
Zr 8.978040861682194 5.851072040936797 9.4804604563771
Zr 10.103936403270728 8.32480782494396 8.154253964755712
Zr 8.590635584050974 6.301759668566355 6.830975739003421
Zr 7.519431075908079 8.13747915997595 9.503552400857075
Zr 6.153873771869148 5.899314829942453 8.389668354010617
Zr 6.271779306967765 7.707128432596485 6.054422247415903
Zr 5.131015206613051 8.774503293357677 8.31596663417461
