9
Energy = -57.62928548 eV
Zr 7.525419015870161 8.258821453643328 10.00460143315859
Zr 7.854967678175538 11.008456128455967 10.313058471314244
Zr 10.73554230845492 9.250709174613005 10.276686208897024
Zr 9.961704837261616 6.798835034493546 9.775333355620651
Zr 9.193607389830179 11.048998401217125 7.868424550416743
Zr 8.917602164188718 8.29318323786697 7.593821228141327
Zr 11.528203598341394 9.41958743279982 7.784421197972546
Zr 8.991200331661735 9.231340624415253 12.23161393750451
Zr 10.564700726196463 11.866541835375063 10.221308971970329
