9
Energy = -57.07314303 eV
Zr 9.457250336722458 8.589306671247371 9.083358009331223
Zr 9.44096620783468 6.268506802593563 10.53640075953079
Zr 8.430784543157776 8.354329133404251 6.44932892099785
Zr 9.555455378695022 5.924427446438808 7.794881898370017
Zr 7.278662272506217 5.75007745750353 6.191379622605103
Zr 7.020504350624699 6.833323331238434 8.940582845649237
Zr 5.404734321038122 7.780046767523371 6.716797931424668
Zr 6.107847474484752 10.12113458523989 5.64528223346838
Zr 6.805306738988019 9.779933331876816 8.32374827153571
