9
Energy = -56.61462788 eV
Zr 8.324420255255353 7.989552273097118 8.948883479125087
Zr 12.416762228974067 9.423160693297408 10.386014954411687
Zr 10.010247878046645 7.9931379793809825 11.20372727927564
Zr 10.941290116677362 10.357975717003434 12.631431454789414
Zr 10.938626662057855 8.157428558714894 8.505269169448281
Zr 9.743627316219841 10.552491661697726 9.77295091546781
Zr 11.741811050312913 12.427267830292502 10.825481277041131
Zr 9.178721371448772 12.299611715240038 12.074912614939805
Zr 9.444166015920521 13.62462782639141 9.793292494352938
