9
Energy = -57.80108194 eV
Zr 14.025102066272543 11.79737882066318 11.173424532366807
Zr 11.209553954675387 12.332917902859453 10.921269433105152
Zr 9.456292315011147 10.347231696509892 12.180401618912379
Zr 9.914140848569216 10.953590650324134 8.678712890755463
Zr 7.906433049722444 9.474687127435848 9.98747663026251
Zr 8.298007971549739 12.313826461308215 10.539694370410302
Zr 12.30149011751362 9.866698854954421 12.122054174161459
Zr 10.56536468900861 8.563364662534578 10.184224485923716
Zr 12.669044272951504 10.361642044590777 9.264877047580663
