9
Energy = -58.21179612 eV
Zr 5.160739525094594 5.618416664998644 5.173069680486978
Zr 4.559743545287768 6.665394331811318 7.851492507506051
Zr 4.610419901183042 8.421426080391385 5.60797426720926
Zr 7.239201262987558 7.5068637017321445 4.8556548035301645
Zr 7.324970983233779 5.845497755725054 8.030286902303283
Zr 7.966674136335406 4.70246391746853 5.504953419197386
Zr 9.241027581472208 7.170882686874903 6.679428684770463
Zr 6.7229647039467775 8.628323752288521 7.518895062402681
Zr 5.635347025860318 3.9018197890443704 7.239333352928722
