9
Energy = -57.94801481 eV
Zr 10.08410656368127 9.31749003164741 7.070548073265935
Zr 7.129944068951114 9.679987305852247 7.161152595462741
Zr 7.781914136988837 5.707567576351878 8.93359595673557
Zr 8.455647550840165 10.898566586820875 9.181999824839194
Zr 5.83066340960018 7.30110106311751 7.746438455137631
Zr 8.221539120166657 7.125948492904594 6.3344603519963885
Zr 9.021276674943442 8.160314664995637 9.30153221614161
Zr 10.398411318866867 6.299518967666648 7.730921425880248
Zr 6.448854606483884 8.872228709069494 9.969611453690417
