11
Energy = -70.47410614 eV
Fe 10.98786742290475 11.105309874537104 11.023139126791333
Fe 7.996327942507333 9.945065039436496 8.766394207123543
Fe 9.960363978188004 11.41368163385585 8.903197467963206
Fe 11.911651337624052 10.160304109262265 9.033986864193414
Fe 11.355085196471608 7.857992334672978 8.938263718015182
Fe 8.872893472145853 7.583109357788371 8.881791107526128
Fe 10.022969826511599 9.2822389456382 7.6441095990574475
Fe 10.05486085962577 9.184457261044109 10.234504659365765
Fe 8.571755661791627 10.956083387963519 10.818691719689971
Fe 7.86698715402876 8.57162407637064 10.858960078070751
Fe 6.576168629670324 8.121209533177005 9.056951423613816
