12
Energy = -75.65265362 eV
Fe 7.531064111111724 7.8593701438819785 5.332028021341318
Fe 6.666330651088214 9.820790963837126 6.184373524474541
Fe 8.829416846302381 6.691738612229476 6.80039337636623
Fe 8.818374503925293 9.191490256081927 6.843545139210567
Fe 10.432159238320821 7.9323760982803915 7.988861023769952
Fe 6.670504587012588 7.812065077374448 7.504605245336577
Fe 7.0380791365091655 10.106633709409104 8.412070845655252
Fe 8.934505522011662 9.276613482535016 9.525257690734225
Fe 6.692020307206327 8.242007347619596 9.827448258350278
Fe 8.58658288518982 6.716746210787663 9.138097114820729
Fe 8.381027584464585 7.707267145574732 11.230031837749852
Fe 10.45885504572934 7.681821371260752 10.252208341062692
