14
Energy = -90.48017869 eV
Fe 9.890552772168247 9.642992879441502 7.575936366228074
Fe 8.528819136570556 11.47753473593818 7.489340201543572
Fe 10.620030820145796 11.887799963603682 8.331896146075643
Fe 11.642845927964963 9.932105620787606 9.086090873707176
Fe 7.816099748209223 9.86370796620483 8.939268879462361
Fe 9.55134956498614 8.42330376207835 9.533142269929654
Fe 8.550736035255044 12.113212465695831 9.690831348918902
Fe 10.647789756195248 11.783149091996593 10.662313840048908
Fe 11.644154358802508 8.083324615758956 10.504498629127951
Fe 8.555023286306849 10.26228060711151 11.11425866351656
Fe 12.37690227872192 10.336507668012578 11.26098702775694
Fe 9.574744412541298 8.303433337366425 11.861823214316969
Fe 10.310725088873832 10.555708228260107 12.618966288339342
Fe 11.66149419612888 8.706206440614244 12.701913633898474
