17
Energy = -109.36597937 eV
Fe 6.374971378327341 11.148099912385224 8.706315150397074
Fe 13.24218002003137 8.800731604375887 11.375995997656094
Fe 7.713464158986663 10.15637473920032 7.199153872075901
Fe 11.694962748779911 10.627178539955757 12.050549005856883
Fe 8.1868912839881 11.368677522436165 10.080614942248795
Fe 7.371343569035779 9.159673631630719 9.449837547735948
Fe 8.666272460565557 8.123813599683482 7.797854627245153
Fe 9.607157251851923 12.017939684291106 11.87256048020659
Fe 11.89624150540338 7.111741721493621 10.241687212321931
Fe 8.760404610874447 12.210246652884743 8.172562717533687
Fe 11.153385286692032 8.191665429048784 12.11361715786442
Fe 11.561213752254238 9.355872749287176 9.689423928445684
Fe 9.689454921055514 7.949918587136419 9.886715760802455
Fe 9.552147497074444 9.80377649589942 11.266414102759338
Fe 9.523598844670085 10.100680230279083 8.75385986295871
Fe 13.089980452820624 10.990913330182412 10.283753576789838
Fe 10.78609371698691 11.752459029227433 9.928847516499536
