17
Energy = -112.18788088 eV
Fe 12.2497743118157 9.839868916209669 9.466352722560003
Fe 11.16803336861908 9.044314195354524 7.270517884498141
Fe 10.619217794091549 8.139475479002565 9.328648534231284
Fe 11.849435478270616 8.484505024717754 11.369092807249013
Fe 9.30213091171896 7.078519207320274 7.673942376543777
Fe 8.763970862193423 9.290141807882295 7.603081559894899
Fe 10.091356600265074 9.960134812338605 10.954015384497694
Fe 9.95398454241804 10.898072814988927 6.325091705190348
Fe 10.261561376213074 10.847871488184765 8.721055246327749
Fe 6.980987359008524 7.413950871877069 8.17497840565145
Fe 9.692892595172754 7.653660300206413 11.666164110132309
Fe 8.208990667601553 11.624229933007319 7.7144885618694
Fe 7.950776341045967 9.31640439198336 11.893041988570875
Fe 7.986431632626386 10.659170852648007 9.893544380401805
Fe 8.308881702194373 8.219144435629007 9.782645819338057
Fe 6.182435753153901 8.739162503545465 10.343266564475977
Fe 6.540668542515402 9.70622061128901 8.227420469874417
