10
Energy = -61.01614184 eV
Fe 5.97547283888964 7.994591215862375 6.311403146632591
Fe 7.6733242154351995 6.35636157970895 6.388018861325391
Fe 8.022532376677077 8.903871263647332 6.887799095048178
Fe 9.715290385939596 7.419285311994558 6.3052198392072745
Fe 5.6178829049694485 6.068501234451842 7.695826224645645
Fe 10.554911208730063 7.881812207659149 8.289401663109754
Fe 8.223559598565785 6.731605430922335 8.563229899043309
Fe 8.92901506737117 9.269127146174819 8.898208631145252
Fe 6.447078477302639 8.13280984611394 8.629349807674469
Fe 7.115866962037636 9.516968799382811 10.306476868086392
