17
Energy = -108.57706675 eV
Fe 12.193480996438328 8.672192745152277 7.730563630166562
Fe 7.5969442875581175 10.055772072098508 8.663066081253122
Fe 10.389914902495804 7.3558256029229625 7.079708812617169
Fe 5.365104134204441 9.929853164482939 7.940204731158307
Fe 10.004570050357284 9.62672294365966 7.527749085043109
Fe 13.344198947953906 7.484729075005815 9.349638765929488
Fe 11.725118344369346 10.761824033381306 8.653903771481033
Fe 6.1493893340627634 11.90117444500503 8.906468758686328
Fe 9.013069187509057 7.957561211433356 8.9453924341709
Fe 11.180222728154739 6.902710991369348 9.204961939446012
Fe 5.607783407574569 10.070827659487763 10.258357044800368
Fe 7.60783260071988 11.304290468167899 10.70679672645955
Fe 6.328637270380135 8.107902619952725 9.126826203525514
Fe 12.041032158265166 9.083922510836667 10.217278315335555
Fe 9.80691841781663 10.005231677469306 9.895715364255905
Fe 10.148007781938098 7.954289197486947 11.013198570501046
Fe 7.625145763318803 8.952539895204891 10.90754007828676
