16
Energy = -105.9191408 eV
Fe 9.034197876261269 9.665261428217619 6.634221630929802
Fe 11.090773951411833 9.78721038536794 7.94392877316179
Fe 9.262309405500782 11.421098247986038 8.159437033093335
Fe 7.089665476880122 10.660083391865486 7.7861265287234085
Fe 9.247028490809397 7.34329150461141 7.512770667572901
Fe 7.2824489104096015 7.206212822352678 9.403117358317914
Fe 11.267652059094722 7.57677215946791 8.852177391785359
Fe 7.078971311278863 8.360955138375125 7.323199859628776
Fe 6.303596286933487 9.322608823814669 9.520779692433377
Fe 12.158096657202407 9.281473673269446 9.985795864572578
Fe 9.50181610125856 6.617511885762585 9.882724858368352
Fe 7.77482462351259 10.961758265541807 10.185510746899531
Fe 10.177945989463264 10.552963172750324 10.298709239016885
Fe 8.910627223655503 9.07216598914446 9.020735675193693
Fe 10.486505166447937 8.289027669689744 11.161168181548309
Fe 8.137532087260887 8.685597059163957 11.133588116135694
