10
Energy = -62.5829164 eV
Fe 10.904225832468335 8.602565552886613 7.910069182334281
Fe 9.891651962311855 9.917334776145669 9.74666833288471
Fe 9.098191267688719 7.784017357418421 9.442143528366902
Fe 8.767588602733168 7.553102755740733 7.098421744820438
Fe 8.793780156085027 9.858548127563973 7.701748838621528
Fe 6.666802561288565 8.979196140134984 7.158173721288284
Fe 7.539124049632584 9.614889342528578 9.635962481553475
Fe 6.600205146671922 6.696382256702707 6.687048082245773
Fe 7.927609042100133 5.808352872369495 8.393042662992862
Fe 6.623844054490637 7.561030856009984 8.97586490970882
