11
Energy = -70.47734276 eV
Fe 9.083799958276236 5.520247424568807 9.579216295134753
Fe 8.03288429254235 6.6145734032815495 7.77207225015773
Fe 10.313913722798233 7.087489677546451 8.537350391594579
Fe 7.215083056889534 8.47505822563734 6.300353967893667
Fe 8.392047628947877 7.701985636391118 10.016984879802902
Fe 6.5840278545025575 8.35859145327845 8.552613646133596
Fe 8.975678628964248 8.819163855293432 7.689533543451678
Fe 10.143713246084697 9.256429514157198 9.726189358665454
Fe 7.290208956173575 10.536402303405147 7.464196051320293
Fe 9.521883105204106 10.979900408376976 8.147724510534529
Fe 7.902877940936055 10.106276489383411 9.669883496630144
