13
Energy = -83.57403905 eV
Fe 10.171286038841354 10.217295610043722 7.382499037013233
Fe 9.483643383450072 8.02245310818798 7.555744759117018
Fe 7.874598736404257 9.71965623123928 7.96019828158078
Fe 11.788202098096548 8.642368116919569 8.266191433607224
Fe 8.827523151135116 11.742707413228649 8.875161504036457
Fe 10.727650924393346 6.853831157167448 9.18805346437418
Fe 10.841803144379515 10.635008084722093 9.686957002952079
Fe 7.23465555349411 10.581640613219594 10.06846357973507
Fe 11.61943765049916 8.46433027420714 10.58960073072982
Fe 9.01399354303124 8.672176540535851 10.042212298000294
Fe 9.078555795896476 11.721361384111505 11.291947670748906
Fe 10.361015285033229 9.917646614461123 12.00455169279666
Fe 8.061164368631946 9.89305452524229 12.171948218594526
