17
Energy = -110.43687054 eV
Fe 7.8949879237005 10.01915883066684 5.497344561700601
Fe 10.22092570300679 9.38524832611165 6.045252089924246
Fe 8.915147016184067 10.99823168947361 7.288923932223255
Fe 10.513476041515935 7.154803853482422 6.911179586604458
Fe 8.75843163194623 7.806942369813524 5.413254341549706
Fe 6.461700283748125 10.634248048110383 7.308266249512829
Fe 6.511806697531387 8.415957143714135 6.478590882938043
Fe 8.291209806300978 7.2655188644431155 7.6415799285099
Fe 6.092363212747863 7.55165419752699 8.850780228078122
Fe 7.7017179058937 9.256764915792896 8.498049610270911
Fe 7.6381792206281025 5.872307825646598 9.401609016530525
Fe 9.908622266245105 6.72002376110792 9.452890917311635
Fe 9.814993136253424 8.942626540655793 8.337743009666282
Fe 7.432912544469961 8.768589872918092 10.635498692925728
Fe 9.722036125395952 8.685837722994503 10.654514779913619
Fe 8.742556109851293 6.781478056436005 11.50164573537633
Fe 6.431807850042123 6.793481456567062 11.135749912425492
