19
Energy = -127.85748614 eV
Fe 10.020737764862826 7.74442828103489 12.23382580162999
Fe 7.855007086447858 7.92754656612647 10.992176073559502
Fe 11.633122833472775 9.526906917353388 11.569771203675923
Fe 9.829030973163915 6.392004770195991 10.279459581357939
Fe 10.025262428067293 8.699332603319773 10.048008408155612
Fe 8.943776639026067 9.919893152666129 11.83001827885505
Fe 12.026397804155316 7.410217335524699 10.614288498932744
Fe 11.205863866639804 7.517981153676618 8.376421244181534
Fe 8.51657656454554 7.681443419835301 8.563910663194706
Fe 12.161583111769875 9.609449585459734 9.157893337600463
Fe 7.953327430201943 9.862838593871 9.538017492460042
Fe 10.273498274657722 11.03903432363862 10.075304187085667
Fe 9.993892554939489 9.641262281735301 7.855954456821418
Fe 7.696449390060186 9.627224064476255 7.241909294140753
Fe 11.191327086720895 11.6595018770421 7.950973216322467
Fe 8.123210257101235 12.07449027655758 10.363642097062371
Fe 6.369919872723478 11.33132734852147 8.644253440961078
Fe 8.743724725254122 11.769575530015693 8.023518109664925
Fe 10.014741733057146 13.217261932533384 9.429950568178581
