10
Energy = -63.4517509 eV
Fe 10.722460963051748 7.830611565340791 11.389549456936816
Fe 8.801477656127505 9.164901698260897 11.186724766480529
Fe 10.916940665717714 9.995192300006682 11.990614347440564
Fe 10.356485175824638 8.715814710922265 9.329261466783192
Fe 9.261295531725828 11.565707015599704 11.245681299390139
Fe 12.271154653203913 9.735233177254958 10.162823960414627
Fe 8.748852199034513 10.409092530904001 9.12229496675689
Fe 11.492648402080876 12.047530970198581 10.765199809121487
Fe 10.94037128217582 10.990459926217898 8.63513403870462
Fe 9.691846225357995 12.751285605209487 9.384020561670704
