19
Energy = -127.13061227 eV
Fe 10.049634380865292 8.482123431798023 6.251661886960374
Fe 7.792032302776667 7.980035411535098 6.336511911198782
Fe 8.483264480713435 10.46193813479894 6.888055156684957
Fe 9.376787608387973 6.458369773234163 7.43770342890425
Fe 11.05433202571528 10.273469382199414 7.4413457247102235
Fe 11.187608234872995 7.648218194290001 8.165055631550773
Fe 8.998674208038185 8.876657282060457 8.431999819200266
Fe 7.33918688106879 10.749727034053258 9.368439609296384
Fe 6.548062653355974 9.212755280232065 7.815166058570064
Fe 7.421492836022651 6.902561235839767 8.533908260131605
Fe 9.491663468325232 7.24630092011585 10.006648198566777
Fe 9.59203426665581 11.216056963329052 9.139977371133659
Fe 11.150335288983696 9.396935363412965 9.71638434022699
Fe 6.94233108803111 8.483379704250575 10.102294348439388
Fe 8.884238840024658 9.436307633870165 10.830598167495923
Fe 8.604685102588238 11.705771788711859 11.30350756039886
Fe 10.846636864242283 8.460279636262758 11.804749688356754
Fe 10.805616396623172 11.002331176687635 11.439629677363397
Fe 9.386524653224937 9.961923233834991 12.941504741327927
