13
Energy = -84.01972498 eV
Fe 8.155468566753147 9.374504432330097 8.30873047586236
Fe 7.397128237071096 8.483910149033374 6.176946709847405
Fe 9.672953445020942 9.255309504616838 6.395111408677608
Fe 8.974001126404394 10.384030986760017 10.401623803440275
Fe 7.807395054434982 7.154538999518406 9.530611884848563
Fe 7.011785492104869 6.583740773870084 7.361458211930933
Fe 9.296747887497938 7.22104679229758 7.549648010675765
Fe 10.098514373570506 8.269037550692579 9.742976166114502
Fe 5.9216386489078765 8.416798779574952 8.139099496377955
Fe 6.7417085574130615 9.127357608205662 10.289053720545878
Fe 11.365873621663999 8.534736572217252 7.783109377448482
Fe 10.357323667558308 10.45027428425216 8.55227258960448
Fe 8.558387818283114 8.409433883464628 11.513847176645472
