17
Energy = -111.3791588 eV
Fe 7.87062970004692 8.424079892590921 12.078738881173564
Fe 9.099721472917453 8.755493031312286 10.12266123444094
Fe 10.878974668544425 10.182533873552089 9.837065456648693
Fe 9.049368111185224 12.125490464241121 11.099426752372946
Fe 10.94704866817527 8.002266418815598 11.37850731020515
Fe 12.764698146192881 8.427680804889928 10.027264257715713
Fe 13.449932360419023 10.626215056415322 10.153430629922847
Fe 6.816932925196159 9.084994140998099 10.124202660131525
Fe 9.69425691809924 10.021588689761993 11.961163316948896
Fe 10.131581922054504 10.82728135323695 7.686918927710768
Fe 9.981181692612171 12.6798202921333 9.041857171631063
Fe 12.217697410178392 12.070750570975456 8.751162620311396
Fe 7.271602729625446 10.606428697826656 11.712578666715759
Fe 12.292302149636848 9.784964076250718 8.089427146248216
Fe 8.295711395345322 10.895232900689733 9.308750878150587
Fe 12.199577244848589 9.861664284519179 11.998034521939383
Fe 11.464940148433586 12.049673115302397 11.054967231243724
