15
Energy = -96.83990948 eV
Fe 11.633765696709748 11.478736503344544 14.233731685141473
Fe 12.245892394325974 10.66806837147506 11.831763070288792
Fe 9.580348963212145 13.540227978665007 11.797830264104329
Fe 13.109287000143317 9.452078704890699 8.415081521782554
Fe 14.029692410151952 9.445963671132482 10.729427401614023
Fe 8.409986714645543 11.387763467957951 12.224856516356398
Fe 11.196601100876602 12.31277675273532 10.242002944032034
Fe 9.62885999682778 12.49122443624651 13.848621044050818
Fe 13.234564971865094 11.317085794634142 9.711206963669635
Fe 11.88318889252505 8.884523652332666 10.242880227090327
Fe 10.2436066767339 10.210491264392978 12.949770878284477
Fe 10.048629910127074 10.234969231337587 10.658229868604344
Fe 8.87906842754684 12.149186702649041 10.103864094294101
Fe 11.684010565559412 12.871091332519011 12.427333530109877
Fe 11.089197445203617 10.638675426412544 8.60943583988054
