12
Energy = -77.18907807 eV
Fe 10.692172640160507 8.408534972880268 7.290062284809804
Fe 10.561581768177458 7.251450112337628 9.242851850802277
Fe 6.869082036380669 10.240105573145067 8.41658736436187
Fe 10.434514131608434 9.793871334294758 9.211093959053173
Fe 8.99323968072282 9.99254504671585 6.818798801139593
Fe 8.834775318334634 11.457912164505935 8.534034123217458
Fe 8.314562454128005 6.634288844746811 9.75271193632927
Fe 6.929137202499507 8.537001920321998 10.217964567336766
Fe 8.963542271367393 6.82677731890574 7.458032044954753
Fe 9.390408241156775 8.440108008385623 10.907010232859312
Fe 8.452055426310666 8.686998449306353 8.51814417914446
Fe 8.24487866360117 10.401185649629426 10.514824850876161
