14
Energy = -91.67557365 eV
Fe 11.566573572909407 10.086685491883314 8.045523077809149
Fe 10.865060286462587 11.33444037288219 9.960521459582633
Fe 10.679177134001346 9.037466607399669 10.117295094792441
Fe 11.910190294276445 7.810839601707731 8.549277888829849
Fe 8.755830693735854 10.480022099363218 10.819547079071326
Fe 9.251757639549185 10.553178763752785 8.433875936351145
Fe 9.8872889419783 8.35608486501232 7.5548652665839136
Fe 6.9475044776510435 10.535427054324062 9.154909055379658
Fe 9.953142980162818 6.771966300327626 9.472690563472018
Fe 8.374570967827022 8.453238409997873 9.612942106586592
Fe 7.5429601791959335 9.174013404466141 7.281866164048742
Fe 6.61486814056069 9.066160543792543 10.899071023241417
Fe 8.069681595991467 6.844703086858477 7.90136560366555
Fe 6.17079678138234 8.085177083916372 8.785653366270012
