15
Energy = -98.55173753 eV
Fe 6.490973353681174 8.471729103778383 6.94099657804487
Fe 8.28677929393827 7.589113691330641 5.720544996023581
Fe 10.150228247701104 7.463000257519841 7.133265786404941
Fe 9.720533920797694 6.072726075292828 8.978937567696695
Fe 8.84673569661008 10.497493874664316 9.138928343780263
Fe 7.918008336118471 6.968828222604849 10.200628174376389
Fe 10.663629029634865 9.619813283374661 7.92128581716591
Fe 8.354197524602936 8.346391237448984 8.347570536659079
Fe 8.786061810755177 9.736738923340438 6.51138593006911
Fe 6.041404557293378 7.08190420072005 8.789195385500397
Fe 10.21595847044653 8.23406846635485 9.770081315933684
Fe 6.56006189482514 9.240583706969117 9.564629623848605
Fe 6.976207708212842 10.63733408702855 7.7138210959846525
Fe 7.850089967511552 6.202255019160128 7.5653264762940715
Fe 8.418258428178968 9.11714809072113 10.982530612526363
