15
Energy = -98.68504235 eV
Fe 9.832237850807712 10.125250167886001 8.041302295145751
Fe 8.552576379760373 9.446032309722103 9.90024962498004
Fe 11.82525781295523 11.237859747835254 8.623722263692464
Fe 11.142832220127563 8.617145080744177 9.284456409928291
Fe 9.232989359596235 12.064899550090997 9.232845219814307
Fe 11.229687343174595 13.100143596042503 9.933844691450695
Fe 12.596431666361648 11.704528275334908 11.249854013821208
Fe 10.575167900979634 10.574654890361149 10.573733199003831
Fe 13.072071522841728 9.775044994761748 9.984480578142254
Fe 8.078009751327045 11.377473799640285 11.165227422110224
Fe 9.920440857387696 8.04861293318767 11.216323927671707
Fe 10.007022393501684 12.532418133105597 11.86629996013061
Fe 11.917831943133026 9.084695006734767 11.916857396908473
Fe 11.319046821875192 11.023552816574492 13.109581907376823
Fe 9.324558857663309 9.913851379470977 12.527383771315531
