12
Energy = -77.81929434 eV
Fe 7.553414475408988 7.757408352287284 6.720798669021739
Fe 6.458488309573661 9.56411049576038 8.176097709206186
Fe 9.879155273595288 8.004431466198366 6.8680328702071725
Fe 7.250050658726196 9.209810146331446 10.595744059431784
Fe 10.226672060974035 9.887568802051 8.34652807148887
Fe 10.652669228047712 7.681907974442063 9.220431769120614
Fe 9.581377721320129 9.425440605712975 10.636796676461827
Fe 8.340223414360246 9.95960863635805 6.837387663463581
Fe 8.845868558720738 7.20315424086053 10.633099049775575
Fe 9.039538559991117 6.298548805566146 8.237489080005817
Fe 8.162130211534471 10.832545092377698 9.163932723067362
Fe 8.236975383568367 8.32213438350705 8.782327351891063
