12
Energy = -74.51064579 eV
Fe 9.77356416644154 13.656712019025026 9.55618147647735
Fe 8.57415543561962 9.531591358569123 9.28636518352281
Fe 9.798776043129173 12.500289642941608 11.613447401031355
Fe 10.037399710083456 11.330390636676647 9.488788807730536
Fe 11.821270145638255 12.862189559993174 9.96469538288233
Fe 11.729766208087677 11.015934096557205 11.32097966930195
Fe 9.224811423546686 10.173876143931478 11.564057297823412
Fe 12.972588008581129 9.140413764114088 10.725944828164366
Fe 10.656168547877622 10.858344301127941 13.343079206892398
Fe 10.701183694028042 9.101061524918563 9.902601907796045
Fe 12.395193094224986 10.657068809209084 9.072796901363139
Fe 11.139696220150427 8.841141283625907 12.26095605535639
