18
Energy = -118.92570512 eV
Fe 9.437003186087399 7.018199486447597 9.791407755453786
Fe 11.125545060669008 9.698931994363438 12.347695197074009
Fe 11.288929158261444 8.697957739487187 10.185058061144382
Fe 9.15179587148505 8.802648553130451 11.4816228740771
Fe 7.23764772331488 6.852490089728286 8.906727851447583
Fe 12.407237348269645 10.681835067068041 10.692233025218814
Fe 10.767175555322625 8.484342564710557 7.693046764052996
Fe 8.866309946535205 7.120515851267977 7.299969218644978
Fe 6.667556605197663 7.699567078390415 6.8138897047078775
Fe 11.124885618724388 10.674620410931462 8.81385801882523
Fe 9.05575182656614 9.175921330012189 9.052754771804027
Fe 6.70239622323666 9.401025599662647 8.459184510423823
Fe 9.959572647914678 11.02804816754065 10.763491419495065
Fe 7.051127400757051 8.323667711881798 10.568447722077227
Fe 8.291098099586806 9.350386723501119 6.732046950282641
Fe 10.135705077898846 10.610766819132827 6.849279788059319
Fe 8.637419732569736 11.386482875235094 8.493636221736828
Fe 7.620122210096655 10.575625574383785 10.52822574887801
