13
Energy = -82.33609323 eV
Fe 11.49207017942761 8.29575479690056 8.429522437533388
Fe 13.11762376555788 9.912209903544193 9.006698479965312
Fe 9.383596778837338 9.813788694126838 8.799640528109444
Fe 9.344909537527203 7.4542084068868855 7.84470988478632
Fe 9.162560393683817 12.335712666358232 8.88227302502636
Fe 11.36735407285567 11.491761930837113 9.088728134697222
Fe 7.597043169163318 7.973347921051291 9.364251067401565
Fe 9.92630513553496 7.476216191067453 10.22301928544312
Fe 11.164809870442017 9.51336530787012 10.586564494870471
Fe 9.782877335776645 11.420565995270477 11.076443688933024
Fe 8.68698444606207 9.287718404291972 11.19650745748082
Fe 6.190268322984246 9.283345630521957 10.736106424756695
Fe 7.475705406021332 11.126340131918504 10.02021217471102
