16
Energy = -105.75475179 eV
Fe 9.170670488833988 10.434258903753312 8.014480997977167
Fe 7.671033664376625 9.089551595582103 9.454913814135573
Fe 13.193809530098532 10.934540663115405 9.472685025380171
Fe 11.299536158900157 11.486565004063733 8.273157994395154
Fe 11.782096409104016 9.188712639809497 8.72919428248521
Fe 9.765892305608192 12.623228235245337 9.619748112542897
Fe 9.653279792072508 8.142405392344912 8.705892860133012
Fe 10.05905821157865 10.123216233377063 10.167223749500005
Fe 7.860832721424045 11.38008378897912 9.842785884495028
Fe 8.892600097410726 7.880790274341182 11.056684138679524
Fe 11.743659476921628 12.176138627211737 10.712631659875894
Fe 11.188976726294376 7.929871324717926 10.677324740927752
Fe 12.179823126103598 9.934785570419288 11.394051452450855
Fe 9.677697985199103 11.654042896418042 11.901948169159493
Fe 7.993583173167143 9.969618383547843 11.751704700423515
Fe 10.168712185708689 9.353452519875361 12.526834470240338
