18
Energy = -118.72124155 eV
Fe 9.580798971402146 12.183182806776802 8.816398833171728
Fe 12.11453170383712 8.776100057892949 8.019197531635191
Fe 11.37840335750697 13.10167733555329 10.26281113643931
Fe 10.029690128120276 9.691242364070886 8.812051341727665
Fe 11.992606810740222 11.07549487736137 8.788634140414974
Fe 11.131743526081948 6.9228621325551005 11.286256695423537
Fe 9.737526706475046 8.809791751781411 11.246130719361458
Fe 8.00295466340683 10.649080704131775 7.965670517235898
Fe 12.017598115783123 8.986316809753045 10.311145435877938
Fe 12.934684072277852 11.211266863298896 10.896600529626781
Fe 10.636998366142372 11.015397957621534 10.886457012798079
Fe 7.40270740964456 8.463192629779494 11.463971762758607
Fe 8.078438861935018 8.345263474062277 9.204465686242854
Fe 8.785281781289289 6.643893506372891 10.756047875752936
Fe 10.439774008122985 7.31294986387086 9.129929709797963
Fe 8.229266270222997 10.51266754591496 10.431268519616964
Fe 8.986365597086941 12.696835448206773 11.082734193399379
Fe 7.293906205807105 12.382895834287568 9.394849967663223
