16
Energy = -101.96509804 eV
Fe 11.842533940708316 9.383973558000818 10.356184088307474
Fe 10.311621454586602 9.612711733017084 8.063657678757904
Fe 9.262098944681805 9.943258939759506 10.277998903152314
Fe 10.908054816810948 11.654890303875131 9.465751452461063
Fe 8.726607723668147 12.247245198560142 10.78932637067042
Fe 6.925239503170022 10.336859635868906 10.432976432033476
Fe 12.76844615801905 10.389409615493065 8.36646898772914
Fe 10.801620111987495 11.189113619052943 11.89026829397807
Fe 8.430894238105457 10.457917233629004 12.527200662679274
Fe 10.171779311869425 7.638783732834404 9.79032006741924
Fe 8.023810020022283 8.510687015586234 8.771171016771584
Fe 12.069019701454875 7.987623084587689 8.188475255336446
Fe 9.755140210552401 7.283732449559606 7.396937659040421
Fe 6.426922457001394 12.674027401651468 10.262759069923735
Fe 10.181988576032913 8.715235366130354 12.125853107737923
Fe 13.041874288393036 11.478562820515798 10.66078030730066
