13
Energy = -83.02581682 eV
Fe 10.283079698297536 8.61336812539821 8.419578668087787
Fe 9.747209022410454 6.409766400820891 7.7937115630921925
Fe 10.201734256390925 7.31800941956411 10.25322270566637
Fe 9.918035976010076 9.811231358316933 10.287125671496288
Fe 8.532832506183267 8.431584443757307 6.903335781843261
Fe 9.257956323627443 10.654225537363951 7.8492369179055945
Fe 7.795406692910741 9.87320707985345 9.219165120808228
Fe 8.152598217952788 6.798580764660376 9.177368982248604
Fe 6.8407717925195675 10.099639220040913 7.0910869202098645
Fe 6.333308000328785 8.181122197448602 6.116335807760975
Fe 8.161327877112015 8.333052342015252 10.832346801819751
Fe 6.369642978059993 8.157192751320274 8.49096952270225
Fe 7.2701080101638516 6.409979992644668 7.046953853112302
