19
Energy = -126.10418747 eV
Fe 8.244036758991182 12.435746695777901 13.056867524728501
Fe 8.586394041947482 10.094060239140008 12.498120748223482
Fe 7.598317032171076 9.609024143642262 10.366814147962067
Fe 13.126246015052281 8.926639212073024 8.488335461640533
Fe 10.394659362672755 11.763143106813537 12.453926458522036
Fe 11.201009289671012 10.291947577719235 8.656064774649838
Fe 9.882451807932274 9.539373441765173 6.778594222414122
Fe 8.84567853149699 11.01165431216198 8.684090953248043
Fe 7.663728027917439 7.315177029357076 9.76690613153675
Fe 12.193053203524801 9.706281493441056 6.555401438004166
Fe 11.542037120402115 8.187173305760846 10.102894355975966
Fe 9.527324350724928 13.73645741329314 11.536332867406928
Fe 9.261911044724526 7.917049045598508 11.328329657350134
Fe 10.118509503934781 10.074168967787541 10.750240825378606
Fe 8.290689643779146 11.8898796622025 10.819669177674522
Fe 10.015773499034733 6.564616543752566 9.412953727222025
Fe 11.312486580970972 7.772230943381997 7.569317338180955
Fe 10.563678075884644 12.197337835864348 10.000912676469058
Fe 9.325988805670384 8.662011726970817 8.86820020991536
