10
Energy = -62.93429444 eV
Fe 9.817289307523225 6.825115279948134 8.476988116238358
Fe 11.054033496030268 8.27760982702291 10.120577212747273
Fe 7.589164902670584 7.601201413144688 8.163189127008781
Fe 10.954218912567526 10.616539769793738 9.197629357166326
Fe 9.58605295829032 9.04587417660014 8.395137225262525
Fe 8.611537531295378 7.709112299922696 10.284767897079726
Fe 9.285384729477737 9.978257357724473 10.710585331275231
Fe 7.87089218003722 9.781671539414377 7.145687495479365
Fe 8.71738975493138 11.315155303589103 8.819242127244301
Fe 7.238484289642208 9.573911095305998 9.410644172964107
