11
Energy = -70.59628967 eV
Fe 8.992235205007333 10.727397142629327 8.356977927790405
Fe 6.861180815813696 9.785425954631092 8.902501682282711
Fe 10.685482254176065 8.984643149047493 8.1073225103393
Fe 8.155985388450908 10.75996317140654 10.599802158859532
Fe 8.375802348192092 8.762411447753651 7.272002242875708
Fe 7.104271822829288 8.71433474873421 10.963994301998405
Fe 8.122238210649158 6.487595935417408 6.830741747257521
Fe 9.755874367823536 6.813008511936754 8.47041896573227
Fe 9.145654324373218 8.761975828930552 9.836535271575197
Fe 10.122103836505417 7.547428495037066 6.2723103867927525
Fe 7.393087276695263 7.368523049203775 8.967178752251016
