10
Energy = -61.5413942 eV
Fe 8.344109528126639 11.950471342903368 12.664653668331008
Fe 7.729958173921929 10.828336357441414 10.852984259516932
Fe 9.201145759879727 10.614945990451373 8.850086753195916
Fe 10.043152428830195 11.208914623640576 11.240985662744711
Fe 10.831307809591273 10.56155904881576 7.228531896839758
Fe 11.542550753357041 11.132453823184472 9.32126530180352
Fe 9.351331995885905 9.005762747987191 10.5322301589233
Fe 10.980008102935074 8.812127177635192 8.707182894352954
Fe 11.76522387715425 9.512215310240295 11.039069416870793
Fe 11.048047025804122 7.430359269203044 10.58077254782029
