17
Energy = -113.15968953 eV
Fe 8.051023672086613 11.0570726069006 10.748385061503967
Fe 6.518856859886549 9.16215787322108 11.345243946257733
Fe 8.81912867320187 8.99881193184856 11.65734337911899
Fe 10.075035712882137 10.2122201772124 9.77600474206526
Fe 8.341925293520312 11.135715993334145 8.280667723755391
Fe 5.91238589636399 7.60911927293845 9.527099575816651
Fe 7.758007106426583 7.0421904702577685 10.74145019424239
Fe 7.710204839302378 9.183586869008213 9.352297633943156
Fe 10.695342098198022 10.963273237209602 7.603060147746169
Fe 9.833248647716564 7.825813050988605 9.674403586535417
Fe 9.21158235353097 9.079210496373173 7.539459781480395
Fe 6.775154660164271 8.468179757877955 7.406383238444623
Fe 11.650459681085795 8.864607699755984 8.316991382189677
Fe 8.073133561761475 6.83680176285444 8.298337974286959
Fe 10.980629569124947 8.96920363781832 6.1128469747072876
Fe 10.452021004490362 6.914813630098378 7.451442400827807
Fe 8.7671636271632 7.504075573694587 6.014435762152156
