18
Energy = -118.38959265 eV
Fe 10.56050590322538 13.1520421142084 8.213180777271957
Fe 11.144752340902984 8.164959497344244 11.08418402820066
Fe 11.293485097150938 8.257098868304853 8.774251537595696
Fe 10.904887079781878 11.807729098550325 9.952075971283492
Fe 8.678566127619428 11.653545974802134 11.062656873047318
Fe 11.558420146471507 13.902981152302834 10.519433691762941
Fe 8.725222695103582 11.53268660127543 8.608452955941319
Fe 12.368161942777263 9.954241524180256 10.02439379116081
Fe 10.2975014404255 12.84000540042078 12.222321431287304
Fe 10.482824316993694 10.306863662796411 11.863734677247725
Fe 12.683197514351031 9.473942828839498 14.653443870786232
Fe 9.26932621564031 13.717095047265753 10.075480174710814
Fe 12.575223915464797 11.829102840438562 11.74270499577406
Fe 10.807597605693951 10.558540990895077 8.014535573109566
Fe 9.5276258588964 9.654588758331991 9.623573040985766
Fe 11.506341304502348 11.200380746086655 13.775771539333348
Fe 12.875837186920364 9.49241919688898 12.345951493243552
Fe 10.833875025941019 8.748998746938272 13.531116395583632
