12
Energy = -75.78482385 eV
Fe 9.406298969190969 10.6219062947612 12.03396748718221
Fe 11.758847138522329 11.580498305433876 12.128642756513532
Fe 10.110642135038526 12.908207201696829 11.268213090208047
Fe 11.170180076318434 9.297995365782464 12.617695083248067
Fe 12.286738949617677 13.610783120687197 11.124248971692444
Fe 12.45555643474341 9.742369022764278 10.73760038922618
Fe 10.162127097960605 8.663349986182453 10.689824879197026
Fe 12.028861275708412 11.871462180278094 9.656494006683248
Fe 8.697914161634209 9.36920981135376 8.804011348178712
Fe 11.241385041486396 9.510561921340786 8.821559508554227
Fe 9.891508907933305 11.087628562996619 9.82953559948414
Fe 7.807399298888667 9.360501456881952 10.715778320372479
