15
Energy = -98.23150696 eV
Fe 8.992901132958993 10.457610728750023 7.235385398383402
Fe 8.605546272495378 11.265167501763123 10.005894196017183
Fe 6.940986913974889 10.05676771094743 8.682774461809268
Fe 10.675796704478406 10.99639487074881 8.867637055595061
Fe 11.390575221341214 9.688139441338494 7.162927813638668
Fe 9.90459080608251 8.022020090373655 6.858450536233303
Fe 7.662690199602981 8.290383920884524 7.327734224144829
Fe 7.1593974022424804 9.34566350023323 10.917451725955162
Fe 9.083507195834327 9.104598868251163 9.130160482779335
Fe 11.30042711190959 8.237062299974877 9.012507746665955
Fe 7.300607810638685 7.4943666816657135 9.547366165272658
Fe 10.795866151039098 9.693673710159889 10.838764690211528
Fe 8.938005998730237 10.150821424932301 12.050425934397278
Fe 9.306301040693322 7.83871479308854 11.080401963168429
Fe 9.386298846906096 6.75248895688216 8.778806986044074
