18
Energy = -118.72955101 eV
Fe 8.840400773639836 7.4991380882903425 10.795843996202763
Fe 9.760312822096628 9.325393070723942 12.115824556528818
Fe 10.718997142397376 11.54744520680317 8.823042502709214
Fe 7.736754802511725 8.413568473677115 12.721332354766922
Fe 12.233598912008107 9.726746390095304 8.687097695102324
Fe 9.315915034738222 11.384719690092137 10.793813660348189
Fe 8.353543847507577 10.780573785210647 8.72075156986297
Fe 10.168282072515748 10.008690363421476 7.147381144948474
Fe 9.97762729651683 9.290835762106516 9.624812769861814
Fe 8.977603691871309 12.261864475565663 7.102336962655025
Fe 11.1572753423648 7.984351219502894 7.647456070080943
Fe 7.760074324108715 10.40141312777476 6.606303839542708
Fe 11.65904989586274 10.460738570264706 10.967155384927588
Fe 11.554999270128224 7.874889129580758 10.309898611393374
Fe 10.00980686269024 6.646375424163025 8.988155458904211
Fe 7.5640203715379375 9.457402996150673 10.471174311400832
Fe 8.528549246861214 8.399186178453018 8.134307513104021
Fe 7.798795533672478 10.652275291153973 12.458918840689659
