10
Energy = -61.51202738 eV
Fe 8.813077595949578 12.08381005161062 9.283878115004585
Fe 8.32134552859596 9.965542803973737 10.401984696280739
Fe 8.357162986794881 10.068011482242218 7.977330202964526
Fe 7.887377239734949 7.9887469568094875 11.395316767105301
Fe 7.8543037219280665 7.885548091758043 9.091381864426948
Fe 7.960902437395666 8.18241597220358 6.803303029653065
Fe 10.43241671866258 10.247949619666137 9.23144103614251
Fe 9.947347828976195 8.05848017386222 10.35378006975494
Fe 9.983363233673833 8.169027640447712 7.909429239427901
Fe 11.8775891413854 8.519558914729465 9.180627917710769
