16
Energy = -104.85208548 eV
Fe 8.960000882550293 6.128400374286406 8.900425114968963
Fe 7.990775413580215 7.443938055565606 7.157211522956456
Fe 10.390773282353747 7.59410878443168 7.599470683314307
Fe 10.594707382943904 7.403748882334716 10.074277862554025
Fe 9.086878147873282 9.410244605236628 6.678558107322254
Fe 8.766001638749906 8.579222412121116 9.089891971651403
Fe 6.816888045923616 7.2395906122564275 9.219012006979694
Fe 8.429729608102482 7.095946111054126 11.03163081222351
Fe 7.107883576443007 9.064243360562608 10.737768412750157
Fe 6.940583516341047 9.594527365246496 8.191978053723512
Fe 10.514998985628912 9.780814325890814 8.976615727861224
Fe 10.943118983581627 11.032089781405537 7.190996263070415
Fe 9.493307785639788 9.272354461881735 11.299799284583875
Fe 8.754568783831598 11.312214774528044 7.874986420948067
Fe 10.425103954902903 11.985194504954752 9.350421557144433
Fe 8.257089383329687 10.919893880291468 10.048197784266007
