12
Energy = -76.21937503 eV
Fe 11.23616197417659 10.606238781954055 9.037177574522419
Fe 11.103194794285693 8.348351079168438 8.45590394025123
Fe 9.08321148436921 9.502712416116681 8.141179929444464
Fe 9.488022915557234 11.778934384750276 8.118987542104747
Fe 7.744232375059868 10.944284031675924 9.436048700365635
Fe 8.338606803134015 8.965805999734155 10.54210961524652
Fe 9.06523392074113 7.3759804971464416 9.052925093756475
Fe 12.231618438924807 8.998276448106822 10.334179463851134
Fe 9.962985958142712 12.081069186300807 10.333112079045247
Fe 8.368107507802591 10.97797667116794 11.634930434871729
Fe 10.322371068807637 7.785550585148808 10.913932484580833
Fe 10.492808929296034 10.071376089027053 11.436069312256738
