11
Energy = -69.6510936 eV
Fe 8.551679948895165 9.683450956220094 9.813088983945244
Fe 13.203857117543595 9.61314682324624 11.635730164737499
Fe 9.845144208910739 11.632348264000214 10.163289246945872
Fe 11.492381172737163 13.191188866740834 10.989016034086724
Fe 9.607996664040522 12.502489598394314 12.305981562739392
Fe 12.223549342558302 11.105400816000175 9.906715561088443
Fe 10.91982113108676 9.300507690019701 10.734825944265967
Fe 13.395685418010366 12.115988830665978 11.692239569171932
Fe 10.443290079918238 9.948539965604013 8.574782581064186
Fe 11.392104415874083 11.10709345058177 12.33222011993236
Fe 9.136644389380526 10.136247729093043 11.999084948453804
