13
Energy = -84.99248826 eV
Fe 9.310076242387126 10.148053931817834 8.209718038366663
Fe 8.636529537181024 8.63779508823145 9.859199407579212
Fe 8.018654336677749 10.942155513281765 10.200510266133083
Fe 11.854566008763804 10.77748459054552 8.80316721276244
Fe 13.038199792133964 10.843467733710563 10.879236430647898
Fe 11.329800679181155 10.831361160408788 12.589126796761569
Fe 10.426435567505465 10.194317781509628 10.536944953333201
Fe 9.50870561908463 12.137181107618298 11.800610749805283
Fe 10.891407425626195 8.541115418917524 8.708859388214165
Fe 8.810505781699314 9.783424455510334 12.076448817260994
Fe 12.124632903484995 8.7532383842072 10.69859873157021
Fe 9.837427850539525 12.21618325854603 9.215947987734502
Fe 11.570629070805566 12.576511348605374 10.7622658558808
