13
Energy = -83.93683398 eV
Fe 7.013023291436662 8.688110880078577 8.878777419386843
Fe 9.572780654879459 8.960427072446365 9.206912785304027
Fe 8.329792142228632 7.067129939897587 9.959090183891394
Fe 8.437225382054413 10.258526789021188 7.678824305118737
Fe 5.950251344920431 6.749252382740138 9.843089432576974
Fe 9.779598382934877 6.834356623471687 7.91681683418065
Fe 10.492547856602878 9.163435396010044 7.122087154653334
Fe 4.99067850940614 7.285558051980716 7.802025493062863
Fe 7.243541050963788 6.426742259429891 7.885826993050549
Fe 8.436184963426546 8.158689295253016 6.5292670472611025
Fe 6.211308729987963 8.878393211053396 6.649376044745087
Fe 6.320404005641418 6.716299740069979 5.711921795378436
Fe 8.503863691235273 5.869907333340745 5.986830932621504
