14
Energy = -90.45046472 eV
Fe 11.86630434254704 7.421997069035148 8.842587735515169
Fe 11.435854542628338 9.13868018460155 10.472270498645956
Fe 10.134422150799388 7.208870985040253 7.2145814939314015
Fe 10.90368236400961 9.424709222379388 8.118252988128576
Fe 9.566322236946835 8.525702912319018 11.803081473598033
Fe 9.682389193313975 7.5585138778030565 9.645108132739713
Fe 9.592353929287505 9.34976151546813 6.1896352281004345
Fe 8.320725542458156 8.53244027838694 7.9617051866827016
Fe 8.171158775546834 10.440545276413363 11.981489209136836
Fe 9.397095375566959 10.14486506150948 9.950568933626782
Fe 7.462161107073862 8.872807493623041 10.37770413967778
Fe 8.825405841492314 10.920291581555599 7.857267001208365
Fe 6.687598281584826 10.155590366743315 8.500609071752809
Fe 7.43473656411999 11.527701206062785 10.096315976932345
