18
Energy = -119.53954304 eV
Fe 12.736440630987186 9.95425769275055 8.209396132598103
Fe 12.4016281731119 11.976525112673835 9.586956148540509
Fe 12.083054594990582 11.458043864325267 11.812146992763363
Fe 11.824061054308954 9.723464399705698 10.247664270043307
Fe 10.583941825826285 8.57116944341805 8.264608387098864
Fe 10.789579611606396 11.022003914883495 8.339392514629534
Fe 9.375656184324814 9.525320309352752 9.920869139307769
Fe 10.060073807258844 11.751476000136895 10.591764289857899
Fe 10.419724936591306 9.813301377118727 12.20687323579979
Fe 8.207668855897671 10.518370895055448 11.755824729403722
Fe 10.886084392012778 7.672187863079366 10.814317653848844
Fe 8.805693558801233 8.069066170507217 11.968226483915629
Fe 8.983650791913435 12.302034409549941 8.474289248636245
Fe 8.820363286983248 10.272592336348044 7.343917070592919
Fe 7.5110800935992525 10.71240023077884 9.403662946242486
Fe 7.106533332979506 8.597717985645948 10.515202949975524
Fe 7.857037151476841 8.401322777266204 8.226574948081277
Fe 8.953351929652298 7.070305770581015 9.745638490633938
