17
Energy = -109.74911307 eV
Fe 7.940537838116039 8.630531266125953 5.515284906561678
Fe 6.908006040538927 6.917782254307531 6.794262725339978
Fe 9.350990953156197 10.059157218653455 6.787150366274982
Fe 7.120105860847843 10.728843678127177 6.214967570806078
Fe 8.601552141614267 8.137257112524075 7.783209655991303
Fe 5.690244427349875 8.849669863017796 6.312560993066872
Fe 6.213219198533496 8.285453134705543 8.575914747310643
Fe 7.829156220719859 10.415694128446155 8.488667707265995
Fe 10.054662505666384 9.082106701086914 9.860721172308939
Fe 10.899082571030927 7.368945863376247 8.430928876627517
Fe 9.01091205293456 6.787985449023862 9.732763252852717
Fe 12.391461740228348 8.668847709294374 9.82900920767324
Fe 9.291014890220051 7.917263534223138 11.872153038436352
Fe 5.587163716096181 10.445645194702196 8.022467791136046
Fe 7.72283453801023 8.850786154770375 10.227202406295111
Fe 11.126732133441326 6.91143217825329 10.781981174643567
Fe 11.35209521099822 9.032370598863535 11.860526446910606
