10
Energy = -62.3902492 eV
Fe 8.228353812938416 5.406127760505656 5.801953324905884
Fe 9.090481523202822 8.2441542862858 8.952911668633892
Fe 7.162260620339455 6.58611769445215 8.913322828782588
Fe 8.773494327808642 10.311853321925055 7.741917626092093
Fe 7.15864265484794 8.646150623942853 10.284785188776588
Fe 6.826871658232018 8.901825121857504 7.918980090770783
Fe 9.174897329673263 6.270270745194522 7.759309775353166
Fe 6.731106658153438 7.020227192830129 6.650979548906791
Fe 7.940122190921515 10.684087996261834 9.803045743539686
Fe 8.748434211549972 8.18839623141304 6.491257479247432
