17
Energy = -111.98917947 eV
Fe 6.644393957187189 11.381281201627415 10.576568574342966
Fe 8.921561054458536 11.716390526872743 9.422807939024127
Fe 9.798879559020948 9.31683584955671 9.267327683959484
Fe 9.10576442777327 10.52075643833786 7.170438026796849
Fe 11.020091956148264 11.44769635788558 8.415709778070982
Fe 11.558607307371199 7.540269059195618 8.585587636072292
Fe 7.46083666655942 9.986536080726252 8.730721141345509
Fe 8.749349297793295 10.28720366330182 11.306868613970714
Fe 11.003470872204787 8.470077167287231 11.06998477556142
Fe 11.24333605479516 9.385901597767365 7.181913118317316
Fe 7.615905230549615 7.726429979290787 9.254876784882228
Fe 8.641014644542542 7.953682428064265 11.306588774525437
Fe 12.317145238181869 9.630184845860931 9.318789916224707
Fe 9.733150222159324 6.739694629625454 9.61096254489256
Fe 9.163616716856556 8.044055403354662 7.426173182704072
Fe 6.460381344172917 9.292472320266407 10.933824888855378
Fe 10.946973373209948 10.945010373963472 10.805334543438667
