10
Energy = -62.33552097 eV
Fe 10.101074835345278 12.518143561662445 12.400519404422413
Fe 11.544707771909222 12.264076430931366 10.641918169867388
Fe 10.249060488923678 11.72245875285415 8.841369998301301
Fe 11.65651147312468 9.949321143958622 9.730562602953762
Fe 12.358481233837365 8.477220724331904 11.370626866727326
Fe 10.128868899589106 8.520706667489069 11.116244831753447
Fe 9.43416928573146 9.549379166335711 9.072891515022874
Fe 11.492968529068309 10.451203919964138 12.178766713835525
Fe 8.850254658181244 12.907624882634332 10.372599275994016
Fe 9.482769211090691 10.758727435982838 11.029647007923483
