15
Energy = -97.74765907 eV
Fe 7.201453848502934 10.925238575319064 8.489881836535488
Fe 8.244996000753405 9.333348825002451 10.761973994564773
Fe 6.26992946951591 7.368352559872259 7.337010788236245
Fe 6.498091765501298 7.195575622284045 9.64128724128565
Fe 9.056649884436009 10.120203304207305 6.929016372047633
Fe 11.550713410770136 9.537370851779295 8.666148359382838
Fe 9.483419841761163 10.605185859140585 9.19115356160261
Fe 9.878103446367609 8.215876162030714 8.166271850741376
Fe 8.812711569237267 7.076764556902419 10.283305378021533
Fe 7.655913297205111 8.78757191118563 8.670027449125996
Fe 8.450067150177171 7.920221089062873 6.322496944120295
Fe 8.352842233181558 6.34857663033747 8.091156846904278
Fe 10.562169850790838 8.853797233504459 10.65052363003109
Fe 6.679235649032594 9.602695677782629 6.652089518336201
Fe 11.05057808933872 6.909826654055006 9.478432951807754
