11
Energy = -70.13525213 eV
Fe 8.59025461463565 12.464278075303472 12.274049207393322
Fe 11.315658221997865 11.54846883114293 8.873928348286874
Fe 10.222717986199475 10.534299697429327 12.74332873338577
Fe 10.67091071627983 12.347103734942197 11.276638394493068
Fe 13.000434495857359 9.917992288456704 9.984921016144545
Fe 11.903623751583318 8.84945679649964 11.805399251835475
Fe 10.586117956707168 9.996028473954366 10.348386433743196
Fe 12.527589699667715 10.948169519160286 12.263477801870689
Fe 9.063028741182238 12.090739219389881 9.699098386832569
Fe 12.893486852717205 12.192876186243437 10.372806682866594
Fe 8.447066442235723 10.477347438872918 11.196895457145244
