17
Energy = -113.45903061 eV
Fe 11.848000079123105 8.106947981942708 7.475210683868976
Fe 9.806676522261744 7.083031684939587 6.925902132390999
Fe 10.127661447043458 9.54151752612314 7.295462861076015
Fe 10.539922250883679 7.378664211460428 9.203207602071354
Fe 9.354444005062716 8.134437617908148 11.206332600324226
Fe 9.800857928973912 10.503194795437631 11.225932825135665
Fe 7.58670986770327 9.861966630366725 11.727349498162466
Fe 8.62991203721679 9.2506781576557 9.359022348440652
Fe 11.143316852407532 9.561871686391374 9.495546347024872
Fe 9.784073492869988 11.445399005507516 8.813538462667708
Fe 8.259074707356605 6.970200878285812 8.762295074822323
Fe 6.971243887484129 7.9350660535199715 10.625405242671267
Fe 7.997830661234796 11.723950490336273 10.210827982397948
Fe 8.054110561616914 8.62300564172636 6.779403002609828
Fe 6.273477270953071 10.244384426262787 9.717741870466623
Fe 6.35918377213458 8.3842248586819 8.343666639401395
Fe 7.7062931406958 10.718377525560912 7.828042553225151
