16
Energy = -104.29826313 eV
Fe 8.162902604023843 9.879536602380313 10.955626148143548
Fe 9.180411517707135 8.591540358739008 7.133436541163702
Fe 9.60830029289109 10.253607836557807 9.18081618302845
Fe 7.706919983964132 10.387090978201323 7.985294393617606
Fe 10.071675241928709 7.7229331613767815 9.14725234791937
Fe 10.397339956399147 9.02560193387075 11.070848239229775
Fe 7.842158474460914 8.362211605036762 9.06861926464443
Fe 10.901871393576243 12.082369491282925 13.25698027547051
Fe 9.598323585546957 10.198320860991743 12.947233546255251
Fe 12.090986147242374 10.517852208981077 10.020535906884342
Fe 9.857883895659723 10.826742754583968 6.895607483277374
Fe 11.020129702967466 12.005583513061211 8.663162896899907
Fe 10.224552451396331 11.598154359554599 11.08943449488386
Fe 8.68207437545683 7.684902610876059 11.347959025412596
Fe 11.422979180176359 9.344144585287891 7.975909026443109
Fe 11.933834843018063 10.203504513628484 12.446650097073446
