18
Energy = -118.46667417 eV
Fe 12.832530212499758 7.872215636834783 10.748288515395918
Fe 12.29508613153284 8.508690622315402 8.564415537550923
Fe 9.98151025378981 13.250726222404582 11.274957909455916
Fe 8.79020524837518 9.142518102013518 6.936869940220486
Fe 8.851897757015944 13.22019168620492 9.215350006777618
Fe 8.519576304274803 11.280811123047364 8.034356793422988
Fe 8.476891324859537 8.979322541055593 9.302739193486435
Fe 11.085460216910873 11.384366580276174 12.143592665533903
Fe 11.8780686801476 10.134161348440754 10.327974275230954
Fe 9.421939532915756 9.351611855137232 11.91968030976966
Fe 10.238729429214487 10.209406697692554 14.083994076849441
Fe 10.496744954641185 9.990184863809887 8.313908779947916
Fe 11.681394374415168 8.974272881392407 12.409157561684767
Fe 10.08780367525998 7.564835483060199 7.987250988418102
Fe 10.531126896928859 8.063813243348182 10.247887575549322
Fe 10.997748112557552 12.20312369855392 9.356837342270959
Fe 8.802850996962368 11.644647640092993 12.569189627664628
Fe 9.194666285749852 11.051730931802506 10.329120155693877
