15
Energy = -96.82178706 eV
Fe 8.951365665428439 9.630750471068993 11.060078044624639
Fe 11.49523086279061 9.939412574219347 11.570639793033372
Fe 7.874119288851078 7.246842152771394 11.31104599593844
Fe 10.37406944542194 7.683680948497782 11.30530205040686
Fe 6.821284880650425 9.000223659537964 9.891876928807019
Fe 8.951802591705073 7.7297625477168825 9.179351227329992
Fe 10.929631608724241 9.199558886103453 9.32249215592751
Fe 8.48778428924278 10.463341872736784 8.736742870403313
Fe 12.520606132976761 10.97874449813041 9.446322286150323
Fe 10.25008047626721 11.55423764518626 10.139891236846198
Fe 10.638277856332428 11.154928908807971 7.69582793099998
Fe 8.455976252985318 10.750118537571144 6.320661500033442
Fe 7.317990543278645 8.683617464976932 7.4552256914321005
Fe 9.765405134764245 8.898133293805001 7.16261204467863
Fe 6.794879945683485 6.715151538869558 9.03043521849086
