14
Energy = -90.41742842 eV
Fe 13.689332033054912 13.00936720296778 10.905571456208841
Fe 10.97697283353763 11.271671314199113 13.347550268065191
Fe 14.342069108653412 9.843247130814753 10.608924238293763
Fe 11.841080829111194 9.265223803409294 12.466788576041992
Fe 13.121446081461961 11.126051059812383 11.960229041976117
Fe 12.170350745176266 13.276770750099464 12.676678268894232
Fe 9.792352909225906 9.939507542336171 11.420186582964979
Fe 9.750117391793477 13.472513626459106 12.354566636357509
Fe 12.864460331904354 11.511452393832654 9.398610014359456
Fe 8.704579815813814 11.493339213149191 12.790000855530458
Fe 11.951591318993765 9.557861766590888 10.213223964773544
Fe 10.229394458200865 10.911431166869102 9.292576582731174
Fe 11.161543599825913 12.122837745399115 10.95619421930175
Fe 8.734897236877773 12.257834942762491 10.600815494333151
