14
Energy = -91.01691258 eV
Fe 6.106256310977467 10.809528685692257 9.230959651340632
Fe 8.10760550160837 8.251915882644143 6.6547717558015895
Fe 6.93051671010116 8.985642986909431 10.314698882151495
Fe 9.891333132838552 6.838525687031404 7.328017122877626
Fe 8.174874684736212 10.099609628462911 8.435931985286544
Fe 6.271536879230348 8.77630061059877 8.056456064499521
Fe 10.110177850872851 9.053407496710433 8.046845832531234
Fe 10.397184211560406 7.123926407927979 9.613531090417043
Fe 11.620296650174934 9.124257869982575 9.869499379636146
Fe 11.982625326840504 7.66179923755661 8.064240397149383
Fe 8.134797245519874 7.475416591218781 8.855631513340809
Fe 10.215753925367201 11.027356095892376 9.702900808425799
Fe 8.007649328600712 11.069835531647195 10.585769762901888
Fe 9.320885177121397 9.040477788456721 10.596347283010605
