10
Energy = -59.67538237 eV
Fe 15.970849630652594 12.891036779510202 13.740477876803315
Fe 13.75178042840261 12.380771677839165 14.061848570746152
Fe 14.721860657045877 11.254453292344994 12.228778658430878
Fe 16.284418341152115 14.731472745044265 12.468218748298664
Fe 5.253557374623515 12.66310088142696 13.338130580106368
Fe 16.7538507026211 12.209277128801135 11.733227080310762
Fe 14.105436370082227 14.545311396367675 13.188381341379724
Fe 15.02745096922067 13.502105463150185 11.052148614030086
Fe 13.014137691632298 12.860055820485321 11.950182789262271
Fe 4.359528492813245 10.89982719735889 13.396611221950518
