16
Energy = -102.50359633 eV
Fe 12.487746905183373 10.064500365798532 9.909432616944096
Fe 9.473663265723292 11.69286742429335 9.147707623675664
Fe 11.767876307453207 12.13608909624421 8.623528234234143
Fe 10.933214666736653 9.856903234937327 8.407824263210046
Fe 8.66006092708567 7.078576834843972 10.374385388886136
Fe 10.792006605557686 8.393604525774823 10.27999653476912
Fe 9.650870222930275 7.656654942533318 8.022135063157197
Fe 10.4459731720693 13.764957826629207 9.592873163577188
Fe 8.703758682834897 9.670490921267051 7.279099819327142
Fe 7.35065017754195 7.917315860959615 8.387021635311863
Fe 8.763835581977142 9.347141358400851 9.46390724204015
Fe 9.309189784923877 10.539885318015134 11.377993765938779
Fe 9.297949448364403 8.142542535921027 12.134276940214336
Fe 11.189580855047467 11.912360685604447 10.85516339277475
Fe 7.159835250292263 8.89200917156279 10.916569368877255
Fe 11.336485625788645 9.722385447895912 12.055392914115084
