12
Energy = -76.71610907 eV
Fe 8.079138774433698 8.866340079563985 11.658891200329899
Fe 8.430816888116652 11.08402352921104 10.910503999173006
Fe 12.85033708855962 9.789863231819178 9.981106087979413
Fe 10.300733174250459 12.573614241832898 10.473513997235768
Fe 11.931428260930735 11.679166843455798 8.942549486725188
Fe 12.399918121119903 11.687965322383272 11.21217343402425
Fe 9.448234648884695 11.187531883349035 8.770179211028047
Fe 8.961556815330619 8.97950694829741 9.478241452846454
Fe 10.224093862810527 8.119337680984508 11.325063003580675
Fe 10.717824597045636 10.197435845728405 10.718982276751822
Fe 11.074947019380184 9.49225032658026 8.423282666493026
Fe 9.712169181700864 10.087438823435383 12.684326632371596
