13
Energy = -84.31390066 eV
Fe 9.773884187888166 11.259742294280537 7.9334869725003605
Fe 8.182291769952197 10.036839535208824 11.814337507933455
Fe 11.684874952958332 10.012146932401052 8.724623522619952
Fe 9.514924140923585 8.106433665967897 11.587449000156584
Fe 8.578312090783252 7.893502958114488 7.499322930342123
Fe 8.10255458559375 8.919475953777015 9.65261243816449
Fe 10.270448099595672 9.252307034562195 6.861127041649679
Fe 11.676667060804085 8.886141953764746 11.068552006551297
Fe 10.302028191876401 8.19841113784942 9.182650651898236
Fe 7.869015706849639 10.037440384974103 7.375897673662662
Fe 10.381569866410246 10.017615998280224 12.705202493449622
Fe 7.950148412907542 11.235741503081185 9.524025985127922
Fe 10.03874843345741 10.469668107152597 10.396179357115335
