10
Energy = -63.08204856 eV
Fe 9.470426267844742 9.017326864051137 9.695572464425965
Fe 9.01859699276535 8.675847829162334 7.289075244581144
Fe 10.651198099339114 7.452822210254865 8.376199787202546
Fe 8.783281069341951 10.747600338686603 8.200110514007768
Fe 9.070520709398028 6.3338097874093 7.045645208340364
Fe 7.038022358794005 9.864994160933614 6.951985579272097
Fe 8.42698863892211 6.942015794384062 9.205103048436925
Fe 7.1776144162991535 9.108531298223355 9.158169688769865
Fe 6.92687084704908 7.441513394800363 7.31261854144876
Fe 6.10970934938537 7.088767071232456 9.43874867265292
