11
Energy = -70.62414833 eV
Fe 9.8861028347381 10.629830609109316 13.823654354932073
Fe 9.832517389675958 11.245908005191337 11.484680902350988
Fe 11.842296700708033 10.501063244459901 12.579049138658656
Fe 12.73914643857751 11.867704859896184 9.057989466878773
Fe 13.587553759344424 11.082238266034535 11.154423483835734
Fe 10.414252980889152 11.958162809289828 9.248758338964002
Fe 10.622541203419896 12.781889658989735 13.22909065251034
Fe 13.011859817454187 12.622743774414655 12.968999102868173
Fe 11.719389864721718 12.675275798777745 11.03518234856503
Fe 11.602429145283526 10.15257030003899 10.164613029354305
Fe 11.854665545889787 11.487872676532016 14.730016393106986
