17
Energy = -105.9343361 eV
Fe 9.884011389150915 9.09767141455766 7.031974961616062
Fe 9.96851113355973 6.988823487544189 8.342916359425535
Fe 7.243380647459758 9.030859138194248 6.911991481320101
Fe 8.725910990446092 7.132990766515752 6.266111760257054
Fe 6.406535436769509 6.663762575333072 6.507430453132642
Fe 8.57092247999037 10.778267260894541 8.296145269873513
Fe 9.550942723286417 8.965427605114815 9.54717037793046
Fe 5.1625342190791494 8.136419878963327 7.85871068369904
Fe 8.02974892373311 5.489093155786037 7.854994768744957
Fe 5.750518165353244 5.928314547429787 8.65336389731143
Fe 11.780528879468957 8.563371817537451 8.504662969378762
Fe 5.513443347015781 7.685129833380544 10.121905415640116
Fe 9.76367714827833 11.126773536464302 10.355470105037199
Fe 10.97903002968192 10.77408275106402 8.373223595880047
Fe 6.677445854109642 9.521664719459253 9.200552249338767
Fe 11.605942786687994 9.792001459404178 10.442062716592885
Fe 7.534995429295905 7.473425635724112 8.879392518188725
