13
Energy = -83.90208582 eV
Fe 10.834499786634533 8.77005043128486 10.04314390004519
Fe 10.707857555808557 9.373851235804 7.7185910746869695
Fe 10.552897356970293 7.082508563677733 8.350225875457742
Fe 9.540938825106359 10.645995176206709 9.382510567939853
Fe 9.31678486730276 6.924708031235207 10.366016902730395
Fe 8.675963896393139 9.112788509112397 11.036106601367774
Fe 8.254151397209846 6.440205573130544 8.271785390889898
Fe 7.082448401644695 7.678323033418161 9.950332344102822
Fe 7.231721930096288 9.974639132913218 9.354323260263497
Fe 9.125136120648838 7.9404039188089754 6.61979809509351
Fe 7.8226417346206345 12.108873369602522 8.422918462117128
Fe 8.500593398787526 10.128216420344735 7.267792956214142
Fe 6.969065924933144 8.343759995936772 7.63933131375798
