15
Energy = -97.00375762 eV
Fe 13.86685765945894 10.109306497660059 10.36328025961527
Fe 13.029280083934673 10.822569241074081 12.558627362492238
Fe 13.212514678888947 12.303416327486431 10.585339686600435
Fe 12.51852809508549 11.036699629337223 8.634050109853534
Fe 11.615967454853035 10.241953490925429 10.744588823313345
Fe 11.45431173722151 11.632705533198887 14.065195287615975
Fe 11.386612019945064 12.549702007996919 11.996133100563185
Fe 10.848898044694268 12.317278537387455 9.595525095975157
Fe 10.650057946001299 9.955121537334836 12.831898411713327
Fe 10.333869628988209 9.987287414182253 8.793608990916832
Fe 9.389486457581834 9.036212278508586 10.803651655505462
Fe 9.454678314961905 11.316352943705262 11.401380750321916
Fe 8.456038596353428 11.196296513699135 9.251106699971753
Fe 7.398526924536978 10.125532923698186 10.943247807805253
Fe 8.099545063349659 9.029512330378346 8.865225823130679
