10
Energy = -63.50644932 eV
Fe 7.916211455264571 11.409867358353438 11.659539385568852
Fe 11.704104865287743 9.326844112639975 10.878576664714227
Fe 12.420732167750517 8.939593097985416 8.716072900687406
Fe 9.245138745368243 12.929831017031676 10.505558000276812
Fe 10.112010010627511 9.0468901120646 8.66917388328629
Fe 10.21091141431986 11.21811315845837 11.714738551032035
Fe 8.610235349811926 10.950127290191 9.510812242385196
Fe 11.1432640134765 7.349410689691262 9.841797057284895
Fe 10.956035876473846 11.081485056219451 9.490374021840559
Fe 9.355959242321024 9.191363488738288 10.890364062712516
