12
Energy = -75.95282844 eV
Fe 7.039620853525894 7.735427070799691 9.050807840511947
Fe 8.82825576760823 7.079637325632332 7.540552469950245
Fe 6.778474789132211 7.871291782401352 6.727208607497523
Fe 9.564219194222291 8.589367857481168 6.050312628891942
Fe 10.1772036767498 9.43618864495432 8.127237322601967
Fe 8.396194640030274 10.08481508632052 9.622558224408035
Fe 7.677852684753642 8.623097023856811 11.126117872647493
Fe 10.446210765559348 9.345158053346072 10.429375403045126
Fe 7.921112721570702 9.688032302987587 7.27961027994437
Fe 6.21544790492432 9.814252673087266 8.857356907504101
Fe 11.029675483840876 7.3958245090066805 8.294272320382321
Fe 9.317853612358714 7.47954255996604 9.897870695293374
