29
Energy = -196.96345216 eV
Fe 10.311025137376873 6.252563688503378 9.509388660628803
Fe 11.72891189100541 7.5060410252104575 7.860016807210693
Fe 9.863954977772753 7.099088750979334 11.787636434259134
Fe 11.37179818825276 8.425076175958026 10.129259128223703
Fe 12.782669763811045 9.688550208863642 8.326221852230171
Fe 10.811149554744516 8.793209645086927 5.939132393986472
Fe 10.840938597796486 9.232661967911982 12.400605140481767
Fe 12.413568889354721 10.623908144541737 10.532904863811426
Fe 7.831941218709359 6.170173338150486 9.423993775030333
Fe 9.283572820050285 7.286180707857049 7.50246725134818
Fe 8.45295521806698 9.392259556136674 6.481667883820486
Fe 8.885746366741763 8.391783606976238 9.953002944422234
Fe 10.352117552961309 9.68641746567864 8.228967191063209
Fe 7.331953521337688 6.967020276016837 11.721692984298349
Fe 11.880707068663655 10.983086952924284 6.361482334218672
Fe 9.92191567722652 10.675758688826894 10.580291489032126
Fe 6.550764847990998 8.970823829699034 10.40307292676724
Fe 11.60689693374544 11.492138355706938 12.605003628901843
Fe 9.500415920254277 11.57185244049438 6.947075838887283
Fe 7.995828924627316 10.359766191707852 8.717024958330505
Fe 7.045718057441915 8.144187150577725 8.13790631654972
Fe 11.553079972285783 11.983811857061212 8.50472337715091
Fe 8.248883021682301 9.074866502707234 12.411795071746786
Fe 9.088291198230184 12.531009495173775 9.139916588143832
Fe 9.163546635079355 11.200836839240944 13.114774730731359
Fe 7.501412295787288 11.118887282682955 11.009733811460192
Fe 11.223883941328321 13.037595860470082 10.671126790842191
Fe 8.840996744305269 13.053269066329017 11.457126370054517
Fe 10.439148846604454 13.485523451704138 13.128496544437686
