25
Energy = -168.99364041 eV
Fe 8.949494428213832 8.567099293825754 12.104970271230634
Fe 10.418864711660673 10.72405436835182 11.590347614262619
Fe 8.18823622990127 10.544300997159358 10.812997369810189
Fe 6.6758911023859735 8.807001823526909 11.40398518714779
Fe 7.433223020924397 6.658602579834012 11.268932230517464
Fe 9.807940303023189 6.5538424681510055 11.156357339157953
Fe 9.242751047515751 12.619076168509995 10.131497400969618
Fe 10.883388074040292 8.510178842383688 10.560096975664761
Fe 12.495774740750958 10.156916383862637 10.374876121210892
Fe 11.495474781153844 12.358683685990606 10.284075776619103
Fe 8.588539337855373 8.414923287744521 9.586943285694595
Fe 6.235034438543439 9.727220676757796 9.31071275621788
Fe 12.469033954890108 11.431963694142862 8.37340618331718
Fe 10.114881528527343 10.376761424170365 9.092574406104923
Fe 6.429214864350189 7.353593097333756 9.181760664856503
Fe 12.054855723490558 8.883931515708182 8.416267720271676
Fe 8.416830611038613 5.722585200604787 9.36186389484777
Fe 10.351862891907322 12.519825468952344 7.986032861630717
Fe 10.408809987816195 6.839712557885032 8.773990768963372
Fe 7.878493423800465 11.440383551426448 8.59027276773984
Fe 11.301639065009807 10.37611370178695 6.712123032659652
Fe 7.491701647555394 9.243685223391148 7.459871759417526
Fe 8.087183004820046 6.95511913567946 7.471258428667581
Fe 9.06343788890075 11.000328540354392 6.673563902466611
Fe 9.828111466633013 8.622739252872412 7.342664294696125
