25
Energy = -169.35096849 eV
Fe 10.336609247728171 11.21852797475443 6.909778002057998
Fe 10.22440989517247 7.625829626480335 9.0010219701163
Fe 8.816993434620613 12.481701374303292 8.137623540122561
Fe 7.735721755740474 10.663321796273134 7.030908489709635
Fe 7.95864334599722 7.940662082270088 7.935424870231804
Fe 11.702974259365213 9.507662074188795 8.490591735896103
Fe 13.130929821823997 11.64705640509401 9.015883125954984
Fe 9.285476318981212 9.73681637562562 8.339016091844499
Fe 6.531200510163685 9.511801565264328 8.788767975496851
Fe 10.822101516159492 11.614246840152404 9.170485104581982
Fe 7.9799462012871905 11.044783307772896 9.787812495380429
Fe 12.200127783792526 8.009214079676292 10.375311082488727
Fe 13.861102065166577 9.390244934905565 9.18878712671084
Fe 10.167453961913953 9.81447183299699 10.670011405205255
Fe 6.47455272275097 9.698099439526011 11.213606603153025
Fe 9.449928678734063 12.509598514763708 10.929298126564758
Fe 12.559120011747632 10.346896634859865 10.900443794837416
Fe 10.187625566155972 7.247038340896755 11.349622883773467
Fe 8.240225878117958 8.45503748982209 10.334002449373088
Fe 8.23378239141715 10.823121295514062 12.17471932768199
Fe 11.885973086272944 12.59561624192646 11.1741816754285
Fe 12.85208224544851 11.29650002614624 12.974568922317541
Fe 11.60769752931928 8.921938252252017 12.604270955527234
Fe 10.581500776543658 11.068471704224915 12.716716316117061
Fe 9.106279583965268 8.76380037869605 12.719604517813561
