21
Energy = -141.83288379 eV
Fe 7.100938353654083 9.363365042996191 9.634127596911098
Fe 8.379426211784878 9.309784316705011 11.715654265107187
Fe 8.263352577714258 9.426389511930168 7.476303764530452
Fe 10.825997348314758 9.317167870452707 11.652695681941255
Fe 10.709482715987454 9.436869136344802 7.404038368216896
Fe 11.98147699501096 9.382989452829008 9.488885700552915
Fe 7.384420777482853 7.274022940336899 8.338474167249347
Fe 7.454237703747612 7.207253035909414 10.800584842737177
Fe 9.471701983996043 7.31813816228338 7.031856299612823
Fe 9.612668057538073 7.1963524439739315 11.960814543520032
Fe 11.63604819228558 7.287352356802267 8.197777243509925
Fe 11.703330185467994 7.2153105560336215 10.661892778970778
Fe 7.438865885235548 11.574984821093826 8.492784553946782
Fe 7.499514653874249 11.50558741999605 10.86637821774452
Fe 9.465654631090224 11.613077236380526 7.242063340771319
Fe 9.601463366293185 11.496699578445185 12.002920700228668
Fe 11.571992588842805 11.590039002608068 8.387240609687957
Fe 11.63765442363702 11.531037318179735 10.766519303531492
Fe 9.53258214180328 12.752900080891983 9.664854382891372
Fe 9.539857660494693 10.422839973175263 9.58901212319672
Fe 9.543186729012465 7.823108367276964 9.515201156076053
