27
Energy = -182.25121546 eV
Fe 12.80170396367902 7.327818010720745 10.269818183233598
Fe 11.488611212531021 8.157747302057551 12.002146080978893
Fe 11.004740659744298 10.455778636769343 11.399787467033448
Fe 13.061196028729581 9.64369789037553 10.653315677669037
Fe 13.085122204398564 8.86113147431077 8.294905266858267
Fe 9.376324471481688 9.610665260301502 12.988289707068773
Fe 10.885395395492434 8.885115998085372 9.481368342920623
Fe 10.55049690614599 6.585879273522506 9.844931380484601
Fe 9.643282945048092 12.051324787052293 12.481838567042832
Fe 9.337582565937822 8.132065837874256 11.253055669509754
Fe 11.904685152539034 10.957390996409515 9.009711719865562
Fe 7.496335076046495 10.97155216296382 12.763463302064213
Fe 12.152112353148757 6.532587422719519 8.093154485436887
Fe 10.16378934387385 12.462380256207325 10.18242496541764
Fe 7.0631444722510315 9.011535363337932 11.417547520160733
Fe 8.759231644710503 10.436786087917698 10.526967154094454
Fe 12.094974195616501 7.826314687662213 6.25309505712026
Fe 7.757286968720541 12.748468011784873 11.060444820102164
Fe 10.102500581251682 7.774543909419229 7.497078847727144
Fe 8.369698092420707 8.25425435076865 9.183738895254189
Fe 10.294660049349195 12.080199438231267 7.681302117954712
Fe 6.07672255605935 11.099188140714462 10.87980986929575
Fe 11.22116172048485 9.832404006335825 7.00601732989923
Fe 8.248640386801275 12.158366085844138 8.84044001266121
Fe 9.136398849845978 10.129494564360373 7.993576423115464
Fe 6.1085212305332615 12.64753534827021 9.068637236154851
Fe 6.905105065010637 10.176805420646899 9.020749846536804
