20
Energy = -132.21517554 eV
Fe 9.734994225177399 12.889212311958707 7.471325393515752
Fe 11.158188468876352 11.706816443054711 11.408754265399493
Fe 8.239369879848606 10.022022317936976 11.451038135587368
Fe 10.322581651371793 9.33100167474882 12.910736635418704
Fe 10.582183683314156 10.306231232184926 8.135797964763466
Fe 13.19348939697484 8.040608177280108 10.448739237710788
Fe 9.158654279486894 11.533115455522642 9.807124546876087
Fe 7.782063588792506 13.12015983513667 8.692516145580312
Fe 9.070184997237288 6.842231823376611 9.728259589286607
Fe 8.68869603082196 9.03361580017103 9.26342277025594
Fe 11.207244449099985 8.08203984008674 9.264877053136312
Fe 9.710465476930661 13.935814515193279 9.493716341222727
Fe 11.301905114903095 12.184386332228655 9.111983672409165
Fe 10.44932345218023 9.684696172908755 10.694408336418443
Fe 11.228832570099675 7.522222979430957 11.509903272330344
Fe 12.486761960046215 9.7801579612385 11.949050457223025
Fe 8.313733665214215 10.844692925481244 7.78188801018514
Fe 12.557048038881616 10.264707613088678 9.69518606498192
Fe 8.796843501510887 7.781109225818388 11.775419389185851
Fe 7.000569381460576 8.0782911753817 10.388986530740508
