28
Energy = -191.58796411 eV
Fe 11.217358279014475 13.164596137684974 14.258297557532897
Fe 8.993601400612029 9.796011373776214 12.792100022279413
Fe 14.1216536897986 12.729163020697854 10.28219620230049
Fe 13.882961918444398 12.885040893459873 14.367736060457625
Fe 14.681561456017985 11.464460152678427 12.301841078084058
Fe 12.72103481142802 10.965265592181149 13.621289686181742
Fe 13.34844162716743 15.065717195935065 11.117231888466417
Fe 10.035038998010426 12.718299079513693 10.536527686578081
Fe 10.56938599955927 11.73866621671452 12.597882886530746
Fe 10.014558692645513 10.313840884431807 10.6270049297502
Fe 13.683935701613423 9.276496497009292 12.104393318451487
Fe 11.309103696486238 9.27535008991093 12.546001087428271
Fe 11.978245496707213 11.181654031615214 8.985539409980518
Fe 12.919997378822563 15.092398757781732 13.626245483726956
Fe 16.184153033762236 12.510496383119674 13.979047597420715
Fe 14.169717788120924 10.351265379416882 9.997938049713689
Fe 12.043998043977124 13.533105297087316 9.750596015566506
Fe 8.190339639585126 11.745360449157777 11.792844031569816
Fe 12.708337233857513 13.089145544106303 12.3391524439831
Fe 8.756775219782316 11.815307118043012 14.215866347473682
Fe 12.334982451971682 11.178085355594092 11.167575296738404
Fe 10.616013622807499 10.524248838927093 14.653185762712171
Fe 11.989358712188372 9.0050021923317 10.242891457684546
Fe 9.086845257574494 13.689743894878616 12.888031539520796
Fe 15.204242927672501 14.841426392062186 14.449074092826798
Fe 14.736248612525179 16.264187554996752 12.681055121326226
Fe 11.01686008564368 14.526922381564185 11.879466282759157
Fe 15.10483670665549 13.92228744731866 12.333515066927541
