25
Energy = -168.17069332 eV
Fe 9.730587530254743 11.032759999585384 7.09101840475922
Fe 7.696386355208836 9.714945363206285 7.756788332932679
Fe 8.061017414864587 12.005612329800057 8.23562655863452
Fe 9.808764510170274 8.687081143031188 7.473845704759798
Fe 10.591971589287414 12.229849944252825 9.299190962691073
Fe 11.554944785765306 10.180842508793567 8.270182934944335
Fe 9.336889441355583 10.246698018514287 9.657706522927592
Fe 8.39722964565118 8.008597217202492 9.374259403216016
Fe 13.324307946529682 8.79189763673517 9.060651463767632
Fe 13.250221415758318 11.296537835643324 9.497089047174548
Fe 8.172577130667396 12.429390187764186 10.498700088886379
Fe 10.89554685477337 8.218176647354957 9.551371740534833
Fe 9.888408224553512 6.832696647101629 11.108944455835832
Fe 12.63533712523419 6.868876262646991 10.306417849209712
Fe 11.697843799419745 10.223687403779408 10.766692529677806
Fe 6.908232372004799 10.306339838324718 9.905844910438615
Fe 9.796056613349158 9.065924869430983 11.722046169421102
Fe 12.090939789988555 12.586846109370745 11.19773052147475
Fe 10.064891750537468 11.526343036234664 11.89218670150677
Fe 13.71333701450562 9.219163129452859 11.217716185523912
Fe 7.577190703324425 8.44415529180129 11.450810058454142
Fe 11.845606550298582 7.995943148661165 12.11384051981657
Fe 7.8542921170938005 10.706903828206709 12.139399669308649
Fe 10.005087270282864 13.811403461855726 11.051083651623781
Fe 8.517429629629948 12.984425721759644 12.77595319299044
