21
Energy = -140.0387655 eV
Fe 11.511397885534144 9.46488162303958 6.764564560041828
Fe 10.86421880204702 8.121761809851883 12.374393895937098
Fe 9.504047763174338 8.441909517293166 7.5454376138860395
Fe 9.605596322455442 6.418103249068716 8.669579545089576
Fe 8.701263528083414 10.26285112747436 8.95788266047017
Fe 12.173170028124055 9.183161768603428 10.68398687872188
Fe 11.670308082493502 11.815468149170442 10.57124082603602
Fe 9.997274007441606 8.143797419018858 10.007619140388783
Fe 11.58462062668805 10.474584184527165 12.607063498185372
Fe 8.521133929198799 8.019435696183573 11.801568031647585
Fe 11.72248956712713 7.809778535567953 8.470815735413145
Fe 9.553260796942382 10.798511397086672 6.913814702301216
Fe 9.860790522078146 10.18459965898462 11.158827521928755
Fe 7.777067255883662 12.16623163362811 8.34388315064128
Fe 7.477582761020447 10.094826227199652 10.885789195359605
Fe 6.393209738769473 10.266365709595114 8.77081990023678
Fe 11.056099259535383 10.276655429491878 8.885580545500504
Fe 7.64562275430656 8.290426498468886 9.441969829787116
Fe 9.38134731408642 12.237546794544999 10.292238052466331
Fe 9.285299996238814 9.694463011015207 13.245889323140476
Fe 10.38102353287728 12.501465034291806 8.273859866926369
