28
Energy = -190.46432176 eV
Fe 12.428236245864815 8.87124879008703 7.803417270470781
Fe 12.007015270291912 8.603396130927457 10.207658215366953
Fe 10.813784390670529 7.240334720541583 8.799703359534485
Fe 8.757672228792053 8.925636705701248 12.980823386530112
Fe 11.290682750070799 8.13671553693183 12.53604744034021
Fe 13.741484638381085 10.097855621666449 9.376000070912971
Fe 9.701363483699657 7.153245671193384 11.133618825531292
Fe 8.617360070506743 7.74132994418837 8.978359892944017
Fe 10.281982299150268 9.62869437220766 8.276163398434822
Fe 12.663064259732192 11.057217045874399 7.30070123129605
Fe 8.545705459412046 8.920557992066419 6.836563025779073
Fe 12.336485613429591 10.33356054363081 11.749152263980772
Fe 9.893445911108406 9.561001407414112 10.73191801684571
Fe 9.597835633715624 6.789104646537507 13.431927361913784
Fe 10.467846538571214 10.357053344800223 6.110554758579524
Fe 7.569592639724453 8.399052805000807 11.083168358391303
Fe 8.444892865080343 11.180476760393432 7.198966225937885
Fe 10.63882638550363 10.169877153184334 13.38660839941746
Fe 7.786237111824336 9.892679299638084 9.14302454377178
Fe 8.86125631536775 11.800871352186128 13.441018932845061
Fe 7.0385268070000455 12.075763560469467 9.778020830214587
Fe 10.467906595026614 11.840336689759482 11.637473978628408
Fe 10.694204867821751 12.249767838840269 7.555940985843064
Fe 7.9753491049798315 10.834620073629187 11.50827929903753
Fe 11.706936986737501 11.086252326423207 9.570753492788166
Fe 9.294587818523235 11.703471527333551 9.42100745070431
Fe 10.910855791494528 13.33042662443317 9.907913074327608
Fe 8.601879445543165 13.154469042964363 11.250233437656243
