22
Energy = -146.24415283 eV
Fe 10.9948633903203 9.758068295773453 7.2570022192050745
Fe 13.010396121734649 13.639213488400493 11.009009789901237
Fe 9.126265371185648 12.61423411719633 12.621772151977837
Fe 7.721293994653579 10.647250742626518 12.463085111183121
Fe 9.92587482504457 9.329032298821899 9.391695530713331
Fe 11.5271676453304 12.893048887366664 12.794271176160256
Fe 11.589850786051219 8.620873913776759 11.145774299618314
Fe 9.270783505640434 9.577134567617897 14.14689220916557
Fe 11.008884529115546 10.480661812074977 12.678391591772497
Fe 10.404414786972001 11.6675336965665 14.622322547682456
Fe 12.223888467057648 8.502459845952785 8.849573764692629
Fe 11.673423415818807 11.004309869936767 10.386763164364062
Fe 14.254432663571178 11.962722914260816 9.868089965550965
Fe 12.968378301254353 10.74803894875028 8.11615308743297
Fe 13.703383773281745 9.68024535902567 10.278071823281461
Fe 13.341214493888387 11.481908861837825 12.097866612521155
Fe 9.13526294513567 11.248287985788705 10.640161377363809
Fe 10.606105305490251 13.232042314440257 10.57691949180298
Fe 12.388179638013328 12.998056803026332 8.784812851114623
Fe 10.399290050533608 11.656810795838743 8.482889263784548
Fe 8.060661411883226 11.4793240474857 14.6470672824703
Fe 9.27461947657103 8.999804893586072 11.773455668349452
