21
Energy = -136.23983937 eV
Fe 11.05352678710362 6.1779411899096015 8.606594422457816
Fe 11.631527879750577 10.05236694724123 7.647873564665684
Fe 9.247590490473685 9.598914923200525 7.788083350792664
Fe 9.953464841156075 11.942376723903301 7.626020127122062
Fe 10.962776798654083 8.325225001572456 9.40796633272656
Fe 8.144535514316148 11.433474036074877 9.1342795569897
Fe 12.678222507484826 7.858186984886238 7.997652592709657
Fe 11.777175646619398 12.441026755206625 9.011286914479602
Fe 10.547460942727422 10.650777636403761 9.646082946087882
Fe 10.844875724752763 9.367988835860476 11.684461210060872
Fe 8.895276785889866 11.116439565352989 11.415650470436642
Fe 10.709836969930901 7.873043600931217 6.858183454249569
Fe 8.975350349495297 7.242350012124109 8.515203596984346
Fe 9.68338325685383 13.006627467411207 10.020482011425317
Fe 7.615228353871526 10.853440376668678 13.225571860456625
Fe 11.197342107041248 11.893406579617592 11.533323505823459
Fe 9.97348246481366 10.693222865670593 13.430311857320516
Fe 9.748065159938589 7.113524419522819 10.98287449560275
Fe 7.39771467925161 12.716562003317309 11.236460854705971
Fe 8.669335035136273 9.116702106637375 10.098822703259648
Fe 8.62748056758565 8.860054831333215 12.466467034489135
