21
Energy = -139.75804497 eV
Fe 6.510468884499276 9.753577610619601 8.29477039795824
Fe 6.707874320392197 9.537990674125611 10.707402119644344
Fe 7.4235988692433 7.627337030181507 9.262971469278467
Fe 8.556711786283799 11.26733962467037 7.6466978570383075
Fe 7.0554728173770105 11.695696962130777 9.36960264965324
Fe 8.322426552612985 8.825215311734098 7.1080136580108215
Fe 9.411545365048612 6.871433964473653 8.111029118000758
Fe 8.879750546440356 9.482589063573808 9.349078625530916
Fe 8.619714988509696 5.926242339144892 10.246775586364894
Fe 7.630479837240989 11.474742996548642 11.630942209979263
Fe 10.37741657622413 7.473604912243475 6.347037438526383
Fe 10.08157124818501 7.717722486067477 10.58835711614826
Fe 7.993971269086166 7.760519031757005 11.682856546676081
Fe 11.249422070289368 8.218932433923596 8.550544745344112
Fe 9.206487704493986 9.835496896352064 11.760065958857163
Fe 9.377015108346978 11.91428644898845 10.116933283986192
Fe 10.906680433781633 11.546415616225653 8.42123057678126
Fe 10.438435614169682 9.785731168541282 7.101399456789826
Fe 12.663433344531226 8.463554092598825 10.303158709308951
Fe 11.041544099063811 10.076195398114287 10.296854565794437
Fe 12.731099895273935 9.932419032056755 8.452946630389974
