23
Energy = -153.53307367 eV
Fe 8.820478860473127 12.181922666309516 10.872947404333612
Fe 10.273638596733312 10.874491002580585 12.169522936206016
Fe 10.181938768911902 10.434195651292688 9.693409745099551
Fe 12.0711906085357 9.636418949744407 11.161079258671062
Fe 6.371682687743325 11.161371602772892 10.813844424861998
Fe 9.24194141268582 12.438802885406611 8.52298432762975
Fe 10.964073076636657 11.339187607516546 7.452003582626935
Fe 12.434130377790257 10.004819350176948 8.79483965297621
Fe 7.640650260732906 10.87284690249116 9.238908057164016
Fe 9.995149356397109 8.51170870409135 11.595649727872667
Fe 8.166235859241622 9.946003861355432 11.384083897628182
Fe 11.764890739133287 7.0439156589053225 11.589567363682283
Fe 8.780622960811046 10.346879092862919 7.322097305589344
Fe 11.318176020473295 8.010675304036639 9.560367453739037
Fe 10.727974536121101 8.928249634987505 7.464092843483487
Fe 10.092530125164807 9.959164167989332 5.423351651480121
Fe 8.684257774126069 8.432146858340344 9.231160726996539
Fe 6.35726225564608 8.870699525678468 10.105002194134777
Fe 7.779202124140215 7.548148317212128 11.425007976917813
Fe 9.652687348806676 6.426595207705867 10.412093818172444
Fe 6.764604010171476 9.248383721324814 7.772161113182721
Fe 8.558412977462309 8.120160507463451 6.721797379536701
Fe 10.056094601078813 6.725187053532837 8.035714525203627
