26
Energy = -175.2232549 eV
Fe 8.183133694085308 9.487742116283602 13.470392618874708
Fe 11.5722709382928 11.77101305378221 13.34033240245827
Fe 11.189177350820266 10.653242835213709 9.37038541437712
Fe 14.980834459022056 12.207059603651945 11.289963552791436
Fe 13.797928535778576 13.042690264276533 13.126392282459776
Fe 9.07508190954609 11.6059222361663 13.93449264829976
Fe 14.240867352397723 13.089543537975898 9.27718965026065
Fe 9.809991333943591 13.210621222905552 12.148630387261171
Fe 10.81665208523384 12.370735565698435 7.671563607307915
Fe 10.062761243564031 12.876215349349408 9.78028420557145
Fe 11.177455591325648 14.785825542385588 10.784714674790136
Fe 13.484858866941531 14.394970210004239 11.110826661553133
Fe 12.215013070219817 12.336025581046378 10.972127923710024
Fe 10.38623214961208 9.662997919360224 13.280242012973536
Fe 10.009621092573283 8.379629026941512 14.994675375533076
Fe 13.272887706591495 11.298883075688934 14.862643450906951
Fe 13.712231699245052 10.594660962353649 10.054944566289675
Fe 12.943086807160315 11.693103171218292 8.042967778927084
Fe 12.107532837226882 13.957619715945787 8.772112985507661
Fe 13.760582929779591 10.647460989236869 12.568977626200784
Fe 11.893998263375677 9.80640407690196 11.549099989742537
Fe 8.46033653883481 10.181042657899235 15.641156439892177
Fe 10.816649002625407 10.522715243016584 15.359246546533637
Fe 11.74825774622031 14.131619369455695 13.024944423782754
Fe 9.842808592483404 10.997983144630938 11.416195606394952
Fe 12.509780071902528 9.26215890478811 14.1229263768656
