23
Energy = -154.32877356 eV
Fe 11.500529447359316 10.946987318323831 11.713989474837618
Fe 9.56569329451191 9.46718722359836 12.21977747526529
Fe 11.66033101365411 8.654428621470664 11.040628428618925
Fe 9.429414603862604 11.913174964392557 11.543969481647556
Fe 10.953709496954566 12.256659602968059 9.53962188791701
Fe 12.648447722570204 10.340944459246177 9.736038421801217
Fe 10.0821815607524 10.24413976556919 9.973303640641747
Fe 7.497858564878615 10.613139076094166 11.122188010644647
Fe 9.659032877695358 7.297704111517214 10.821093308270717
Fe 11.897493637594641 10.72569450570103 7.70303631410328
Fe 8.530257322368 12.105804076028225 9.427965492645468
Fe 7.606873629550703 8.217350668704682 11.77631055227347
Fe 10.800612031439044 8.553996123477361 8.662523248608828
Fe 10.94275221575974 8.905123027561348 6.516607231060928
Fe 8.356737747189332 8.854923066424666 9.542097726506661
Fe 9.601202407628795 10.930345895634265 7.5699937768427334
Fe 12.90657511182692 8.64617890784227 8.020585087526868
Fe 7.107284639856609 10.453206958715782 8.437799367168253
Fe 6.069041194169511 8.857323929120406 10.111114693777033
Fe 9.015269782672586 6.948034592890674 8.231566819614686
Fe 7.378669825574896 6.752672771072492 10.016492406440905
Fe 8.518743948384346 8.99532855303532 6.990356221069904
Fe 6.772614736834362 7.926219922345763 8.030596477892074
