24
Energy = -162.20590027 eV
Fe 10.898202251750025 7.145167632651171 11.807045379809942
Fe 7.878867054653495 8.361242191659175 9.5170796512508
Fe 10.686525244212033 13.056202337050511 12.867871775797358
Fe 12.727392789918644 8.265505358700118 9.962260199428714
Fe 8.936016621748626 8.601310118216688 11.804301389957207
Fe 7.361127133619701 10.530344136494946 11.081051996889208
Fe 11.767106679643883 8.148787749260928 7.698273074207784
Fe 9.187097352612778 6.819712989218046 8.1718691896437
Fe 9.753372169999576 9.240757397342026 7.878369563749228
Fe 7.838817151121111 8.327173087441738 6.940516096287815
Fe 9.55833836415793 10.9191204729989 12.574102666808738
Fe 9.384597875124484 10.323612359463588 10.09143527618303
Fe 11.308509693752155 10.586791623370626 6.824362401558298
Fe 8.85434060704698 10.763600677456186 6.382479362797545
Fe 7.478726641896047 10.330864105633667 8.246287698112294
Fe 9.765892497490087 11.849179170842765 8.353342889993883
Fe 7.598356771111225 12.251087355129389 9.43753277730651
Fe 11.324658319681305 9.536031770541102 11.548987855314495
Fe 11.295597888565975 11.847448247404488 10.790538929525788
Fe 11.993271067879117 11.30261358554982 13.033010505220236
Fe 11.6375682614387 10.21776926610674 9.12773125396576
Fe 9.138990977510634 12.683906773143898 11.036836589380139
Fe 8.797887297454338 6.484844525597151 10.650635326268288
Fe 10.44603489552922 8.024222676644508 9.791373758461836
