29
Energy = -196.55244241 eV
Fe 15.00761297022434 10.73918745198152 13.275802124708022
Fe 13.33445866256857 9.390331531763772 12.544247909337308
Fe 13.947314262163731 11.578724974783459 11.395962354167605
Fe 13.950436467028183 9.413036794169036 10.224785321593384
Fe 12.877686052916696 11.678187970991564 13.477022725018813
Fe 11.845747453680904 7.915101070513182 11.267716368824292
Fe 11.623110217944264 12.20886129413259 11.323477864207387
Fe 12.944835410797582 11.900771602697326 9.28826105693751
Fe 12.479532839051585 7.839908562004629 9.00889970101978
Fe 11.103040389399398 10.23071884888263 12.722855543319772
Fe 11.774292335696144 10.132774794738587 10.455584740235427
Fe 10.26635317671709 6.737969496123609 10.10351121296322
Fe 12.441936392640985 10.132845603235932 8.128609900796619
Fe 10.499624221686457 12.602702210456254 13.443644390628501
Fe 11.917928305892014 12.39259006713909 7.200737749615786
Fe 9.609258905732384 8.70589376976626 11.645494053066672
Fe 8.339721237999802 13.315519143902785 13.31829813716429
Fe 9.456735616922114 13.260184166942075 11.231488237990304
Fe 10.811592064976502 12.953008218236109 9.251478284456416
Fe 8.829570784384897 11.013104466816328 12.783446586239656
Fe 9.34797253557651 10.826376773439042 10.426885015552717
Fe 10.210725661868224 11.070920066355527 8.095138440360044
Fe 10.376285594133716 8.828787335863526 9.063819782714104
Fe 8.22730710570142 8.00935069025 9.878532463826062
Fe 7.321040964744032 12.31698526549644 11.336297644331712
Fe 8.492202172600278 12.624605634531058 8.94602909486338
Fe 7.266357480947545 9.838903104730756 11.106289011833573
Fe 8.164544238142335 9.841676334758958 8.382858485602595
Fe 6.65317711540037 11.277262735048172 9.372446305823082
