26
Energy = -177.08379096 eV
Fe 10.342193862998878 14.953813864144449 13.416363915504919
Fe 12.976554232859572 9.131569021290447 9.296182453881816
Fe 11.82876149365723 13.6637525378939 8.947871928139966
Fe 14.033839563237445 12.768450039325634 9.359199307390009
Fe 9.140250359987183 10.263120746240238 11.49883991314316
Fe 10.431359197857175 9.3957903098842 9.242311008839824
Fe 10.19245230111768 12.172035617488184 9.99846403376846
Fe 11.488749776386447 10.373042236254088 11.01615585126312
Fe 11.630767024134206 7.323541550949154 9.797808814537094
Fe 8.917401706258977 10.940298852007455 13.908423094054493
Fe 10.492659478183672 11.995052677223825 12.452243045268382
Fe 12.66420610127286 8.522942170353348 11.692463656563532
Fe 12.64809448869984 15.259363041011794 12.445543824734694
Fe 12.147518563875778 11.260364838668302 8.76278497818516
Fe 12.392352134152498 12.580288821037485 11.163346926286808
Fe 8.74040746145724 13.433240018743076 12.463374492908487
Fe 10.169025423349936 8.15089452201159 11.367329757394902
Fe 14.264711181961403 13.508181869116145 12.016880123511957
Fe 12.122980747504728 13.317427849437841 13.700730811740515
Fe 10.782786225733972 14.384983081351061 11.12574147798944
Fe 12.718143189859665 10.94663778135968 13.042992343989088
Fe 11.09524178115125 11.298386711110393 14.832352891891764
Fe 13.873775311644144 10.74327289923656 10.746016635253063
Fe 10.803561684977497 9.406081813858801 13.263856562812919
Fe 9.61569330232519 13.123262525877037 14.703038788839812
Fe 13.347572185108673 14.909683202276463 10.245485879458856
