29
Energy = -198.55210033 eV
Fe 14.019579533059028 11.105507996372559 10.655794146998538
Fe 13.294587657063538 9.218329263103273 9.309281434952755
Fe 12.124132433226311 11.289325436773622 9.237227368529423
Fe 12.419659077109811 7.4418687655535525 8.029755815819634
Fe 12.170827377507882 12.360160849307455 11.458144716483371
Fe 12.140706281363125 9.842034070487218 11.342492079298678
Fe 10.620770654947966 9.383208798474035 9.3234587536296
Fe 11.733233958656836 7.520623304130411 10.417500818362115
Fe 10.680969743328292 13.215174431623046 9.520856800141708
Fe 10.616858298319313 11.696065068860522 7.453662057175436
Fe 10.09675850880174 13.934179993414066 11.691538017213484
Fe 11.774050793149378 9.593417363367916 7.242117377846871
Fe 10.807957434164567 10.487188895395791 13.311744974584045
Fe 11.077886534407405 5.738116356311095 9.072120873610483
Fe 10.94204148471598 12.790047510664635 13.52457073146249
Fe 8.814776265144507 13.254906216235769 8.111020695153456
Fe 10.102815432767029 7.517071668062202 7.936973170374557
Fe 10.076227065249617 11.333139629541995 11.14400305217498
Fe 9.319888988477265 11.566702642834837 14.779605899546592
Fe 9.347912108278233 6.975760845261628 10.213049036909844
Fe 9.861254792192018 8.936305338286672 11.537833039557741
Fe 9.307328836557545 9.652507112505623 7.163547965374895
Fe 8.599697319383024 12.30203746433403 12.761437567070855
Fe 8.293580128860556 13.012568108708416 10.405190382386332
Fe 8.909265059479804 11.13635736355537 8.982397749927786
Fe 8.165242959839244 8.815331749080691 9.22493864645928
Fe 7.665399441614131 10.595972693759583 10.991910714568476
Fe 8.387985593793664 9.944759254345794 13.156915415949438
Fe 7.607457676503945 8.266174090773367 11.46019394195539
