27
Energy = -183.19614768 eV
Fe 10.80497928856469 6.844778275177147 7.456603160997264
Fe 12.34566098751276 8.736584158998058 7.79554125425044
Fe 9.394595446044253 6.019412060088481 9.428403774934033
Fe 8.559605809596244 7.355799673836924 7.7426178842507225
Fe 10.760682648087721 7.969303011717276 9.481779875483916
Fe 12.919363907783818 8.287680580565455 10.345682224327136
Fe 9.960429444992865 9.29433187916628 7.607543628972983
Fe 9.502715805338033 7.149190492737695 11.524791600126294
Fe 11.305460070183438 11.191966236820047 7.421129213974185
Fe 12.890016647276878 9.927039066211297 11.9640103481938
Fe 8.412898113374172 8.46665579647171 9.89887490476719
Fe 7.533935929916307 9.71346628131229 8.025776970690089
Fe 12.0778792883889 10.308678123722615 9.486380666472169
Fe 10.72281200046751 9.231441920914023 11.44521018141768
Fe 9.693785235991243 10.539105154038834 9.672267756264107
Fe 8.919489481759744 11.692053264148502 7.732775331887461
Fe 6.719236549346516 11.928899473531144 8.383078887277906
Fe 10.119104526584302 8.406236917932604 13.474924112245413
Fe 11.685101423783843 11.84404410324096 11.29539947876013
Fe 8.45729202750217 9.532478054432652 12.148905396231537
Fe 7.40437653729324 10.83539115738552 10.25681497444843
Fe 10.77718610139407 12.658040920596175 9.253134020666193
Fe 10.790650889675188 10.709947045026865 13.276574306940512
Fe 9.335276653511011 11.836664347940955 11.68389794664763
Fe 8.43607978642049 13.027874868888798 9.79103864304973
Fe 10.71761615342548 13.11059641863417 13.083674195033234
Fe 10.274602008988305 14.039588691104791 11.096254228839546
