20
Energy = -133.55586542 eV
Fe 10.682534807890988 11.993084776400437 11.64037164889716
Fe 7.262040531893088 6.997058867339009 10.663783591308114
Fe 11.085196028670097 10.845963982502465 6.920824762891703
Fe 11.018101516462062 11.869811061878202 9.11417630344787
Fe 8.713610382073748 8.635128500698643 10.27863979532526
Fe 8.826474826153294 11.24213640232249 10.2306137470871
Fe 9.101942581794198 10.011258351839642 12.300500957459285
Fe 10.784986082617493 7.6793300378201925 9.37487832021305
Fe 10.820424022111505 8.35310019113457 7.033589997480117
Fe 8.544936409466601 7.697183167698115 8.107748683206136
Fe 6.9916196325551265 9.930672317643827 11.046896682036204
Fe 10.100811366483583 7.807905410906107 11.864986638747318
Fe 7.633544072945181 7.97126939617295 12.516408171031502
Fe 9.864625156552771 9.775005506065307 8.61711785480846
Fe 8.789304771158331 9.578916688283867 6.503381455954925
Fe 10.960262133780088 9.791180918742317 10.808492374123219
Fe 12.32613062030995 9.650481790021592 8.691029448637526
Fe 8.82252861698362 11.704409851421692 7.789549647713845
Fe 12.790066313568024 11.169240243342362 10.449115270634987
Fe 7.3724475423954 9.788449953631899 8.539482064861756
