29
Energy = -200.74224426 eV
Fe 10.20795260643316 10.73763830523636 6.158840746500834
Fe 11.885106089910828 10.883788615108648 7.960630233680554
Fe 10.143308652550338 12.125640198684655 8.863504556895817
Fe 8.291097286006757 12.181579203452943 7.279887141791132
Fe 12.103144221974386 11.515010986057845 10.332475294738455
Fe 7.795369710328565 10.133638056369994 6.075373260394944
Fe 9.453904175876115 8.294106536762937 6.211542406251039
Fe 11.314856329054084 8.670628328882627 7.524795184502096
Fe 11.768305185017715 9.754255896094728 11.979330154613207
Fe 9.199049386313689 10.087676805380246 8.043717483376643
Fe 12.887412247633582 9.242489894420883 9.635893116426754
Fe 10.683741684355947 9.606339697841811 9.860411091065178
Fe 9.869087471452909 11.449402041883358 11.223813637347975
Fe 7.797111480136451 11.922767130348038 9.657365346152158
Fe 7.6206956868328275 11.194969184797118 12.002295407887095
Fe 11.757283016880471 7.109359152704704 9.174076227903248
Fe 9.290939939977765 7.848284168474113 8.980163240143925
Fe 6.758217231291483 10.253312178908107 8.243150934585294
Fe 10.00329106189074 6.293043357499293 7.525735450268658
Fe 8.304436608536642 9.631884628217557 10.214580391902034
Fe 7.487052732477732 8.028377315442045 7.430491599846565
Fe 5.940633809559776 10.322135888144157 10.479053168689397
Fe 9.382074168070014 9.34410781831897 12.317117607082904
Fe 10.819216678976591 7.641473185194022 11.238299275014196
Fe 6.973455949572063 8.836863254247687 12.146654527853837
Fe 9.86216003571803 5.706311697316086 9.952385905794781
Fe 7.715727673537594 6.063297896891313 8.862076824665138
Fe 6.588079280795678 8.05500577273252 9.736433815630217
Fe 8.381349285006388 7.195264587818486 11.154250595974247
