28
Energy = -191.12071591 eV
Fe 9.87572607334731 13.395898495444035 13.970975228661251
Fe 10.806766555426654 11.535022789287414 7.442988675146228
Fe 9.332780744238644 13.173965545111976 8.94446642272876
Fe 10.351740374718027 9.152400577871141 7.213467024864461
Fe 9.334676627786367 10.998144669520205 10.971412848856538
Fe 12.761540392009717 8.33232971366599 10.160222983484397
Fe 14.232488247523044 10.407761344471322 11.01559608808598
Fe 10.702425456704022 10.292708170701669 13.269823046392709
Fe 13.032065600814441 11.333466934033181 13.116516709799756
Fe 13.194028487812915 12.775387598624857 11.107379097424527
Fe 11.566209423706795 12.068180804012753 14.830494804135013
Fe 13.52838986324447 11.77282357105188 8.98322735337695
Fe 10.927416892464421 12.407626352881032 12.194297282692263
Fe 12.409136702472162 9.861230593257453 8.381372568731269
Fe 10.480771322864902 8.42892638369322 11.579222600141858
Fe 8.37065428030782 11.791119560143336 13.057910146694539
Fe 8.393401869131976 8.91682222411258 10.434400839908147
Fe 11.292384197663296 14.234428279832564 10.709251025862716
Fe 10.424754974829929 9.40129356527799 9.427188122313893
Fe 8.626753580718992 9.383326399732223 12.825971198639607
Fe 11.916997916981122 10.450947802096445 11.060746680324542
Fe 9.370402098580382 11.059639334987764 14.993538354144084
Fe 9.081243794726204 13.432914280413058 11.289062921162467
Fe 12.705523230688202 8.895738012958374 12.546032589978262
Fe 11.17038230423355 12.081263853482913 9.614945610395148
Fe 12.446763433909528 13.77065129440287 13.154784105959768
Fe 8.840207215496932 10.852544388098043 8.60142927263588
Fe 14.623945729029014 9.593014852264059 8.902853788890667
