26
Energy = -175.39382752 eV
Fe 11.699825914131775 7.532819262551301 12.895989912568036
Fe 11.548390728560161 9.832575953830448 12.668320660129123
Fe 9.343492893750424 11.050425748820743 11.836572998811304
Fe 11.35465297514269 12.184248391734378 12.11555626064561
Fe 9.690468037483138 8.599332374115397 11.807846380204898
Fe 11.776564520614695 8.12786352997129 10.585127153464096
Fe 10.22459400134113 6.2959597450934925 11.701001895403765
Fe 7.42759825518674 9.654525562472264 10.840633286467005
Fe 11.251357739766531 10.61656036884063 10.405740554219292
Fe 8.642435485700604 11.51541373467781 9.598825729261831
Fe 7.893609393500153 7.319320988128711 10.764794768343325
Fe 10.388629512560861 12.897605284991116 10.120771826544631
Fe 9.941076739690029 6.9833270345792275 9.477833011961737
Fe 5.815903213030286 8.653269182266698 9.502405977104345
Fe 11.463636111808915 9.13207983276017 8.363579002252875
Fe 9.409794918245744 9.306710402709836 9.554867222172266
Fe 6.784260564032749 10.534910530391764 8.448578518856031
Fe 11.92031950325862 6.869627598198031 8.275476078032867
Fe 9.919862650365696 7.781809662913785 7.147598906155733
Fe 8.567428680507412 12.512907251984723 7.4651344646716
Fe 7.775233196367797 8.02846906174478 8.49847539248183
Fe 10.658127512095566 11.475762049650282 8.116141497597539
Fe 6.398358137381451 9.038304994000098 6.941732834244877
Fe 10.873889939217584 9.867788512435752 6.222595951193344
Fe 8.85962256166998 10.035913630816648 7.293887500227462
Fe 7.138045381256728 11.251046566366353 6.208354966036628
