22
Energy = -150.2128531 eV
Fe 10.489037064706759 7.668954542844784 6.544443827594907
Fe 11.043743767030769 10.235481184103662 6.7533697644682595
Fe 12.170531265875097 8.7288150127304 8.110194202785218
Fe 8.8963910788966 9.5976296908445 6.184149576077449
Fe 11.28082494928384 6.749392387845092 8.950064046208558
Fe 7.673218005608641 7.615335963336966 6.890674884472053
Fe 9.187696445117853 6.290738118325118 8.212617448882087
Fe 9.660373943979828 8.680789676446828 8.316894432507134
Fe 11.02762623967379 10.752169120757104 9.139539729610737
Fe 11.232528005856503 8.76230148286755 10.430436380635923
Fe 9.080357921311432 11.284423319151516 7.997743159160552
Fe 9.369957516263607 12.250331483761771 10.302881224599224
Fe 10.728925640426178 10.897852525063668 11.588425453478699
Fe 9.47169563152176 7.258058982959372 10.575556749737204
Fe 8.856864953585697 9.79691546302117 10.174303868633213
Fe 7.357642103213935 9.724805422761625 8.091280376758396
Fe 7.541006012222218 7.695614965940979 9.392406075627699
Fe 7.183921713092209 11.649036478166831 9.66399386855326
Fe 8.05080175266788 10.868295166597406 11.922525108464702
Fe 9.728945593663145 9.003596289929066 12.406163390178982
Fe 7.533632525029697 8.415851781052089 11.776788951964663
Fe 6.276621419227645 9.650077496955214 10.28171496026587
