23
Energy = -150.73228687 eV
Fe 10.005591507591825 7.727252348319955 9.573165889067662
Fe 9.591066588737858 12.021912268145615 12.864035751178445
Fe 9.400545108543824 9.739603973573509 8.484981285316042
Fe 13.045236941523845 11.78238243177003 9.752919915086103
Fe 10.003529667925127 8.987202402999207 11.879448864653472
Fe 11.631104193055132 9.62159122936737 9.478049284258686
Fe 11.9092775983644 13.882504194833007 9.206378945757493
Fe 8.093863247678247 8.885752383508837 10.190281207126793
Fe 13.650306067568675 12.172709028012441 12.185350227117096
Fe 12.980066037885878 14.365297600966823 12.990466131459268
Fe 13.738950988508693 14.035145778194245 10.662205422797953
Fe 13.20504269859579 10.484876101894528 13.77060745600799
Fe 10.557021241159358 14.297303981006424 13.003159469421858
Fe 12.182434507943752 8.455474205737733 13.121436352426654
Fe 11.792595544709496 12.449209903354486 13.979457563416098
Fe 11.71703683863536 15.265641247983071 11.18034906337405
Fe 10.131996856443973 13.302932840178714 10.791384542293054
Fe 10.731725119768074 11.7753661568762 8.913771327452112
Fe 11.983295113268493 7.7557680244907585 10.894818748231332
Fe 9.148012574718626 11.014745631679304 10.560816624796239
Fe 10.851844022158353 10.243144292858613 13.955426930873497
Fe 11.424112946797486 11.059739793149719 11.571575687221431
Fe 13.428383322771023 9.70041091614019 11.429730935111293
