24
Energy = -163.43443186 eV
Fe 7.856700506062553 11.500394652911147 9.760435138345937
Fe 10.221143913188131 12.792612389116648 12.895798528981732
Fe 9.500247230666627 9.047357331825996 12.630618239687431
Fe 10.200486599720424 8.292832889625743 10.401100469715082
Fe 10.063440223919805 10.953984321969125 11.003301357327986
Fe 12.62893942964481 12.322816643732368 9.196495544884344
Fe 12.702020971088581 8.17309035900348 9.914186598627763
Fe 8.712715830947845 13.162903814369296 11.065452250409736
Fe 12.218496029599248 11.842929095125468 11.608713763500893
Fe 11.640431782088704 10.19402858970978 9.309975315032979
Fe 14.221520877342485 12.541057285716299 12.54186472867899
Fe 11.841785599208446 9.35946651923621 11.77460459469219
Fe 10.906200598097403 10.659792653088417 13.564073906463003
Fe 13.778724807832226 10.400546840936043 10.584904326642897
Fe 10.975599525943647 13.598126348354748 10.55573986059826
Fe 8.302104120197866 11.200087174202615 12.474385192322643
Fe 13.472841335141904 13.840623753223637 10.710063226582028
Fe 8.051277731963172 9.38470007012557 10.722145302147519
Fe 11.08019286213769 8.231348077011612 8.190023814229296
Fe 9.304917820408996 9.854923758157648 8.69902863694675
Fe 12.178103076294862 14.185819283332041 12.61397407363499
Fe 12.454015928498142 12.43133135790056 14.13287194028242
Fe 13.470581927589738 10.387630902094536 13.139055615675199
Fe 10.008447885379798 12.195676731012439 8.858246996074813
