20
Energy = -133.83473503 eV
Fe 8.310723118401746 8.53219968203635 6.493641558433528
Fe 10.564120517542786 9.915093569682515 6.527209530800702
Fe 8.444241657270688 10.836883474503901 7.33782177635306
Fe 9.825708083811701 8.642319478160813 8.214128948825422
Fe 6.576914040565598 9.185747827435126 7.826520990612539
Fe 12.24093678226704 9.897290528409938 8.314324543149926
Fe 10.267101222870703 6.469344361239622 9.088647418185507
Fe 7.867796090564768 7.2285430742992505 8.590604404024416
Fe 10.258966321723731 10.90784728144166 8.945610441346348
Fe 11.808326941570485 7.731144390032177 7.639383203845715
Fe 8.016992948353877 9.80049619581847 9.492361249592648
Fe 11.44747248223917 8.414039197007629 10.062277520454026
Fe 6.541203217435928 8.333428045654188 10.334047918995482
Fe 8.353970752215247 12.166666918233169 9.522914022365425
Fe 11.840575552283122 10.604308693750365 10.758019994374477
Fe 9.127629473244415 7.925302682787317 10.554122964531247
Fe 9.484521674415431 10.78768285383961 11.229746021815387
Fe 6.946084518369907 10.94852822059185 11.113606012574335
Fe 7.970766649070296 9.148518494457033 12.146361602284323
Fe 10.529604817100392 8.948271891936596 12.232306738753195
