23
Energy = -154.65016752 eV
Fe 10.093300583277033 7.091415630023692 11.932521101806172
Fe 10.292689508979693 13.514316721790689 9.282787022439873
Fe 9.855100407582587 11.51458862599642 7.959432631697164
Fe 7.891763657104972 12.392719535283925 9.289962717083913
Fe 12.04895706409703 10.593778721507347 11.27245067526507
Fe 8.065205562982635 14.498663728477007 9.475708787035575
Fe 12.11231878716308 11.902970278514685 9.199964603294058
Fe 12.043476113694007 8.136448433313117 10.823825965830935
Fe 9.985747108675339 7.543583143674844 9.395414524358301
Fe 8.538391994223277 9.874417809500075 9.105013739202425
Fe 11.422053379025684 9.058382154111364 13.070300503002963
Fe 8.077064827919735 7.561199141563176 8.363241738828265
Fe 9.784321116632418 11.455910853879955 10.391402385275377
Fe 9.096395555512679 8.893505746141782 13.221753979391487
Fe 12.161742498246872 7.838695622808547 8.45885837444109
Fe 10.20674279321553 11.200396578827112 12.741344295919456
Fe 11.482107381750337 12.969460729064755 11.38669471872221
Fe 9.167349506023278 13.354355990288681 11.396989204460406
Fe 8.102418779255387 7.942990313396739 10.899992283002808
Fe 11.08252383875408 9.775382067736539 9.026258983521624
Fe 9.86736302301207 9.314748482597748 11.129848749663953
Fe 9.890178398586512 8.54286142422707 7.3560720038704375
Fe 13.419092989229197 9.715513142218027 9.506465886830311
