20
Energy = -132.13121438 eV
Fe 11.063341237285565 8.895550262412877 11.13635353299066
Fe 9.905682909952164 6.670942233597396 11.693560709904455
Fe 7.543481409105512 10.598196295010226 10.845932505209003
Fe 7.547907936145223 11.085767496924786 8.556816981857825
Fe 11.676429833879366 12.496256277409358 8.61887805809876
Fe 8.596803545928225 9.761383058475616 6.860714723522832
Fe 7.268584700618352 7.002666907942475 11.993049138058304
Fe 8.583972677030884 7.526277127116332 7.713960793590893
Fe 11.72963538579095 10.137935631484215 8.597462018963316
Fe 10.637698518410316 8.482536883633205 7.333733379137298
Fe 8.7299711977542 8.541805646270754 11.219708751585165
Fe 7.308531501473509 8.771560733186535 9.167504601515683
Fe 9.524772469897576 10.564036458987022 12.053827845611393
Fe 9.497349537615179 9.674523712802436 9.282532635981541
Fe 10.806649740777539 10.552420848090994 6.307540601692176
Fe 11.284677014628024 11.164971134252415 10.680401726841664
Fe 9.745586120491891 11.632936682616249 7.9592032219301
Fe 9.250708717946441 12.159877098447756 10.20595982805768
Fe 8.354387249559503 6.525687729557129 9.870821210604138
Fe 10.506991828665909 7.317831314738549 9.465201267803044
