26
Energy = -173.33909606 eV
Fe 12.612315018508305 11.654907436119789 9.373302256262912
Fe 12.376883637823724 9.73259338636463 7.841748928850071
Fe 12.284957271140826 9.160617625013172 10.365486841262594
Fe 11.202038457501798 11.813793894113575 7.33429569642308
Fe 11.485405133267287 11.052478045513954 11.391469762656353
Fe 10.161088641687046 12.632431732975542 9.589247691645319
Fe 10.498512326997185 10.475736079825184 9.131262371607644
Fe 10.692029548968158 9.11642417438693 12.628121481783353
Fe 10.183969826160078 9.602156634814188 6.752730232593981
Fe 10.913682879161499 8.086338067736657 8.668939935641893
Fe 9.342072308326903 11.426794153998138 11.804843179517341
Fe 8.84377525027914 11.377858902567217 7.489499924980062
Fe 11.245759538354339 7.201425687637913 11.054677669995128
Fe 9.612787706827117 9.041475032855447 10.662089457605449
Fe 9.511185988339687 7.231304885136996 7.005063158126324
Fe 8.166006383632869 11.080427934479498 9.82381485551212
Fe 8.976315172832164 7.356829643657388 12.172480537467703
Fe 8.497738092635238 8.97878384232458 8.615758505667486
Fe 7.910873783239977 9.529839589530406 12.170799788824509
Fe 9.31980357063798 6.696422078508442 9.66810033136775
Fe 6.663317744879041 10.61950636277226 7.922546887910535
Fe 7.479130454723638 6.770565386150298 8.094049026446582
Fe 7.70214946742549 8.947584771718812 6.541072919015741
Fe 6.348564713942295 9.685410779897506 10.260966550005922
Fe 7.249321221047177 7.574432440441804 10.441291737666925
Fe 5.9691948257529495 8.382924663462298 8.327635776715944
