28
Energy = -190.09438852 eV
Fe 11.65714914149559 10.00713537390187 7.761083183531362
Fe 13.137536442320966 8.991478984127257 9.649343579106722
Fe 11.176443576530092 7.944797783645539 9.084694990279598
Fe 9.326710763774406 11.040322054775997 7.254682214074737
Fe 9.363220050580015 8.73646330501109 7.861959202895015
Fe 10.88944191283926 12.298524600503223 8.449686121533292
Fe 12.864049352637638 11.463560994133793 9.48317276105843
Fe 11.423204482231924 7.737351131544937 11.420557202374807
Fe 14.316622111508531 10.450744687073303 11.13845127140203
Fe 13.578910413399868 8.439051105400166 12.11991217710783
Fe 10.490856026586796 10.246403414078507 9.696872858729149
Fe 11.918530793800864 10.108265917873544 11.439939870137191
Fe 7.2215578571078325 9.857235687763895 7.270673048921488
Fe 11.031106547128001 12.600893841216942 10.875598886273039
Fe 8.905678497836327 12.732316570514508 9.637798225312293
Fe 8.272864506798255 10.430475912985449 9.320418751823192
Fe 11.667319291938654 8.927735077507945 13.532900529927408
Fe 13.341522742727083 10.5129704041697 13.36762756370977
Fe 9.119977919795042 8.158571935255686 10.387204018035897
Fe 12.99672146366954 12.266775802174381 11.84147434029988
Fe 9.69181275823635 9.244109938762 12.454105741845492
Fe 8.981551384682744 11.327821495512866 11.656025225063576
Fe 7.054985939018119 12.086972073660112 8.135454441810234
Fe 7.179359914707043 8.301320998657566 9.045766245552333
Fe 11.017993575115915 11.345068578666549 13.210155257861492
Fe 5.878583048937368 10.26877401815893 9.241797415731556
Fe 6.879799319713561 11.887257563072026 10.576030419627449
Fe 7.18403289348089 9.526681994692604 11.219449185006722
