23
Energy = -155.30496684 eV
Fe 13.024842018926563 14.336004125284317 9.587760454070752
Fe 12.61657656149639 12.324863783247627 10.72283098692626
Fe 7.8549649355837525 11.278492557659536 11.63269786922058
Fe 10.063665282187822 9.063597580732855 9.0832249663885
Fe 13.72244598945405 10.342338707151729 10.22145110987282
Fe 9.613594848155353 11.351593461254602 8.218206507331747
Fe 10.849781957255718 13.81032607757956 11.039493987972186
Fe 13.607674336125081 12.576923017840043 8.569878505426843
Fe 11.853510339682733 10.755291516754276 8.807121595104542
Fe 12.664762752053612 8.807466994853515 11.9833105223289
Fe 10.532352631787614 8.52674503036056 13.096745229058282
Fe 10.73351246393644 10.728793193915262 11.07237209547237
Fe 11.78306525998463 10.323790108287106 13.854616946152907
Fe 8.902826013901054 12.68300405201866 10.044699621560627
Fe 11.061280959666902 13.003843118053602 8.869704761967544
Fe 8.852900666440537 9.081191713673364 11.441250432097267
Fe 13.487640478293278 10.98437543280444 12.445203213113555
Fe 9.30622580110826 12.914376427903358 12.511411223937868
Fe 9.551951712152762 10.7343723628577 13.315983007565158
Fe 12.409271071611835 8.56113120832991 9.601368965942072
Fe 10.67691278542156 7.736925982906425 10.914729982794915
Fe 11.550690433775229 12.46934055792621 12.96300036877241
Fe 8.124534577686164 10.259265174068064 9.58539522427137
