29
Energy = -197.28827385 eV
Fe 9.823991480984406 12.082336236260518 7.485961043238071
Fe 11.841106989830337 10.903054772471625 12.69988812294034
Fe 9.352380800151277 11.393253696377503 12.154295247498565
Fe 12.562018282675073 9.132758176434457 9.29693784025641
Fe 12.221121900691854 8.154383899949213 13.645886631376012
Fe 11.530724011299405 14.992569878086977 11.97111756596061
Fe 11.99390329213603 11.528687841436934 8.60630188503301
Fe 10.74612740392943 15.322586301831581 9.855494277262002
Fe 13.773622380717686 9.702117193262454 14.510511038694329
Fe 14.276555375653668 11.239512221988484 12.861754686343122
Fe 8.97857737418816 11.506529988249834 9.763249229369562
Fe 9.24596870678685 13.89573384686716 11.39692327150673
Fe 13.033308385768875 13.196993977668265 12.407541840512193
Fe 10.052943444454604 9.185524984512906 12.991448680391684
Fe 11.344354769194199 13.85086722634939 8.08445275043091
Fe 10.502512003892589 7.696788830616561 9.194512720152384
Fe 9.041611568877904 9.132664986867104 10.677797622323698
Fe 9.12447924428995 13.840531442261323 8.95744960751378
Fe 12.868664752663232 13.904595885338269 9.989852630420932
Fe 11.641414985175054 9.698750214514897 15.33135381936155
Fe 10.139007831940603 11.217895301207642 14.458119139400576
Fe 12.580423755389797 11.987962248576707 14.641936367801632
Fe 11.052172089304243 10.291819555376511 10.626121744834057
Fe 13.372810859866567 9.197036260440857 11.695709202118561
Fe 10.188148348260045 9.847706127843095 8.377742044759836
Fe 10.732540036159307 13.188118102921246 13.30264005247718
Fe 13.319810981346043 11.414708991223986 10.624613454686047
Fe 11.073461256831964 12.611971505762897 10.73952946945768
Fe 11.335854084703563 7.937686562419257 11.359340170903684
