24
Energy = -157.00436607 eV
Fe 8.363490605958656 16.328946636439184 8.48392954423183
Fe 9.570664255172156 11.585997630812777 13.714564608849557
Fe 13.551379786840144 12.614700311849509 11.679142749567907
Fe 11.09749392918506 9.627716384237644 13.927200292094227
Fe 15.524358860408135 12.221686566837311 10.152826399959487
Fe 11.574110189218 13.477525524298175 10.656680122852814
Fe 10.136163524982782 9.834280845180796 9.692066017157575
Fe 9.689876622948345 12.168166940040143 9.757299766501893
Fe 13.63883136508692 13.152162847025872 9.205041146062953
Fe 9.520668103324603 14.653598305784035 9.894324882075662
Fe 10.66780523713059 8.511387079309781 11.676208058989555
Fe 8.406504004754195 8.72316551265748 10.901367477897834
Fe 14.197711537654758 10.80027853013395 8.916569730070393
Fe 12.88114475704463 8.970531528124658 12.494215990941996
Fe 9.578867699240941 13.198944494068256 11.917563535609924
Fe 13.154964157769237 11.071923984299525 13.530332822201203
Fe 11.500877073661073 11.635651300200433 15.129514297295618
Fe 8.493264039078248 10.99907363652015 11.473896155292763
Fe 14.39559997801409 10.362148507128186 11.343254339655978
Fe 8.856778850939923 9.344310483997102 13.152720881609923
Fe 11.167911439444941 11.056955161962005 11.682128496438905
Fe 11.628172901727416 13.042099614622645 13.214291975378917
Fe 11.9129311862798 11.464691137150979 9.153468120733773
Fe 12.523609055900426 9.276316796677722 10.093734075655528
