26
Energy = -177.01384014 eV
Fe 10.983785815593233 9.572636779773285 6.74889919731953
Fe 13.53986923152178 9.837428673906526 10.834043634743761
Fe 12.663132404650954 9.718882783338508 8.552449014237288
Fe 11.663060528135317 11.107234248457498 10.470836849137413
Fe 11.694350354594015 11.863955995333729 8.291843851604458
Fe 10.861193228327927 13.26721097460138 10.643239821164407
Fe 9.824546859849418 11.725552386564171 6.997297657817319
Fe 11.730729884451591 9.80797759363057 12.566433250289302
Fe 9.38369423420561 12.002207968648802 9.481280163788078
Fe 10.853053305330942 11.966334427162064 12.659308922436082
Fe 10.105006448405216 9.832698223188384 8.8027731743558
Fe 11.574076600335234 8.66665002887763 10.522469966692634
Fe 8.71881110028784 12.3713369878341 11.832583772258937
Fe 9.480163541727878 10.076821987019152 11.121180156082104
Fe 8.570620184383518 9.65697205008432 6.687373111235485
Fe 11.339437514642215 7.642477500045088 8.361602414804878
Fe 7.270323040404728 10.648004816181846 12.6540400154973
Fe 9.434112154998521 10.136888118876723 13.397942634777083
Fe 11.230305275740083 6.422964742978421 10.58249542378651
Fe 7.725128501397424 11.379467761744785 7.977860616705978
Fe 9.103691802140858 7.682678746054421 7.693052334684984
Fe 7.5691628931209465 8.68015134634014 11.515164859490108
Fe 7.1653773455100955 11.150175834606527 10.424171808884347
Fe 7.809312644538383 9.288146948529475 9.144728382126278
Fe 9.936222754270835 7.9647012547966245 12.282838764073892
Fe 9.376544670071985 7.697556537076531 10.045429455348138
