23
Energy = -150.21372825 eV
Fe 11.985567851597725 7.59276676328996 14.378527494385205
Fe 9.713714147129302 8.14620696057687 14.034646247259571
Fe 11.250353703662231 14.177283300284605 9.572176858092737
Fe 8.46912501839085 12.924406518754605 13.489249353588118
Fe 9.747468990084526 13.954789267311549 11.70532593969601
Fe 11.74441343649268 12.685901805460553 11.348747779265532
Fe 9.409901306176733 9.008400247826714 11.764028990995397
Fe 10.408022178527714 10.64153818332195 9.855151572290636
Fe 9.419916785692676 12.835316518273087 9.575243706198426
Fe 10.941535887133854 7.108297567294286 12.307741308962562
Fe 11.272268129371785 10.4768622540616 12.271392807214234
Fe 12.907227593569349 8.72903565937054 12.461862861049127
Fe 10.678907976873859 12.351988428475398 13.633523030524822
Fe 11.385591927240416 12.081923770887991 8.103478457578857
Fe 9.215224265568418 10.498306701500198 13.87033662926327
Fe 11.674055382245225 9.507125000299517 8.099051434084288
Fe 13.01000480382808 10.673981363781486 10.597240427369865
Fe 9.076653820658107 11.56823142701469 11.656666920477397
Fe 13.543639358373694 8.718749146510195 9.30558408537259
Fe 13.222961362492992 12.81559836104618 9.446002134215775
Fe 11.518482532770072 8.558746815644376 10.486106444957162
Fe 11.505545752721169 9.914200444360306 14.524305459785618
Fe 13.527530092262076 10.808538196994729 8.104244230103696
