24
Energy = -162.37017707 eV
Fe 9.840474900358116 10.619588000557716 8.791012202884858
Fe 14.161764918094743 14.715245570207863 12.86486468253914
Fe 11.226023821556872 12.183830242030968 7.617267882276182
Fe 11.707007639307136 12.095958373642702 9.847466807192085
Fe 12.14906914977951 10.144230832231315 8.545472369372913
Fe 15.025664384423553 12.78363938236184 12.047824715061395
Fe 12.290304804282979 10.83083298881909 14.56933094402392
Fe 12.102015758374137 11.945733580182809 12.254167456891304
Fe 10.204158762491506 10.484431243109283 13.155077495044878
Fe 12.200331967931268 9.285554802797504 12.84186995983857
Fe 10.647520914890505 13.881387824745437 11.02088140585326
Fe 13.095810709985324 13.983216145537183 10.869023841599928
Fe 14.020863419440227 11.930970881065372 10.165745430371585
Fe 9.520737149001446 11.721577434025633 11.152870031663706
Fe 13.013965156265387 12.024471678435757 16.448491689005664
Fe 9.490918305435258 12.927119915948303 9.098039097366025
Fe 14.164473884470743 10.707046113570831 12.797035362731581
Fe 11.891213165794124 14.367326147044047 13.020932546242758
Fe 13.20436483712649 9.865972107172656 10.69645719096957
Fe 9.867962938318604 12.994518965396352 13.232799233442872
Fe 13.684983773215132 12.774070411450758 14.15583183521136
Fe 10.899295407793362 9.844255731424873 10.829452455998618
Fe 10.168138441384386 11.524026034575996 15.226846676119363
Fe 11.548212316664292 13.281338700658697 15.02969381161329
