29
Energy = -199.32948059 eV
Fe 11.115684240595353 6.146612546868127 10.533659225597502
Fe 9.473394682862246 7.221969820865373 11.841238700380933
Fe 11.662846443667284 8.447106035765254 11.090371333164407
Fe 8.611000720198602 5.980884906052218 9.897263940599712
Fe 10.809646178656841 10.014789984127555 9.14298734785286
Fe 10.605227524515598 9.501424378280067 13.056959056227624
Fe 11.800798876910424 10.848708691405006 11.217760055351771
Fe 9.27134535386569 9.482465890064175 11.23732135606241
Fe 10.342994813675864 6.019833686943784 8.2585205039501
Fe 7.542780970681851 8.088725719307288 10.23322774923619
Fe 12.269063794401545 7.796044408140305 8.797097943928872
Fe 9.876055111527156 7.9761596398023284 9.440244923601698
Fe 10.736411258625088 11.878628033873571 13.066543720313701
Fe 13.18632314239764 9.861832650689436 9.485053063273083
Fe 11.533773573120314 13.2802502162155 11.199121192275797
Fe 8.493802489667885 11.343744984009339 12.699279759555578
Fe 8.328595499565802 7.618905836183 7.835028037878162
Fe 10.813275810428527 8.11479828427269 7.0188949011309205
Fe 11.927511354273763 12.134477209264228 9.09493428862171
Fe 12.028059538265838 10.189965730930654 7.3043887632979745
Fe 9.43923216516409 13.68630158595798 12.157767150504247
Fe 9.62369370509005 11.732753738121987 10.479388357536097
Fe 8.3884513318835 9.983713224289687 8.981319829889364
Fe 7.125071314210674 10.792075255453332 10.803299066733675
Fe 9.732614678930624 13.811948099192191 9.638242932717906
Fe 9.857959359677947 11.840760405961818 7.878180662386604
Fe 7.505595368783317 13.097191993078678 11.10218912637313
Fe 9.295420308154968 9.804072371349745 6.883710326371821
Fe 7.784935513514789 12.33476453948596 8.908640975372153
