29
Energy = -197.5150967 eV
Fe 13.204563855519654 7.313050461940072 14.491809486511464
Fe 11.049401952181903 11.674234348765571 11.80658433693957
Fe 11.713024510708962 10.509083558429817 9.089940664105214
Fe 9.099889198744098 12.3036049617108 13.269613092880247
Fe 10.117763175995876 9.88309334717126 13.261318970774312
Fe 10.050489655207189 12.133307416307279 9.450562546279771
Fe 10.671899227058866 14.12802898602434 13.09974838274526
Fe 8.793908563433506 11.08084981648764 11.294533381895542
Fe 14.889026938885916 10.398086864383446 12.224442335852894
Fe 14.139593212266046 13.710051448348379 10.396312578827978
Fe 10.60610235654624 9.405199253375784 10.913404505773768
Fe 12.657099319400894 13.769731319505652 14.312313596636214
Fe 13.607099226393444 11.40590379384647 14.668848850531285
Fe 12.002872447123035 9.385737722294296 14.883918777808525
Fe 12.623372423480358 10.18978436581305 12.710028226817206
Fe 10.618905985447123 15.682893809021055 11.161846999249114
Fe 10.332080215587808 14.543390179920298 9.129467260550387
Fe 11.823297951660491 13.52964834041494 10.845770821731916
Fe 12.964300348303242 8.911187412110365 10.619752394637585
Fe 13.432880182717206 11.37534826522119 10.46114787833253
Fe 9.18512564757878 13.609043855033953 11.16968674501636
Fe 12.899812583695056 15.088550462502047 12.226385020798913
Fe 11.690139583567126 7.976480575539957 12.731067630850646
Fe 13.611346528358535 12.562485637708319 12.490130444855962
Fe 12.332443083727483 12.890582858017355 8.669933439023515
Fe 14.509793058047938 9.237374081795098 14.39086425259147
Fe 11.25122574134678 11.8333023414089 14.330606102107454
Fe 14.189554020197841 8.008999496373102 12.460300363580158
Fe 12.516955148617797 15.419123769900617 9.667796989869991
