20
Energy = -134.23524282 eV
Fe 10.366881476122831 9.962098346024662 6.5766416289990905
Fe 8.234284340493906 9.853628326098221 7.59152156275785
Fe 9.827432048431547 8.070205695645443 7.880507743519762
Fe 9.634937828320806 11.963652861763254 7.661045857309199
Fe 9.86080735602974 12.872458115259173 9.922255261090548
Fe 10.506666974630534 10.316460917625928 9.063655203897092
Fe 8.04744994444803 11.478040043944574 9.34672464158971
Fe 12.192726692968915 9.25146265555924 7.83491719815705
Fe 8.46019068848973 9.071975745331638 9.796193459134726
Fe 12.60999578001457 9.584012715867765 10.259995444449302
Fe 11.579618347557373 7.6225776416458775 9.360908941476447
Fe 10.595253070742947 12.459946146104869 12.343304400373631
Fe 11.847862944446277 11.817321140770856 10.389603998479721
Fe 9.431342816685156 10.872074359751199 11.252331977396107
Fe 10.627047228665175 8.790177546985847 11.326383926575385
Fe 7.305511976555842 10.257262390303087 11.570771858359047
Fe 8.503642139446972 8.390155695249415 12.146101184604301
Fe 9.457503957329209 7.009603541550144 10.198925442638997
Fe 11.772864739486039 10.504684565816888 12.497794556864111
Fe 9.507864850950211 10.222086750516997 13.350300914144032
