24
Energy = -159.79207988 eV
Fe 13.412730668541544 9.778871788331758 6.982393437612237
Fe 10.089396830756474 10.867555305909368 10.297964656933829
Fe 13.784273010636015 10.60139228246601 10.760471924791913
Fe 14.097696246239817 11.413314538823027 8.53658827700015
Fe 11.882211737303152 14.248004239955357 10.987599290152206
Fe 12.033325579376761 9.872102205388451 8.959503491426155
Fe 14.009836746079245 12.94103082750859 10.625467132317683
Fe 13.975778227301022 11.738210523107824 14.709208524079404
Fe 8.20393285866166 12.285921905671271 11.082756908863274
Fe 14.860772920634004 11.74320220765146 12.569163193623138
Fe 11.828091548754223 11.845056314546268 11.998604233075332
Fe 9.491235219918376 14.195808340209897 11.723550944442236
Fe 13.158054682176463 10.054997632509382 13.220166709182834
Fe 12.738261263278364 13.654549756408711 15.139175732887582
Fe 8.433393304576475 10.217921734961742 12.154793305488788
Fe 11.955184660914572 9.248298160520008 11.22996996963318
Fe 9.893281001563736 13.294343348025862 9.67694074976313
Fe 11.131127623686375 13.91091880868888 13.407590640916974
Fe 13.50357431803353 13.727707892412838 12.904275204307451
Fe 10.616255339287385 9.828170702313985 13.09619242485081
Fe 11.56609405366951 11.682786716615093 14.526765261883291
Fe 9.754471760617013 8.638144512619272 11.069126312153433
Fe 12.04133141839132 12.29769795509422 9.43981276615614
Fe 9.46110194169576 12.101891881548408 13.183862621601673
