29
Energy = -197.85079355 eV
Fe 10.524678997106802 6.957302112459499 8.202804044822967
Fe 12.797289314438947 7.713204322020189 8.515064660895147
Fe 13.34471640103239 8.60651297041667 10.72740059017932
Fe 10.9810614813667 8.783553431647396 6.744371378909429
Fe 11.21512990788937 7.270217768684494 10.650055213998096
Fe 8.672545118518928 8.007512227115624 7.21239736798288
Fe 13.14234529060743 9.549517584100924 7.141293111639314
Fe 9.102196144510135 8.247247702482184 9.627153458680661
Fe 11.296980252232538 9.334295620203777 9.234123590511963
Fe 9.276617394342363 10.20327816716157 8.01174865897358
Fe 13.357296653711385 10.558831563079128 9.215689885370313
Fe 11.494519380479057 11.179362783268358 7.336570592527487
Fe 12.111545343918843 8.249323788338657 12.704291717714906
Fe 10.061343563055061 8.816850785017627 11.709316976191015
Fe 11.992887345919959 10.347395748090133 11.346985899131864
Fe 7.6088784918472765 9.421203690779919 11.164829431929244
Fe 11.214554165465556 10.257486126347846 13.598090642727035
Fe 7.064702311492911 9.140575075125822 8.672009904052144
Fe 11.345087496315486 11.99433539123434 9.551401245682364
Fe 9.494687926887558 12.53371926532576 8.134138817850326
Fe 9.511536454536365 10.835127984661021 10.459170753072293
Fe 7.493430622120439 11.518831725645326 9.223387878338361
Fe 8.909445043788406 10.697943990946616 12.924138078735385
Fe 10.832522358191287 12.396269694733991 12.038297743247727
Fe 5.694568104683541 10.292978903480742 10.186381162307532
Fe 9.077803291681679 13.215169614367941 10.383820868284749
Fe 10.01998041245993 12.228949007970714 14.231830960112
Fe 7.124694513742729 11.768496380196636 11.555407647952396
Fe 8.588401623483987 13.194732116703554 12.70545369523375
