28
Energy = -192.0130291 eV
Fe 7.275058986489514 11.16521994489142 15.249641363768275
Fe 10.588233143228306 11.382327658444028 13.330870253043607
Fe 12.166039970827244 12.442979456503146 14.911122350563838
Fe 11.382801946117576 11.319445197186491 11.042529803931599
Fe 12.261582014959851 12.457532751163393 8.654495937545471
Fe 10.163260706678805 13.776251384161867 13.935043726901634
Fe 14.0546739184598 14.041787109774797 9.54146659527703
Fe 9.021811846151222 10.63288769502393 11.510205309467684
Fe 13.54885291417073 12.038225364058382 10.92578023358908
Fe 11.692159531378085 13.939058091033369 10.265119941801913
Fe 12.877977293901944 10.83740532629702 13.144609566497556
Fe 15.172312624356472 10.79034170165277 12.348199248003143
Fe 12.666969373550321 14.554372483722005 14.148026200061452
Fe 9.983480172766464 11.738733400605032 9.355755559451888
Fe 10.650138409417062 9.330313722686935 10.1192861658283
Fe 12.771610813726676 10.252106795903149 9.105353845001364
Fe 11.949179176326101 13.159809583070532 12.466537688625793
Fe 14.683170568109942 11.883919799448455 8.707425724653532
Fe 8.906979811023023 9.942431537536553 13.810958145894958
Fe 15.082296118553176 10.142735047683662 10.114375647357502
Fe 13.092457413144803 9.437299742138757 11.268843545429819
Fe 14.28353272754209 12.82786964197163 13.329390711224095
Fe 9.562491815020982 11.99471116246438 15.26006420627079
Fe 9.66482394885383 13.053297561154972 11.54680954207902
Fe 10.981207769503701 9.195248457850216 12.475755767422044
Fe 15.672141080629519 12.723242772183632 10.882785256324398
Fe 8.220345508661374 12.221201076461961 13.24320341039998
Fe 13.760064720264527 14.508587381198167 11.789426400037906
