28
Energy = -188.74564726 eV
Fe 7.463508589065301 11.11123313893907 13.023660110654141
Fe 9.144276913863395 9.457493182709289 13.219016922325606
Fe 10.789979531711683 7.773853110698672 13.158247021751286
Fe 9.229062936289768 7.681349232595335 11.43516546922777
Fe 7.637148468043776 9.58041757317948 11.239905427166233
Fe 6.096418926616109 11.06381921404667 10.964288714206205
Fe 7.863959895508646 7.657293976341328 9.306568372163484
Fe 6.493248346007029 9.593363670431344 9.093938499685166
Fe 6.742093617057018 7.9598468633995525 7.303909439545825
Fe 7.639821172781967 12.83053745692029 11.421231994007382
Fe 11.912983124768687 7.24503380323981 11.172877655398015
Fe 9.339317529235586 11.287459375803232 11.543167527588247
Fe 10.84901096885283 9.40007720287159 11.411851119429397
Fe 10.487622051623232 7.3772046321270786 9.311234916348456
Fe 13.007714738663784 7.031500393648806 9.053494995755038
Fe 9.572822566757068 13.267087327696668 9.883602712001732
Fe 8.050141772483105 11.559920469461273 9.450134685366175
Fe 8.141518950422276 9.836892200178848 7.3961289868936895
Fe 9.176320765087723 7.717628683726766 7.271419589386392
Fe 9.343748519710138 9.512502230531958 9.431067610385371
Fe 12.157947511465778 9.166921694646257 9.393362667281263
Fe 11.663860720465777 7.227111212198629 7.2615066427112085
Fe 10.803326189358256 9.492504888869748 7.445933857765602
Fe 10.953882131728024 11.265840055783116 9.719041227739652
Fe 11.40543894810658 13.251117426488934 8.413665443156368
Fe 13.300426780131602 8.987427810124204 7.37947497699155
Fe 9.772775560468782 11.720950972161473 7.689986300420663
Fe 12.383519345855445 11.245728113196217 7.806500193418798
