28
Energy = -192.0616546 eV
Fe 9.250054291537776 9.277710197793496 5.929979878543493
Fe 11.280661950241512 9.339754256865154 7.210771414686675
Fe 10.161961527995533 11.503679613582399 7.040847489422958
Fe 12.12542387746634 11.16889483644333 8.592306656334081
Fe 13.228774311431117 8.793690999904287 8.496986766281719
Fe 9.531772154573135 7.665968382619152 7.7620860928165465
Fe 7.7557269061064025 10.993408893344906 6.553012022637244
Fe 11.75030349244718 7.0388064427357 8.517815201619147
Fe 7.2630670623940095 8.630036161710764 7.1602186489871285
Fe 13.144793538616272 10.044227576305248 10.431671370876455
Fe 8.986744978820049 9.868684889778109 8.367144362974475
Fe 8.368361066874346 12.359829391156554 8.369674381780866
Fe 10.114726046077633 11.475211647507436 9.734880146900817
Fe 10.874556282752405 9.173603376580331 9.489910251817344
Fe 11.8465821412028 12.07841417559289 11.10972526020818
Fe 12.303685012299303 7.746675284813838 10.724710236291132
Fe 6.690253598737138 10.375848169568055 8.693610867928987
Fe 7.643984958801612 11.57162452958649 10.554968052929526
Fe 11.201219174814407 9.926128064294252 11.745062033707395
Fe 9.820217811967122 7.07879254524185 10.191084083256214
Fe 8.948397720512897 9.552276345206085 10.830967418490149
Fe 9.547040284786144 11.719410885111401 12.132671694084381
Fe 7.696997344742021 7.996264825687114 9.44815085483523
Fe 10.359927975043982 7.732262736444869 12.288102088615828
Fe 6.386323337221412 9.31672031912066 10.877739087018597
Fe 9.448721262241149 9.691764626850214 13.378843834540573
Fe 7.394012428014775 10.45380404558233 12.657077136953239
Fe 7.966182787078672 7.932339083729555 12.11061845233155
