28
Energy = -191.825217 eV
Fe 11.348766210694546 12.868733923614455 7.628626296292416
Fe 10.744509995149789 13.322181821422753 9.882807084080818
Fe 8.983449209950686 12.773377292124428 7.913257478124529
Fe 9.967544824251462 10.988770976560453 6.5381778951375535
Fe 12.189177813614618 12.417161087448136 12.045904630431231
Fe 12.516599258319385 10.913661652552118 7.529372721665298
Fe 12.539450711310124 11.816593369979639 9.714746202866925
Fe 8.569326641645599 12.42665654479575 10.241091033848047
Fe 10.549412664811447 11.023132173384978 11.061616658955746
Fe 9.92154774291393 13.120170341206286 12.19305845341162
Fe 7.860982146378644 10.69226823608512 8.259667465162384
Fe 11.296028960851316 9.041441779041724 7.053533524666735
Fe 9.222442266968805 8.66081060658904 7.9538678586249425
Fe 10.284499472147068 10.857656435403428 8.769963583845264
Fe 8.349793721011471 10.117081505516738 10.497184233901706
Fe 7.734483901950678 8.017158969837592 9.837990024415161
Fe 12.178908902388974 9.38502296333159 9.56518697156951
Fe 10.134993738855872 8.774518558078494 10.084758919608689
Fe 12.411973669356565 9.909415512079352 11.945296070289485
Fe 10.802354694733744 11.096652061565997 13.538594980498697
Fe 11.413590345586869 7.283687323890071 8.625141367198404
Fe 8.52466766493422 11.193530875905678 12.66359474281257
Fe 9.43486465656495 6.434952014171262 9.370852502750443
Fe 7.779776558121454 8.721862358788325 12.345615470558121
Fe 11.480209658771349 7.263855423018426 11.060902690882548
Fe 10.146102636165528 9.010845652090033 12.422064605921088
Fe 9.195143693202269 6.915821355964955 11.638449382997074
Fe 8.9667500946213 9.531277874382095 14.277461974407533
