20
Energy = -132.18083383 eV
Fe 9.956122620220912 9.907045295721916 8.548544561662174
Fe 12.324969788542314 10.914503845460803 8.762033538774203
Fe 8.283572799200346 11.624971754538793 8.476102468011007
Fe 10.60896770711866 12.402395420952436 8.246679730518204
Fe 9.779629174964075 7.657935811748365 9.668116160217643
Fe 11.500551067940577 9.200578055525922 10.185503074376866
Fe 7.645715867467808 9.218876168756985 8.926193666152916
Fe 12.114532698314445 13.064895893068009 10.011218327079682
Fe 10.208037362538734 11.547996264969099 10.310070733368994
Fe 13.78105061954754 9.218911998081559 10.074471339778075
Fe 6.121245966288763 10.874032684277635 8.754403282796522
Fe 7.490443071175981 11.125902787121854 10.615276827357892
Fe 12.821539692743544 11.086416716268213 11.151636439045603
Fe 10.715909400879255 7.710310414746518 11.810095297937947
Fe 9.100713669147975 9.454181375258532 10.740888192146866
Fe 11.24172017592028 12.56457316180112 12.260911418735624
Fe 12.897590181724867 8.817289235145287 12.244447805127594
Fe 10.749161492540125 10.065604124500629 12.44526528885551
Fe 9.04456241218099 11.649125762846275 12.34133248320076
Fe 12.639233171648272 10.919722169314953 13.452078304961718
