24
Energy = -163.78120975 eV
Fe 9.745320349299114 15.704369306208237 11.265947693499514
Fe 9.472861722534924 9.669957573719149 13.302801874865125
Fe 15.172468097305652 11.26699474803553 12.537777798000468
Fe 10.000814653675192 11.571486881225082 9.594605164791028
Fe 13.64622151946278 12.07566485324693 14.297423282984226
Fe 11.972142139929206 10.022533900083431 10.13206346740165
Fe 12.046703910802204 14.83531830802531 11.509679939892498
Fe 11.744247932589268 13.020177835794192 13.169120037773766
Fe 13.962792536513629 13.27227306068667 12.122920434061081
Fe 12.2569938578509 12.005447738984499 8.559142180550348
Fe 11.569221712764579 8.883749728987471 12.462259348083515
Fe 10.903782626461638 14.05616814724866 9.479199522833529
Fe 12.991819887671056 10.88524457976946 12.206430422416872
Fe 11.473152349060182 10.787777676251913 14.324287635251034
Fe 9.770786433399806 9.322018709303897 10.706176893298503
Fe 13.484822532466396 9.63363463785749 13.999144888843377
Fe 13.520003004019033 13.963589002904728 9.802045768377095
Fe 8.403039521937764 11.27510040553544 11.409848350155686
Fe 10.627412981364198 11.101282838687684 12.03015141602508
Fe 11.964846760663352 12.497157319633661 10.781043629852917
Fe 10.115944496968389 14.928348774915227 13.207224203781859
Fe 14.107342127882722 11.56121289967764 10.16730681493754
Fe 9.443732058536709 12.300452624834833 13.619722419363912
Fe 9.740020952701054 13.331065997105275 11.448891582442815
