25
Energy = -166.2118141 eV
Fe 11.798990848213206 10.335292224910393 6.582897376781054
Fe 8.338541861970699 10.752662354006269 10.982854585953937
Fe 13.402094474301917 9.850446582424407 8.329743090088419
Fe 8.158725359795566 8.450606741317484 11.303281439333237
Fe 12.768535767629299 9.858851847003457 12.402955877146324
Fe 11.496212283828623 8.424866745427718 8.103892435839052
Fe 11.189583064752613 9.143928716403979 14.022078001811806
Fe 9.864982972645898 9.738194071825445 9.498196529383819
Fe 10.242413256218375 9.278306067601916 11.978652188458172
Fe 7.894517171922938 11.059859309519076 8.413514908885157
Fe 9.080162887633849 10.914568154605195 13.203905995224401
Fe 9.678368032954756 9.49673060382365 7.186245796627771
Fe 11.845665030329114 7.5993391447804886 11.956012273039967
Fe 9.362853640676711 12.856514955808706 11.83844233841531
Fe 12.152803576849355 9.181787921723059 10.259994902944289
Fe 9.582085070319806 12.393670368447333 9.475854894270327
Fe 13.184546116773555 11.362425904785214 10.439299243586422
Fe 7.901840837577018 8.673018924056345 9.02525376559837
Fe 10.963381542927284 11.334044323316204 11.118238229388105
Fe 9.909414323118066 11.869145950066285 7.177478783447126
Fe 7.373202366240102 12.647622577804022 10.129122854266063
Fe 11.343647082968731 11.4487539632006 13.362861760679328
Fe 11.600203563802529 11.183593469674816 8.707126423238352
Fe 6.357658184114069 10.251575028609984 9.963920224301464
Fe 10.140262370675922 7.524885737098388 10.168867769532168
