20
Energy = -135.05307299 eV
Fe 11.877612871295332 7.066230727408223 9.591825801600297
Fe 10.293685845666339 7.813062678115131 11.944396753397397
Fe 9.712014332312284 7.32634966909026 9.88526989305547
Fe 11.529594295225948 9.180479178390168 10.461991383074809
Fe 9.658451130173306 6.62991736349747 7.69478769433378
Fe 10.923824298342682 8.602740691090881 8.060505145097315
Fe 8.463388221424987 8.99092062354971 8.465659921665443
Fe 9.091751904823056 9.557460218990224 10.937374026781939
Fe 7.681882691064591 7.655855387465866 10.904245894400745
Fe 7.670599037278597 6.311990236673895 8.94173092429732
Fe 9.37041815776736 8.22377268573722 6.021132024647383
Fe 7.256665616404323 7.599030117012032 6.979222488867268
Fe 10.208141086829006 10.717374728800996 9.074656182305567
Fe 6.546263006087775 9.62948609865051 10.444710372786316
Fe 8.027126495395132 11.318813937665452 9.828130076977915
Fe 5.996161210001112 7.912154153389563 8.99582894242608
Fe 10.070692899744959 10.357659092975604 6.695041253314634
Fe 7.63812512526817 9.800180231425173 6.106630291260772
Fe 6.359074260983241 10.130658285779688 8.11142295896503
Fe 8.271651882644278 11.52547136430182 7.539199895755437
