25
Energy = -167.25296474 eV
Fe 10.092078673976264 9.722058904609575 12.513733530601625
Fe 11.458337597688788 8.739020861449454 10.65641332107722
Fe 10.314698195888985 11.193612809850727 10.444262792393937
Fe 9.911547682338746 11.98941064571422 8.205135644297684
Fe 7.906518158643838 11.849116309829425 9.733610706255387
Fe 12.064434630139038 7.642327351235159 8.63170841510232
Fe 8.226911277358992 10.933108360912383 11.860413356693392
Fe 9.809203912524065 7.435824610170498 12.011295145340439
Fe 7.872432331636327 8.675144938801871 12.452039628983078
Fe 10.290798925753503 6.433527409889337 9.978724066485915
Fe 11.374161440736108 10.058162058933396 8.437831903355807
Fe 9.759923634421545 8.161904536802297 8.504437054552508
Fe 7.81986066814646 7.117151734924665 10.446394439082807
Fe 11.163561277266947 8.396990440838614 6.562925252004737
Fe 8.536837178482642 10.062794288909616 8.404662253564787
Fe 9.721543352577205 10.297290369308326 6.3881739095133625
Fe 10.521869651792967 6.278322359367881 7.4304729818977435
Fe 7.874233121415766 11.876629717614591 7.176245692565843
Fe 9.062740093920683 9.159615923702297 10.530171757291477
Fe 6.68125949462035 9.58512144953684 10.444929837853728
Fe 8.400822954845202 6.207365950601875 8.303481691868525
Fe 8.741866296005849 7.810951744084299 6.415167290115306
Fe 6.2391109287955215 10.575531811573 8.324181895282646
Fe 7.297546278379472 9.718039324729691 6.376584683321337
Fe 6.931365661475629 8.154312881787042 8.312305387244301
