25
Energy = -169.48334459 eV
Fe 12.802451603076147 9.173233818550093 9.405214880300717
Fe 8.949801586182334 10.398091541902673 9.476356885231198
Fe 10.318707815635445 12.372534691697322 8.601475972846984
Fe 10.690330954372389 9.91319997277307 7.950898437770189
Fe 7.584721550231586 12.179892505125645 9.140165200154717
Fe 12.587776032379303 11.215651382555464 8.232715777664216
Fe 8.669045888444348 8.314682122043273 8.466695722754423
Fe 8.720550652125166 14.119126612334044 9.043023629627532
Fe 10.730402307129626 14.31080589420216 10.131734402515225
Fe 12.673222056653222 13.037256546611092 9.597045947329658
Fe 11.853429949410652 6.829828461729885 10.613941647733693
Fe 10.547375578601246 8.61223226709908 9.888081463337489
Fe 11.216086793297382 10.976142712244439 10.417957279880495
Fe 13.515051338929231 11.046590531994974 10.760479822481368
Fe 9.461694415449132 6.541034590235942 10.07983009632621
Fe 9.305016313932079 12.509352560360568 10.878408508281847
Fe 8.12816491735546 8.382343299970984 10.773417935450862
Fe 7.586299059688922 10.940422053177844 11.342497142790203
Fe 12.12883631750335 8.918183369292974 11.744762248497995
Fe 11.789785246275684 12.92134685638032 11.787260057634377
Fe 10.117834178287938 7.490074522001726 12.150540940350119
Fe 9.646728943829103 9.91432266165149 11.859754813217993
Fe 10.034628194758513 11.839906045182488 13.044269613141877
Fe 12.236029710230937 10.887651513979533 12.93847590017335
Fe 10.797171386438022 9.247236257121683 13.766138464725566
