27
Energy = -184.99052425 eV
Fe 11.683736601418737 7.074498670876569 10.405444399927841
Fe 9.363633660986743 7.166278515015325 11.184944628027392
Fe 11.387642462213297 8.309132632651727 12.444924900026916
Fe 11.047570282374759 10.149451859843746 14.016477561485464
Fe 9.149377574220532 9.275514608050587 12.431953549155653
Fe 9.87326678151049 7.271322578273282 8.757991288226119
Fe 12.124842584463057 8.567406737694474 8.58314626074486
Fe 13.16289571309943 10.407369559485911 12.903998215330812
Fe 10.336755512962181 9.094656106653426 10.224202459221873
Fe 7.88740789739806 8.830634097310396 10.123753578630222
Fe 12.856107084903496 9.316964972660537 10.681263043709464
Fe 11.183960887694264 10.614763456800228 11.699054681031656
Fe 9.65331814431073 11.823943264208497 13.064802153066353
Fe 12.045618713102948 12.433497231000189 13.05620045924276
Fe 8.946884801596562 10.235459893314708 8.617695783039451
Fe 7.085761241523445 11.432363398102014 9.688466920792788
Fe 13.059239448075814 11.805455482349736 10.703561806153434
Fe 6.527378534525561 9.929754934561409 8.039998102371596
Fe 9.097181504852585 11.146991569339116 10.837464076395076
Fe 7.917350381956953 8.109109447343082 7.718665790243841
Fe 10.307084239370665 9.095816668200987 7.197074728105192
Fe 11.300297326431238 10.997229497277939 9.155080956674169
Fe 10.93104033055341 12.87739019492571 10.993387294807444
Fe 7.682756180381554 12.032185107617469 7.391380164437651
Fe 9.30999240605231 12.69956094286977 8.968783198661695
Fe 8.252018897244906 10.042434166806727 6.268537038346161
Fe 10.16089840404151 11.596792198705991 7.055827023166944
