21
Energy = -141.34443671 eV
Fe 8.444624455707231 6.930473146966289 10.13405428003122
Fe 9.143596539865035 10.39752212978525 6.571584727894083
Fe 7.549453292973929 10.946950471836587 8.328539727299086
Fe 11.37727371424315 11.15781230466903 7.212368000573017
Fe 10.801998270443585 8.727357644621478 7.38116523222163
Fe 9.814072360724891 10.428556325619411 8.82318155833761
Fe 10.46621765813302 10.506220301272839 11.207003896112798
Fe 11.179218189923711 12.17900455047954 9.682506017277442
Fe 12.160643185199037 7.351759500492492 8.887845307581173
Fe 9.350267573425896 12.4775144965123 7.930095471958475
Fe 6.6300759578139585 10.830834527358295 10.854928804513738
Fe 7.1173417805838115 8.349021489535767 11.82408334835383
Fe 8.208156547449683 10.401403727155268 12.450722425523956
Fe 12.116561014143818 9.84994108097518 9.169955780151913
Fe 8.364548874133948 8.516472636448004 8.054651000115005
Fe 10.351730954858525 8.456697930064037 9.886577832595293
Fe 8.194302269758651 9.42774473267341 10.165251274530187
Fe 8.848525188286063 11.91478834510453 10.447354233551126
Fe 9.42945843124674 8.330838640639021 12.100416418739082
Fe 10.000748479361416 6.6195939922650435 8.314163490821109
Fe 10.658611427535531 6.406918191337866 10.78097733763
