20
Energy = -133.86024462 eV
Fe 10.225759400567606 10.65659040272309 6.523517673486079
Fe 9.673380132426107 8.29315814970212 7.559996645560664
Fe 8.070022708047327 10.28049378659512 7.579327364431366
Fe 9.379875282499793 12.28898586800082 8.05064557475736
Fe 11.982877326426253 9.498774791567868 7.568401446367915
Fe 11.793949004703203 11.764576664872916 8.26080885662685
Fe 9.535293115071239 7.4503742467054295 9.821330951131168
Fe 10.03659171786839 10.09725262211917 8.902946445489048
Fe 7.811781568001397 8.904311715368156 9.542831935871758
Fe 8.104855208108201 11.296391697693174 10.012045534269392
Fe 11.653261803765261 8.175247380270388 9.527197047924997
Fe 10.44277716421807 12.084022184338902 10.28891805761255
Fe 12.234426529965045 10.318428684519041 10.15304834920531
Fe 9.779487494263105 9.615470155106845 11.063234648115952
Fe 7.625854928208133 9.807083958937852 11.896287490054764
Fe 9.091234848129973 7.779007261384616 12.298300952196737
Fe 9.059596669141039 11.602797294816886 12.283229202866792
Fe 11.609496552448455 8.68786203506368 11.987605568085254
Fe 11.387815489391773 11.06713361711924 12.302212801004508
Fe 9.644080393872366 9.47445482021754 13.520530792064136
