21
Energy = -140.44467299 eV
Fe 8.181715126202047 10.288630102305543 7.208919494441181
Fe 8.298977367611268 8.103235959046012 7.98200711903889
Fe 10.557518614082456 10.12194466925883 6.710836061250991
Fe 7.279197516041626 10.991820778813818 9.312561273696645
Fe 8.844698813851316 12.401501482208626 10.198479204332624
Fe 9.241608292027776 8.425848487510553 5.921582153094515
Fe 6.217833427629606 8.983932275502196 8.41220458725699
Fe 11.976897997652662 10.203770443997268 8.581899505437649
Fe 9.839739897634106 11.872107535360692 8.186821661331413
Fe 10.785619871444569 8.047009578794393 7.80530277398542
Fe 13.015008014428476 10.045674193531887 10.73392058996983
Fe 9.513422358957076 9.755315940345772 9.355756520204345
Fe 7.49979960689896 8.795779855778397 10.417882735111109
Fe 8.727976996885952 10.605461408990426 11.636728268432256
Fe 9.445620461727131 7.018446674428962 9.699205314170595
Fe 11.002949670489626 11.402966434529798 10.409348222394325
Fe 6.889295631020287 6.7392412102644075 9.155856447740048
Fe 9.479755984981741 8.299387321153244 11.714719668159507
Fe 11.124846092748871 9.914254596742955 12.17975903383597
Fe 7.7510192201721075 6.631608095166844 11.30768317498735
Fe 11.458138115163614 8.463147045756171 10.200401136265318
