26
Energy = -178.35319346 eV
Fe 13.488640003585266 11.48496912576865 15.073129364623217
Fe 12.599675502699128 9.454765553730786 13.672260069609528
Fe 13.971060589541326 11.242984440549929 12.820835706149783
Fe 13.673548624345369 9.135470657922106 11.593047037535289
Fe 12.52004295182268 13.1176245591842 13.26979896586653
Fe 11.270588772230049 11.330806424555647 14.141383372103114
Fe 14.18878051807439 10.957304314818261 10.20733433430814
Fe 11.966543870301408 11.068553281432465 11.59687236142863
Fe 10.247300655763308 9.228488227837106 13.476198923728656
Fe 13.591374494825809 13.01841911422698 11.17007584612897
Fe 10.164664454640558 13.206489387954226 13.042665481904027
Fe 11.20603090603528 8.789685288223675 11.39025823120621
Fe 9.621629892619069 11.087447884236214 12.193369244367311
Fe 12.351074128551984 9.607783647953012 9.494350476507092
Fe 11.11275867739415 13.219388396812285 10.905818681124153
Fe 12.307325651844616 12.050390738153183 9.223518936969938
Fe 8.869808474465035 8.914182392759917 11.223701457782177
Fe 10.176051806986543 8.695907290589773 8.870140102699942
Fe 10.053438035712043 10.850616972663966 9.863833039911102
Fe 8.780709724083202 12.986583555815978 10.806714284371557
Fe 10.118169761350403 12.753471618404431 8.431440913564249
Fe 11.430174343742955 10.610812103250932 7.554756765177694
Fe 7.58875618588656 10.919126465568434 10.967886366847212
Fe 7.96673271782858 9.50669794754837 9.04422984529309
Fe 9.21576185064787 10.587798701071657 7.352989298573289
Fe 7.9314309172415935 11.953606708752979 8.79950133817969
