26
Energy = -175.5362248 eV
Fe 8.47937283762177 8.39689106184633 13.71751169701872
Fe 11.559409011237136 12.366221623347796 9.879292030004958
Fe 9.782601820663896 10.301335518257691 13.686242878785055
Fe 12.496803817145981 14.056571008479398 7.867994664354899
Fe 10.723287290516188 12.501929798594741 7.67900422503158
Fe 12.81872090562889 10.277397798393682 10.137566182125935
Fe 8.778979136936677 9.59677910082219 11.530632896414652
Fe 10.892280646214653 8.648039647327781 10.056809795617447
Fe 11.16710693926927 10.477814521526245 11.83284254041085
Fe 13.6342635226657 10.32880922734598 12.440733792429654
Fe 12.670688373917393 8.313114753641807 11.652104980476087
Fe 10.320573684407782 8.021832486765154 12.256936875123868
Fe 9.856313378106096 10.700106733026697 9.52813527755127
Fe 11.798884445232174 8.94692467808082 13.80929959483273
Fe 11.661852008223365 10.324840126706196 8.048971452545219
Fe 9.141177221957433 13.059175861838051 9.43583006860793
Fe 10.48256218662997 12.580472144205936 13.48911541667652
Fe 10.7053096102386 14.732056339177982 9.11680830380098
Fe 13.406829765756274 11.962183942279273 8.271648074536792
Fe 14.257578752187433 12.151556790046499 10.482146344893122
Fe 6.862975742133466 7.5631070560216855 15.095900939887294
Fe 10.707069978865466 14.097992087386551 11.368903899475765
Fe 12.23497659944817 11.214424591450937 14.146645764849847
Fe 9.307652435912928 12.0309784719479 11.582463959592138
Fe 13.012304490829765 14.218438103396942 10.171796689039539
Fe 12.539763716046892 12.512703986812209 12.068677796272082
