21
Energy = -136.84387816 eV
Fe 12.45622477371205 8.121725460619441 14.018549033083731
Fe 11.651701096982244 10.683736365596163 11.39236852256322
Fe 6.455185442277936 9.791873869767052 7.282210901151836
Fe 11.213944496617273 10.418648415717321 7.490929929933642
Fe 11.952204290961511 11.769850886932229 9.2458820382259
Fe 10.767977578557307 8.235265658349453 8.133811912842026
Fe 10.914424660701851 8.14448977978972 10.669754625363963
Fe 8.884265023648535 7.744124829317685 9.468829877103946
Fe 8.836781917601806 9.596762602915263 7.499856180429312
Fe 8.578878909855062 9.070049539325096 11.473991848363474
Fe 12.869285467973269 8.706644332687436 11.90421832436142
Fe 7.36098300967607 9.563927591288966 9.432421718144308
Fe 10.697055291109653 8.981550386285177 12.892153575746534
Fe 9.511178935806656 11.067734503842335 12.335614399332814
Fe 10.096049308420998 12.539578895848909 10.49680837795288
Fe 7.60109996252288 11.704328502530924 8.227570838412978
Fe 9.665623627906118 12.199404705996047 8.124422077800887
Fe 7.507329731656784 7.789720053449854 7.567153941715089
Fe 9.88920610076512 10.202911101761668 9.657450616449763
Fe 8.008158325086567 11.541670777578005 10.612582913709483
Fe 12.432274756997328 9.475834449238274 9.423251056149114
