24
Energy = -163.74912391 eV
Fe 10.66993379077117 8.098685736037494 7.568244643527458
Fe 10.26496634272592 10.017878077959347 5.990528236476684
Fe 12.421291658463439 8.32054266563778 9.266513555600888
Fe 8.544353411471507 8.418948845555954 6.087419437227934
Fe 11.509650995786192 10.43679229421287 8.033430489170549
Fe 10.293883387046932 6.9999124475568975 9.903528588288534
Fe 8.518343700551501 7.072004266286831 8.160309500148426
Fe 11.74920980092024 8.34578594149756 11.574938406845819
Fe 12.350807739362823 10.596152531125458 10.282546908194735
Fe 9.49685295394389 11.915472529291009 7.343164206926419
Fe 9.076804674993957 9.757412179126634 8.069627954898438
Fe 7.68104487621838 10.65729867027504 6.386123252413341
Fe 10.362909251611498 9.305461387271388 9.909246560100346
Fe 8.117218527553787 6.524605324936816 10.779144649557452
Fe 10.035114073227232 11.613266179629486 9.698212752866707
Fe 6.754600517934736 8.929655402644531 7.796873020455905
Fe 9.390069619897226 8.351192401024063 11.980760173983645
Fe 10.683489281709564 10.5184314660802 11.961601119959315
Fe 6.2768592209061564 7.251901829766692 9.466193174847124
Fe 6.93851129006437 8.55525664587531 11.739271461120186
Fe 7.511378999232211 11.202370176416894 8.88734860209382
Fe 8.177798825132859 8.610097428377474 9.832957487275982
Fe 8.32636776604586 10.575100040489712 11.074902851771364
Fe 5.965843756406603 9.714891141057812 9.962568446818901
