23
Energy = -155.40641045 eV
Fe 7.893755948924997 9.69090052373168 12.34960071895071
Fe 6.738190033859137 8.269045660099422 10.382760392859002
Fe 12.448794892999038 8.691864361537096 8.697387748780411
Fe 10.221582081538923 10.319525728182716 9.271127398533668
Fe 9.827507513546314 13.923343420583079 10.789934172946836
Fe 8.556959371054763 8.174814681681221 8.760518524167708
Fe 12.296356061069595 10.522359942255775 10.417838867158846
Fe 10.543193228490644 9.127418108366069 7.319129155758656
Fe 7.957054916318225 10.148210752270833 10.048817093042787
Fe 8.711082598563465 12.44735223798323 9.079685730145053
Fe 10.232315341103787 9.628820201758193 11.599979620128517
Fe 8.718504610306429 7.707446226641168 11.32391329557071
Fe 10.67132706233783 7.893178431445188 9.885510091155538
Fe 11.285165362902088 12.177619694993318 11.949278869956848
Fe 11.131065023126272 12.554398532282944 9.55378639992471
Fe 9.04461139269292 11.820802546091517 11.360597691124484
Fe 12.231245115684834 10.898751876844168 7.954000743441078
Fe 8.425622382975106 10.320911561163353 7.649428979765691
Fe 9.90937863391929 10.860671868572219 13.468944750931021
Fe 11.040020930618393 7.669171611347684 12.415859028929603
Fe 12.788125696880662 8.324600921693143 11.115258472911592
Fe 12.16429392088278 9.918142223239096 12.84369271480613
Fe 10.229854643912475 11.87110692885499 7.323248665218655
