29
Energy = -198.53446454 eV
Fe 11.431160795189278 13.25084520851138 10.99565299809998
Fe 10.546814436289578 13.976994949940178 7.961896315300264
Fe 12.467318244053457 12.914385099584342 8.859594316931034
Fe 10.02273520771169 12.312854060705273 9.386065229566574
Fe 11.791094483373294 11.550958586878279 12.701019968944998
Fe 10.86003456478194 11.886801407874694 7.024751627470389
Fe 12.968914421732453 9.554011837344916 11.72738841076839
Fe 9.675158755139273 11.796841720477365 11.587978811576495
Fe 13.039614181995747 11.001599272575358 7.7470734113243385
Fe 11.930155447898501 10.936537513357349 10.20809981213068
Fe 8.556249432563463 12.735966042871556 7.584977912696296
Fe 13.373406130375546 9.191282103721786 9.269643019635922
Fe 9.586310050844906 10.794371957945266 13.751073144423454
Fe 10.571228899814505 9.468373846257766 12.152431828138242
Fe 9.620693818991093 9.965045147762385 9.921122787961583
Fe 11.397959197052128 8.330326295309897 10.259140437094478
Fe 8.035052830650228 10.075323188421647 11.881588631646672
Fe 7.7944003545897305 11.60624423609614 9.834515922887986
Fe 8.840245545946578 10.483302041690338 7.7309010953554855
Fe 11.184171875550392 9.670327920869843 8.065740979440305
Fe 10.887831425817389 7.075847888695756 12.210753459138521
Fe 5.963893203957144 10.335236220980033 10.891479071259623
Fe 8.788388367028825 8.240924876701857 13.250899532174932
Fe 8.938421656301532 7.82923802587988 10.93795111950584
Fe 10.379795573891611 6.2055716130040794 9.94439335680412
Fe 11.841508655924265 7.414751276587729 8.171508965070004
Fe 7.342123503886189 9.14413933158239 9.46412164319417
Fe 9.47053271929359 7.914612668000193 8.509548716528716
Fe 6.70318864607417 8.109801915454431 11.580496141686192
