29
Energy = -196.27052035 eV
Fe 10.201720006851469 8.524265677825836 7.89697847938203
Fe 11.124371534682016 8.374155287659413 10.442225654841566
Fe 8.081749440974649 7.883344186096166 8.843780712938285
Fe 9.19133041743566 9.703347343586463 9.898958892573827
Fe 13.811190246324752 11.670048615536796 11.898862741691879
Fe 11.108139871696432 10.920687216471018 8.500551887105043
Fe 7.76042507177573 8.219172538049033 11.442611354348225
Fe 11.725821942610345 8.59635196069622 12.696299695683749
Fe 9.813484330863574 7.106410579649167 11.899742428116403
Fe 6.666523027800866 9.56516372156464 9.775995591971158
Fe 13.30415848303568 9.478684386881522 11.120580519835851
Fe 13.715319973125329 13.464730815569206 10.283730018156914
Fe 9.739475716639541 12.052107040801463 12.24520437909305
Fe 7.836321988064975 13.13588262653799 11.249055886431561
Fe 11.847261389743908 10.899638642711738 13.135737764378991
Fe 11.59578494810173 13.198885331113447 9.143581676658982
Fe 9.66910040248655 9.606826851913153 12.34242385078804
Fe 11.819300146277358 13.009803781568493 11.549350191612008
Fe 8.34840747507733 6.164809460111582 10.369341716123653
Fe 9.920599404249105 14.236353011639535 10.644543277895128
Fe 7.678908923069033 10.806066223552612 11.515695023028023
Fe 7.312038976267378 11.772483175206087 9.248926418018812
Fe 9.485185171523272 12.137925903754606 9.786100445039047
Fe 11.355116976134093 10.753195695618752 10.882905323911194
Fe 13.328224348280353 11.344396448288558 9.472570281603007
Fe 8.889527173339665 10.54075925605971 7.71958193952986
Fe 10.326669842336072 6.745408643178435 9.38889155099317
Fe 12.372606361352847 9.04732460959324 8.766285011673345
Fe 11.070041691561945 10.122759879263857 6.454320116470556
