22
Energy = -148.96470949 eV
Fe 10.56701236041204 6.930597441022549 7.8093569756463
Fe 9.94048434440748 5.782230092739361 9.638187959984931
Fe 11.681427845188109 7.8620788543048725 9.792158429381526
Fe 10.905884554374868 9.22631229726955 7.660131945568421
Fe 8.729111785262344 8.315961087576639 6.820798938826721
Fe 7.978293328932553 6.69687036533642 8.401289402786663
Fe 10.3547624665684 6.90202805433376 11.598510198661877
Fe 7.947280748439789 6.502374469437378 10.76130417940705
Fe 10.868322322797729 10.303015008922143 9.783466961024876
Fe 9.444521404378659 10.538149060674622 6.080984452081871
Fe 9.385753822174355 8.240615701271478 9.693141278690328
Fe 10.64781901297772 11.679662457354691 7.736748710137873
Fe 8.749145577120807 10.050937390291704 8.42777326769681
Fe 8.391889843821803 8.33668257777269 12.152176606405433
Fe 10.602011626057143 9.231454832748724 11.778244414120858
Fe 7.012999831929211 8.619684548679087 10.128500353615683
Fe 6.524833642377134 8.604142680687337 7.879074446990362
Fe 7.135974851790468 10.40134426321805 6.588429516389027
Fe 8.280409263574878 12.273687563078019 7.555527789077378
Fe 9.32348463533915 12.220041745526942 9.641579200552126
Fe 8.577282089632677 10.317625636841102 10.878834480964057
Fe 6.834924468207018 10.966685561986482 9.063404949927204
