25
Energy = -169.03757004 eV
Fe 11.379334801957087 7.964316158377843 12.581232618439229
Fe 12.71831324742963 8.876699751053948 8.758108741606044
Fe 6.792317463117383 12.574366209829895 12.0703398613469
Fe 10.90876476076048 10.337900038978537 12.122487746377644
Fe 12.019100463530753 10.898476760510611 7.4952641525555475
Fe 10.472288835617961 12.471769610555695 10.982272972302347
Fe 9.885982092153002 12.003327348318354 8.515087383669425
Fe 9.189597044858258 10.447230177621062 10.132071757104551
Fe 7.048931233596821 10.257540384174924 10.9902886496725
Fe 8.921285479188796 8.764709013920108 11.95164561831301
Fe 10.728952277810759 8.543313152590018 10.375498757010265
Fe 11.723136550577777 8.682590863446842 6.633841141065965
Fe 10.84012395376873 7.282046276368489 8.437949154310118
Fe 8.443810703563353 8.357395446846235 9.63857545104404
Fe 10.120416296741059 9.51785136588415 8.106230805972244
Fe 7.929566841210562 12.484047418994086 10.041695129971492
Fe 11.91638350898444 13.048566370879486 9.085562452003275
Fe 10.286029566922682 12.612235078198179 13.301598874163862
Fe 13.56945259234488 7.432551874619159 12.392128112791925
Fe 9.563464345024526 14.132210749605509 9.677287036744536
Fe 11.63966130698901 10.789907136239997 9.785101061924902
Fe 8.671735431406372 11.290221238112492 12.370216623424474
Fe 8.740636605710392 13.891497637734432 11.984978682554917
Fe 12.978577386102481 9.346193032753433 11.20387742400231
Fe 12.53670519898459 7.017604892738886 10.391227779980127
