27
Energy = -183.45584667 eV
Fe 7.383859648627686 6.513756304311022 8.911058469991639
Fe 6.013997224990849 8.140601640985377 7.845221285421927
Fe 6.065035042377632 7.947203863574253 10.171167648522207
Fe 8.382314611072234 7.889016128259789 10.823465077629985
Fe 7.252208011894539 9.720679842767636 11.721163154890101
Fe 7.128878853359425 10.051161184645554 6.958203530949428
Fe 9.979750688342316 7.0600979611214685 9.227849330813765
Fe 8.421776006079458 8.522876183696386 8.204188486966112
Fe 8.806001656135598 11.196392821591006 12.626816043644048
Fe 7.0302121012069305 10.01917815897148 9.382669172191655
Fe 9.53931151528505 9.021123613422974 12.707345719026478
Fe 10.959221314915826 8.287700681213309 10.974413446174387
Fe 9.471869558109034 10.037734896762014 10.358701435731719
Fe 12.482472686559712 7.770989211049477 9.34190755973667
Fe 10.754653954727262 9.203680193126216 8.363318338673459
Fe 9.610194346880236 9.700883415080211 6.39503650219605
Fe 8.932845103742519 11.106494469004526 8.111253009650536
Fe 8.102270623989773 11.966352835051755 10.342575083522709
Fe 10.066405995805773 12.704154752768632 11.513326248070335
Fe 13.119348271598874 8.816170508752064 11.626982957875052
Fe 11.311787529211054 10.643878189633456 11.959185537829292
Fe 12.365688744824084 10.128244224984845 9.779822248385416
Fe 11.51607127338828 11.171612665176475 7.379424179741144
Fe 10.755634396458179 11.890372318497093 9.451514583345855
Fe 12.480822509504327 12.611387274297646 11.031252683640687
Fe 13.252872575728 12.104597320421624 8.903835688069377
Fe 14.05481920615956 10.992268648853658 11.029185692782239
