29
Energy = -197.84064116 eV
Fe 16.603541989922697 8.703165173635815 11.198585077682939
Fe 14.838776993543181 8.03451688581702 12.696016256308416
Fe 9.853425445636981 11.181792125885625 14.518170566421288
Fe 14.267877363316401 12.523056348448948 12.39646926610049
Fe 13.890723778363208 15.0941186235514 12.35069255527855
Fe 14.269303191118878 11.69730027023668 9.788494749855923
Fe 12.745936786499326 8.575969833286775 11.718242669507466
Fe 8.796871620787295 11.650567386912073 10.59472138076515
Fe 12.14961021992261 13.636860736273851 12.611092008209232
Fe 10.771641363790307 9.85461342215221 10.723274152196394
Fe 14.835927214211816 10.134220357449404 11.505951183142272
Fe 11.480984238897127 11.804492240136433 9.533749593859872
Fe 8.976403980655729 9.943415785909387 12.33969416682914
Fe 12.645316500351123 11.141563518792816 11.637355193554722
Fe 10.041481292892621 13.491178497794715 13.851078375917217
Fe 11.966349651065086 15.550269033762822 11.012383653845312
Fe 13.736481830573005 10.061071645219846 13.618311522937796
Fe 10.432360418694826 13.77644137173066 10.582288822349303
Fe 11.980871096272034 15.623852237591272 13.76773371072002
Fe 8.504138154568995 13.715697226411269 11.920688313316461
Fe 14.597314509033847 7.768422295813689 10.323108723253622
Fe 13.0862940842907 9.685538313346715 9.589198453153003
Fe 12.193586092970449 11.90788356378382 14.099229385394597
Fe 11.264065247541765 9.770063065557927 13.244694891922155
Fe 8.06696306970569 11.887404373676027 13.184140772925485
Fe 15.504509717419335 9.613318953001048 9.23859051331231
Fe 12.96714414387022 13.53015492671665 10.359592836232435
Fe 10.205662724047775 15.476792465868707 12.508467141997565
Fe 10.448524164993353 11.942130234628701 12.147566112284917
