24
Energy = -163.17549154 eV
Fe 12.518382509751232 13.986285096140959 10.370786213811002
Fe 10.010912709212032 14.159482687417494 10.00911232528681
Fe 13.662822582977283 11.991419637714566 9.48344269641508
Fe 11.19371658309909 12.2245371728482 9.452231579239402
Fe 13.025600422872984 12.077425491881415 11.703158285426774
Fe 12.215546066980398 10.246489821001761 8.714698112952723
Fe 10.943360726557687 13.242308705406645 11.981309854614254
Fe 8.980023160300647 12.517647002110952 8.328628637537468
Fe 13.446547149044843 9.78108276482295 10.69945537301637
Fe 13.48028064293031 10.14317403560043 12.950582247935117
Fe 11.070251047134173 10.609279339665303 11.45701450264544
Fe 10.582675489627045 11.05372102630946 7.249715900103438
Fe 9.117157941014526 12.269387716607962 10.770175352178178
Fe 11.536283433943606 8.396926010426016 10.046548442435567
Fe 11.505542660638424 11.211290976271686 13.649069628238026
Fe 8.360564694248756 10.355930726713412 7.6473338865547
Fe 11.812313173182867 8.593179573631518 12.475509208026368
Fe 9.264956070504443 11.848609788735846 13.076311662182944
Fe 10.374267504465607 8.764401112638355 7.924312640029996
Fe 7.41689588164941 11.37492490769817 9.641394130713863
Fe 9.57003240342573 8.385187815624967 11.24077829090785
Fe 9.655621935944566 10.192996455525426 9.540781065222804
Fe 8.309010161676063 10.261567658121653 11.673516355654526
Fe 9.811762311015636 9.469605434087391 13.39762459021514
