27
Energy = -184.67948735 eV
Fe 10.77294900831447 10.097166088782583 6.6132892558496845
Fe 10.805594900032967 7.714106426524758 7.110119451426505
Fe 8.501853390529682 8.750572208425696 6.946175474774275
Fe 12.511517289903738 9.389718497912272 8.28059642656643
Fe 6.513207804687464 10.17291605830937 7.63853791564771
Fe 8.798332467964366 11.056302159052496 7.720247977555063
Fe 9.111412774244261 7.129384325269208 8.873565543073573
Fe 10.154106603794379 9.28159102832016 8.75403463272666
Fe 11.496946134941377 7.416560737641898 9.480527808168652
Fe 11.132903668749067 11.569563524628697 8.55625167261949
Fe 6.851702111022914 7.640119643659323 8.215189471378677
Fe 7.817643367167802 9.244037795678098 9.450292139985558
Fe 13.35986736401774 8.51024417245304 10.469734459267727
Fe 7.002031336373175 12.493846657770966 7.7799899413530245
Fe 7.6402261385677015 7.399301242647087 10.815838265243118
Fe 9.663583188670875 6.12028309006355 10.895974325400411
Fe 11.70882972036619 10.17429570813096 10.511478941091937
Fe 8.843481038339611 12.993654285968987 9.259820770780548
Fe 10.838213739005953 12.408997460394076 11.01258626085471
Fe 11.669413379241494 7.101512058792332 11.777376085804448
Fe 9.34524241509071 10.913197616163743 10.173730004925261
Fe 7.837053528324155 9.868546236076766 11.83020082552494
Fe 6.969077235143213 11.377250391814622 9.871553584848643
Fe 9.815270863569786 8.578376281679317 11.183783219410618
Fe 12.022208240350817 9.199974551408665 12.559834570624462
Fe 10.131115669184945 10.692091484173599 12.543213662647796
Fe 8.36471215651741 12.242044558593003 11.750881364533429
