22
Energy = -147.12081121 eV
Fe 8.245066091593033 8.893385257724354 9.311399091326978
Fe 8.58458763152566 6.9472672248404495 10.739840867433585
Fe 12.185884748337354 10.21026006640381 8.734003211050917
Fe 8.502093978833742 9.547778586159739 11.56193403340381
Fe 6.699479327821654 8.05723157779709 11.435801082627798
Fe 10.283269372669762 9.871151488892936 10.075599138218278
Fe 6.276878507334838 10.076713473340927 10.389998412331584
Fe 8.178945646206756 11.257904789050796 9.46379667836549
Fe 12.22094604911198 12.720535678386396 8.325924374616607
Fe 12.047930353067738 10.23597631518532 11.46521267900711
Fe 10.028769923216508 9.151449266595728 7.5586553421690255
Fe 13.279310073896562 11.698409481552083 10.067565223554412
Fe 12.476255964925867 8.324023611840397 10.233658460400914
Fe 10.891134787537295 12.146427734921769 10.2116088132875
Fe 6.239977298081785 9.808318930741375 8.102390206615837
Fe 7.899631870861978 8.237583838360417 7.034824195242019
Fe 10.255209185095017 11.526370929209987 8.046509555458096
Fe 8.41232067934275 6.517174973813528 8.469148998236676
Fe 10.639023123338003 8.199562807784597 11.671232716418432
Fe 8.196892229008254 10.631325666887182 7.1567347979882525
Fe 6.343919779439454 7.605681571945003 9.134911625358606
Fe 10.419817160097239 7.593223306626505 9.247829704762756
