23
Energy = -153.63567703 eV
Fe 9.975663878540978 14.226074715929924 10.503725369221465
Fe 7.989368488560691 12.813511029838939 10.731222536966566
Fe 9.55125730794828 12.599489538011053 12.570548924979034
Fe 11.183666578825155 12.689303102950813 8.052655608059444
Fe 8.785177580435944 10.720353920327344 11.482670586063579
Fe 11.559010495918363 11.68871625528344 11.748906731615433
Fe 12.750895419746808 8.197422497165357 10.22762734225162
Fe 10.104833811591703 11.954052197752215 9.884221758598729
Fe 8.193255747342274 7.011435464721191 10.04112705358793
Fe 10.993203761997867 9.659593396036998 10.86639625498292
Fe 8.007270639045643 11.304139367710224 8.962672584939616
Fe 10.01236626685382 10.473919687029495 7.9511288621641505
Fe 12.236309159977278 10.837195504625239 9.263503287628456
Fe 9.39559379062625 7.580814176130581 8.034118684447185
Fe 10.433812145469952 7.14668808518514 10.379339869421987
Fe 10.135566833907243 10.231127249605924 13.160594787434157
Fe 11.431043808434342 14.057601471171225 12.150900113916482
Fe 8.951943509371509 9.229076013943965 9.62432050927522
Fe 11.181772829270125 8.01211432263875 12.422377355320446
Fe 12.271254925083088 13.174243377259142 10.00341671838493
Fe 11.29306091466401 8.718174607164512 8.639624492895107
Fe 11.856382598445352 6.606553163090032 8.56640236789523
Fe 8.938605962174877 8.299717310659764 11.963814654181283
