26
Energy = -172.4635305 eV
Fe 14.356841211468641 8.447642591453837 11.566244223030608
Fe 10.82110993835469 13.52350199114064 12.478018117692812
Fe 12.159910390499979 8.97525864314111 11.993769088979674
Fe 13.048773768155218 9.31085426752477 9.754300745758659
Fe 13.040985701805651 13.804169726611251 8.932714936182606
Fe 12.929765845737165 14.06452278728965 11.34138391682719
Fe 14.035677371208042 10.161120338868022 13.134437342865931
Fe 9.134558670180297 12.395050573067438 16.080781881421693
Fe 12.401975965452385 11.473462172254777 11.213188477568934
Fe 11.552363304411609 12.489222676433634 7.726519794216719
Fe 12.947464254450338 13.849279093184304 13.691061653305376
Fe 14.810125163702596 10.659618517476774 10.8188694072621
Fe 10.584625944403674 9.805876119280693 10.424296223764577
Fe 10.957388968120396 13.298871573617857 10.040246515469006
Fe 14.408376000701447 12.384385479341514 12.569414162524037
Fe 9.50597300335155 11.757414461737154 11.296008537961153
Fe 11.586651781566458 10.243476591486328 8.163466021576303
Fe 14.748711465862526 12.966959892585287 10.286027800066032
Fe 10.660055811075667 10.759283455430792 15.298397235528359
Fe 13.723343261713364 11.444627292046585 8.672914986178617
Fe 12.89636019734796 11.645764969243501 14.720428076746748
Fe 10.237793366563553 10.089930560562202 12.97843518574288
Fe 9.240836707789096 12.147680285508859 13.734884462432317
Fe 11.026951052025604 13.22759029881562 14.979032413093849
Fe 12.195615395824412 9.319468803512919 14.308108294468575
Fe 9.73274382589655 11.525812677964593 8.894151180479351
