23
Energy = -153.79075017 eV
Fe 12.582172654046982 9.976293255806297 10.780223764854485
Fe 12.033571940450328 8.344459521928627 8.928731894850886
Fe 11.206097240732047 10.714651065460902 8.868126041593216
Fe 11.355342590488636 8.069121645241939 11.351718097029856
Fe 10.69150515147519 7.31247647770429 7.255009346501557
Fe 11.804524949727238 12.181196373424877 10.97621991483985
Fe 10.577372461824806 6.290336557885093 9.93379474429651
Fe 9.095872459209602 7.770175496461563 11.905473387603749
Fe 9.950749464796347 10.274637734900002 11.116901582529241
Fe 10.160217676489342 9.696976678269921 6.97362335956351
Fe 9.562762657327822 8.393770283473653 9.384159257125699
Fe 8.632445816998109 10.536841336289369 8.906152234109756
Fe 8.874042475443463 6.122095751884416 8.240919347151017
Fe 9.791196798930592 12.534717908902884 9.718725863619568
Fe 7.6339106851889875 6.896270433301129 10.269899770956972
Fe 7.783674446787049 11.842456611592974 10.890897570204634
Fe 7.573125358584907 9.481640452980868 10.938430918653626
Fe 9.652493653372204 12.055454063801589 7.248645906338356
Fe 6.516479939285693 8.741707508750453 8.8472913183295
Fe 8.185468746354456 8.262177952953701 7.118001122755177
Fe 6.336097945598242 11.108689684375653 9.065726864538412
Fe 6.487668472388198 6.448207441446507 8.046317686161416
Fe 7.611765005505287 10.629623836387722 6.768924542933172
