23
Energy = -153.91650892 eV
Fe 9.379199856358426 8.586680562574903 12.190952332790873
Fe 8.310589027365886 10.164696664815294 10.552828430162814
Fe 8.937531970636817 12.426598026751167 10.610753453541099
Fe 8.564693724617385 6.697368224578571 8.671052533795597
Fe 9.090524394507112 8.306365701891636 7.052884612010153
Fe 10.596335028861247 11.38916985352384 9.320860991782736
Fe 12.8679358357088 10.131673411657186 12.0619575240679
Fe 11.289754920457813 9.302383344183076 13.465958555374204
Fe 8.806116089855827 10.528888557252825 7.857314031866799
Fe 12.626023200808413 11.476718997478084 8.0946079376627
Fe 11.088356677135986 9.6030408791625 7.6136827026966705
Fe 9.930086117417556 8.706819366149329 9.50196455503287
Fe 8.882847800137375 13.01731596841486 8.334298025894109
Fe 6.154783900181533 6.851905536500486 9.032792599686507
Fe 9.859544788513045 6.70903027305705 10.794297694611474
Fe 7.243028008132732 8.978285317154414 8.62777602195786
Fe 11.692514321151254 8.12511995516512 11.415906689874257
Fe 10.447624036404216 11.914939858780167 7.028741152072816
Fe 6.91644613031976 7.230317666885463 6.974641825501928
Fe 10.579471726592843 10.529899110515657 11.486131776630756
Fe 7.689039537060577 7.790613753389015 10.671790933956887
Fe 12.265493880932155 9.735140650473832 9.795667299699222
Fe 7.127724519786074 11.620266536835405 9.118271426581156
