38
Energy = -262.9540057 eV
Fe 12.317678867663693 13.632893863360097 10.517099863318212
Fe 9.39195662172026 13.403850310868718 7.616655213824137
Fe 11.761857839589771 13.181089427735484 8.062841408067403
Fe 13.67047884048301 12.198890154838955 9.181093346999127
Fe 9.974500938762837 14.169041358267878 9.803093418880918
Fe 11.539361042467235 12.402681776913894 12.42850068811039
Fe 10.179249864717633 11.203760326764808 7.440878877868165
Fe 8.261608455940824 12.136111718492549 9.248816644061707
Fe 7.863575472945038 11.434606055957863 7.074820130462118
Fe 13.85077285929141 12.311411477940094 11.891188861168201
Fe 12.445170276553371 10.552036733789647 8.02100301710967
Fe 9.131607596082778 12.637950186932384 11.49493224839832
Fe 10.689684060355033 11.885614325151415 9.736081818927401
Fe 13.850262369725547 9.277460655323692 9.56942963997047
Fe 9.611499661516946 13.224939176454118 13.716279553536117
Fe 12.632775512153565 10.842378103252662 10.716921380418652
Fe 6.657899283014376 10.26085315835165 9.13694552262786
Fe 10.640241429507915 14.550306438236124 12.108434081867347
Fe 10.841644286408608 8.916129039613496 7.079590409863967
Fe 8.658174360141468 9.46541020098476 8.203297438389912
Fe 10.93006618059649 9.473631333924713 9.443593210256301
Fe 13.543850154436488 6.909936430277356 10.547329330979656
Fe 6.996861615673032 11.441245698179133 11.476273617333085
Fe 9.867936239500457 7.337176259549787 8.698787983747309
Fe 12.235856711975105 8.52423905106901 11.340876464604404
Fe 8.67856161110362 10.181955898592502 10.585279699593505
Fe 10.538274575747039 10.28760315048969 11.823450640231822
Fe 10.85452355308372 11.105106295240951 14.346704799578841
Fe 7.764797466058232 7.941984922104164 9.972132631853999
Fe 6.327875564759525 9.218853299812544 11.215827629967917
Fe 11.338863261880126 6.153858005625297 10.220852978742629
Fe 12.363244753098522 7.714237350263506 8.637167561777483
Fe 8.79088908372478 11.016827044735722 13.22991686303723
Fe 9.866397426092634 7.868819085624348 11.13710386946164
Fe 12.692689423783245 10.197750930172948 13.063810157242276
Fe 8.260190730078195 8.809774284007442 12.529806139931726
Fe 11.578933507683866 6.675169110233035 12.485072969926993
Fe 10.686855924043877 8.741084783229084 13.484777310224304
