33
Energy = -227.07650787 eV
Fe 10.545560465115528 16.013521794495094 8.124950985093191
Fe 13.233146690786404 13.505631973130132 9.335562657822727
Fe 9.197339546366123 12.377448672934094 9.726128616805495
Fe 12.02736703225271 15.609675899223982 9.829833820220333
Fe 10.640710069741047 11.065194221052028 11.406575629031732
Fe 11.539376037656275 11.392847446640934 9.146122112210843
Fe 14.684042142095281 10.951520998443986 12.963705018438407
Fe 9.205049556518118 13.3357406117789 11.9678734538238
Fe 10.965823577943533 13.741242487255239 8.228697797573366
Fe 13.495028932960544 10.559255801865932 15.0865613292721
Fe 12.042168450919075 10.781161120801189 13.254878361835196
Fe 12.957379942911977 12.00788050814591 11.381485515590818
Fe 9.73880592189441 9.566642205143252 13.335504319632093
Fe 11.18412005075163 13.35478475613333 10.560647899334395
Fe 13.923199372926828 11.258350700593684 9.26082507805669
Fe 15.214651359124142 9.94719565634273 10.887344743933493
Fe 13.823294121032921 12.89650588865356 13.677198950439504
Fe 13.701541978278199 8.860358232789705 13.105595648714784
Fe 13.220606680069062 14.41248916185475 11.709081089346913
Fe 10.940609371014496 10.423592023918099 15.41779992217578
Fe 8.381236353307093 11.044494229210708 11.75185870746368
Fe 9.366437669472795 10.101806531113825 9.263144054684776
Fe 12.00826838660056 12.527439553852902 15.135420072879114
Fe 11.387349617688281 9.073559480815572 9.644672319520257
Fe 9.30335176560347 8.82847062692545 11.121216010641001
Fe 10.792643680491846 15.337884092594694 11.920818181796117
Fe 13.083044989533539 9.815083409697218 11.025938128246285
Fe 11.49209777776914 13.260317046236844 12.930307366844342
Fe 11.85995992704422 8.564368275442032 14.439040897478579
Fe 9.819040358033211 11.897757923547568 13.766537725756303
Fe 11.437128991257298 8.479058243998296 11.973452538923853
Fe 9.520498714277956 14.888404549856597 9.848562173655415
Fe 15.017530500274724 12.648526337172283 11.035318470212813
