39
Energy = -269.30052636 eV
Fe 11.499362969898101 9.419371033741523 6.647944090910857
Fe 8.738094112483987 8.654863669483657 6.356961939605648
Fe 13.230498160901448 10.655571054523923 7.819090480318509
Fe 10.620850415076303 7.0856908207598295 7.125646786737174
Fe 9.586149661829563 10.71767957520323 6.976144598894611
Fe 11.443643648302306 12.091506470324566 6.931882017608582
Fe 12.49902053218493 8.31206177302213 8.441442234816812
Fe 13.53578640910469 13.058117785725383 7.719170647937507
Fe 9.167341236784479 12.736013984707009 7.919057786176041
Fe 7.4915330384648025 8.82643877129345 8.19035264594062
Fe 7.2520139340692 10.961054012822368 7.143676629876834
Fe 8.477914132756188 6.749030129122034 8.308895342036351
Fe 9.956488176781217 8.797531569264331 8.473994724074723
Fe 6.905744920464854 12.182838091181965 9.165058237607017
Fe 10.618826476129703 6.537425800370452 9.50124794501503
Fe 11.227189206356899 10.817681069618063 9.103784147031286
Fe 8.599369517968569 10.656862229556927 9.17424641626606
Fe 6.493112090511886 7.579689240152482 9.87384606975457
Fe 6.5447065356622725 9.941375526412909 10.032332377786075
Fe 5.395050824530834 9.714665837094495 8.238297963394094
Fe 13.171986734137622 12.030429330730433 9.82619142717388
Fe 8.416136939143183 6.042434121511812 10.586911176534281
Fe 8.741841197689693 8.409533449828265 10.606509909617078
Fe 11.320466326673861 13.378386707237741 8.88355760909456
Fe 9.149814890848894 12.758267811043325 10.312243258793611
Fe 9.862293661190211 10.50851855162482 11.090005665793292
Fe 11.31675193781487 8.598355199789964 10.471536686570495
Fe 13.559020974976752 9.63736441644675 10.134422107699635
Fe 6.315694270499778 6.324652387089922 11.822767162540822
Fe 7.5521702111325295 11.289043081199878 11.538270231293403
Fe 6.497365954044763 8.763145332226273 11.954755641002613
Fe 12.189733244458353 10.548639874722651 11.788178445779607
Fe 10.514959097610305 6.710440925557124 11.880417229033405
Fe 10.47339436539031 8.900736170761933 12.829865245090422
Fe 11.331287490943483 12.624158260213736 11.153595313358775
Fe 9.88329233147101 11.645834217335041 12.94857520523314
Fe 12.714562166044045 8.181503256356432 12.20534017983983
Fe 8.323384965454764 9.748381274570585 13.076384213801564
Fe 8.327678602634379 7.349238549793807 12.69193157238289
