35
Energy = -242.95262395 eV
Fe 9.966046859846855 7.235522698040018 10.53226556305537
Fe 8.40257263409249 9.027832141431686 9.581304115752403
Fe 9.41594065235429 10.172426682514406 13.379818816722594
Fe 7.569715198544237 7.053027096712855 10.373257470148845
Fe 7.105142755817917 10.807068320056906 8.63577958738809
Fe 7.125428987366174 10.797114988104045 12.776441252155376
Fe 6.470525455212782 9.629731292083935 10.834802913975576
Fe 10.578002164150627 8.86013198476169 8.661690478685856
Fe 6.4000939637483985 11.999422049931402 10.653353366854711
Fe 8.939412577422873 11.845586084038047 6.85554155952023
Fe 13.06405988429875 8.413956798295803 12.485531412627813
Fe 8.719471209436788 9.428272154144068 7.135295669505701
Fe 8.00415893766485 12.895232022063826 8.883020113092833
Fe 10.127509965719497 12.33950192203511 12.733329218285364
Fe 9.633943638330232 11.061868378821945 8.941651175569822
Fe 8.576848454702871 11.27855523831005 11.074918558126232
Fe 8.373511572332832 8.665024282426941 11.965426344211433
Fe 12.408681664071894 13.672438098456878 9.889324427065619
Fe 8.985078012172803 7.0506527359504805 8.235559221874357
Fe 11.318406755682139 14.224364750638719 11.932362604622893
Fe 9.736022665506205 13.464567571593829 10.398528836801317
Fe 10.950091171364917 10.432623025792642 6.820340533248736
Fe 10.808339225050423 12.817705497643137 8.178683218289894
Fe 10.624069101024316 7.8128778154918 6.5932165057813865
Fe 10.52301425343396 9.732611826720333 10.951417367682366
Fe 11.753248610844732 10.451200120937044 12.861794586883173
Fe 11.356143183696746 11.882990439369998 10.663734095488037
Fe 10.789456941368243 8.038655207549875 12.66174953558837
Fe 12.117984486135809 6.455795871084379 11.372480608177145
Fe 12.209315049511535 10.637470860511582 8.846576546149462
Fe 12.744803190579162 12.527967908355995 12.364182499605432
Fe 11.470286738250891 6.583611406866547 8.714184453523762
Fe 12.697075707899872 8.541465024793085 7.632109684533512
Fe 13.263449749183858 10.407741768751134 11.03771942493545
Fe 12.42527543127304 8.367202028577092 10.113733743210464
