32
Energy = -219.75359149 eV
Fe 6.169597281068501 8.981246861972242 10.734856659528392
Fe 8.162905278513692 6.229346826378269 8.257664740164529
Fe 6.28169701778334 7.755191879975285 8.407302875160232
Fe 6.8093954956867835 6.682553298190579 10.475894607060177
Fe 6.302733971249044 11.390987445466772 11.023665037259462
Fe 6.639040425301495 10.121886946388804 8.710831950876505
Fe 7.213827705046855 10.075252367538257 12.734471505706242
Fe 10.432701919563586 6.9377807540446925 8.489030871169524
Fe 8.37059978326801 8.352419566659872 9.396360577977296
Fe 8.510173716484879 8.40667379955125 7.074610491453167
Fe 9.135012170619538 6.194764527972939 10.4885615085633
Fe 9.702383240473385 9.994646177423135 12.559103307395247
Fe 7.447278016421677 12.344299337565 9.231947094306935
Fe 8.421762665592572 10.367029995342932 10.60287419989114
Fe 8.195990721877232 8.091941844936514 11.916481458515813
Fe 8.652064283562705 12.24160600068317 12.039608779659241
Fe 10.288577368383251 8.28483274587685 10.769188725260433
Fe 10.908065101257856 10.545351924040887 10.21100833704622
Fe 9.738976318576094 12.566624269377238 9.830024529557067
Fe 8.906620161599383 10.753352856379072 8.265241177670806
Fe 10.719080018956165 9.24149486896931 8.275520259168866
Fe 9.879060440969058 10.2490641619852 6.114140810125118
Fe 12.689461184216738 8.065218606637934 7.581130619804012
Fe 11.913573812836104 9.211289858973036 12.192360822725428
Fe 10.693161383505092 7.958738847749238 6.2240121135642
Fe 10.900679582601908 12.093976707961172 12.018703147353373
Fe 12.52814554817222 8.52232532483779 9.946976501748237
Fe 12.23453573893522 12.572504096271569 9.73530868303558
Fe 11.050170514321794 11.72653901746038 7.855388870809334
Fe 12.221828788323771 10.100923562702338 6.426359693676058
Fe 13.117290462642963 10.85843897664502 11.052021332968836
Fe 13.062629715108619 10.442808991625842 8.656625160978853
