38
Energy = -262.84287182 eV
Fe 14.208582002792536 13.704975608529544 9.21939988862362
Fe 13.044802094335726 11.938497007811659 8.110088954612168
Fe 13.982028128418582 11.633402068890822 10.276830942885416
Fe 12.78042882187512 9.619348588101108 9.024023970249983
Fe 11.746290288230828 10.306666365461412 6.8841459370379265
Fe 13.28687632946346 13.444382117778922 11.550062446415266
Fe 11.953655551761141 13.649364494544214 9.457993821240185
Fe 13.17746320171949 9.581227018716579 11.430507596202862
Fe 10.38836890827462 8.7589197493417 5.9410466147257095
Fe 11.431393489852827 7.705986401059348 7.73379478700006
Fe 10.55947810050029 11.88861972861194 8.24691167385772
Fe 11.61388890193333 11.448063646050905 10.354138671940753
Fe 12.556321769451431 11.414240167977677 12.664009222462836
Fe 11.970453313221439 7.564966048956402 10.039554057266468
Fe 12.606025781853583 7.492674318380503 12.292888392260307
Fe 8.783774923899227 8.178417915221194 7.460181952408228
Fe 9.167886654629463 10.626083167903916 6.673887526059186
Fe 10.957944207458725 13.173267110447062 11.76037041205644
Fe 9.46295031738937 13.49008061508142 9.843443581702369
Fe 10.849715806995643 9.272976949519544 11.128319160575854
Fe 8.173517763433944 12.450379982853256 8.081532883829372
Fe 10.300997010620145 9.461497560074799 8.747896418266754
Fe 10.28845685373783 7.151225928333381 12.038805890360237
Fe 10.057259812369281 11.045567027039192 12.624468249116953
Fe 9.626992081211078 7.132948223080719 9.617353352939821
Fe 9.274726236329277 11.070642579030892 10.388489683686736
Fe 11.54515379150783 9.186581538882086 13.403230890096888
Fe 7.864598752402545 10.125867764984521 8.660291404829483
Fe 9.050874241136139 8.83324368436927 13.098322328007535
Fe 8.572833523109237 12.976582041780414 11.895774910613158
Fe 7.16862381569028 7.680745361963759 9.098068329999897
Fe 8.4322952804107 8.82006834481601 10.81042389386698
Fe 7.146411798022222 12.271666733296541 10.132139238723362
Fe 7.741641369496375 10.775883427343905 12.192668466625877
Fe 6.317513007030667 9.861192144772085 10.428722296056732
Fe 7.957379472391863 6.693511469534634 11.574353424061375
Fe 6.7539758021630085 8.616372921563354 12.801198613695508
Fe 5.873162057126623 7.628605440142138 10.98940137788578
