32
Energy = -217.39568212 eV
Fe 12.952365196618771 11.65083943991716 7.775848603941251
Fe 11.779042608303657 9.528657080634487 7.744801345429755
Fe 14.128623939847808 12.488470532645431 9.843117105356166
Fe 11.03645906669903 12.567844956524972 6.912887767092354
Fe 11.902133370146869 13.10918437501349 9.238777454278296
Fe 12.256386740547198 10.608809739998753 9.79283509318578
Fe 14.290121020176931 12.92748249527184 12.253485115105578
Fe 13.338343974417084 14.54288141417452 10.712877149242797
Fe 14.066068485791776 10.614804489582303 11.251690960101799
Fe 15.305641385041906 12.239497206865714 14.499422547713664
Fe 14.535380405360756 14.420343536847657 14.00709195792519
Fe 10.291321314798036 11.18963203395812 8.532204422678335
Fe 15.967310126652462 11.29515693864881 12.402947215258418
Fe 9.730437179157889 13.598018285772739 8.61774473266286
Fe 12.083209427913127 12.213972192691122 11.622298028600692
Fe 10.932318962771793 14.577836012651437 10.815768943620421
Fe 13.773861495345521 10.732656361093062 13.562917262005477
Fe 14.18480981076258 13.395720566172683 16.18136885740686
Fe 12.30684198247737 14.718399513289834 12.879430461213962
Fe 12.750440321798383 15.18991892626749 15.435985075156298
Fe 12.094022817683546 9.654770549852433 12.26452836110622
Fe 12.561756814385749 12.75631191858935 14.153487812988175
Fe 10.300952999813648 9.921104347043753 10.824118715879475
Fe 13.520454196688522 11.156833675991027 16.01540278026636
Fe 9.883409319616892 12.28154521951121 10.631986297893933
Fe 10.189160322070123 13.426429395496662 12.806664837649786
Fe 11.704478945308297 10.396028224695286 14.73725897064148
Fe 10.2977532531504 11.089468208749048 12.96976654462192
Fe 11.871293133472719 12.945585081627623 16.391563024132225
Fe 10.654152986402615 14.418493224643626 14.777265369034316
Fe 10.059441734541311 12.199207809664511 15.075045756561677
Fe 11.138262981432955 10.801024180365074 17.002477201952733
