33
Energy = -226.28351199 eV
Fe 8.787817537857407 11.601057640996745 10.127653544348773
Fe 11.151604078837305 11.410125234072439 8.634201579047513
Fe 9.743603667854257 9.477209825879276 9.627310281696912
Fe 11.662666014413933 8.118983400638417 9.589602832848458
Fe 9.270568510871572 13.141058117895009 8.287096191042405
Fe 10.577409622841559 8.457457573476667 11.785582088038934
Fe 12.967645444954519 12.281996918846644 10.111009950918506
Fe 12.966791651847334 12.658744444804949 7.743287153181679
Fe 8.849440338050666 7.513349790859001 10.429235614918626
Fe 8.96772845475257 10.829461710757753 7.61857072517596
Fe 8.09712963205007 10.75203342721444 13.763893963425666
Fe 11.982139242171142 9.98494297724388 13.232655816211972
Fe 11.395629268734558 14.046248571636378 8.6099636132628
Fe 13.024463368837674 8.429453924820484 11.561846673758225
Fe 10.300053451162396 11.767348411241045 14.296865267763968
Fe 10.82516840329094 12.268746549706739 6.592921599216724
Fe 7.214641699232309 11.741089879798128 11.786859673902438
Fe 7.042746701180904 11.837728298152628 8.719006193016337
Fe 10.681022620907735 12.878580489010172 10.542241204000156
Fe 7.881187131015769 9.41102704939436 11.481900141916508
Fe 9.731572688786503 10.690597959704997 12.17744813360214
Fe 13.040892653587516 8.207221334386572 7.597033852687778
Fe 9.196899238801736 12.9520044807479 12.520784304559882
Fe 13.799614264417569 10.671422430465508 11.695545416388716
Fe 8.79741636246019 7.724655658791123 13.012847419851582
Fe 10.875136425952972 9.137577197854265 7.46909281643278
Fe 7.462003306957853 9.580387871833857 9.124701073698905
Fe 11.597122571118359 10.475861620475984 10.78620984495021
Fe 11.82053714543266 12.242840740814144 12.544301527227278
Fe 10.011801646890204 9.254298999960547 14.305453097307705
Fe 11.514048057596193 7.554388254214213 13.602310052259863
Fe 13.317409444172146 9.839306817576846 9.43802939796806
Fe 12.695706301059857 10.363045320315523 7.105843762640705
