33
Energy = -226.21940897 eV
Fe 13.596574473224688 8.934007941265875 8.97360106002857
Fe 14.24832109402779 11.87150625554808 8.607044439958344
Fe 15.096786084289874 10.521857610852788 10.2628463177995
Fe 12.383657558934877 10.793441936578974 9.608161660279816
Fe 11.604235813002072 8.60308030249381 9.734416344520618
Fe 13.30013707445138 9.472215325280418 11.458311694286403
Fe 14.290441121688993 14.066598191331636 9.27299342072187
Fe 11.992808224902694 12.880652125016116 8.720619509571021
Fe 15.639484114066638 12.751228083231732 10.785323767379397
Fe 13.305229576351442 12.402401606152303 11.06201219206837
Fe 14.984468857994841 10.833853681512613 12.565907163827166
Fe 9.437599240252823 8.945523984130151 10.908756212221437
Fe 10.000466022619324 10.88230350096711 9.555505428758769
Fe 11.34584583627832 7.991266557127233 12.150122030555725
Fe 14.134108219028114 14.790379825693124 11.573725867015023
Fe 12.197099743907732 14.672716078892567 10.311152182850659
Fe 14.644992177741885 13.127170946183147 13.050851731586146
Fe 10.886308972603876 12.666660209264782 10.80333424266349
Fe 8.612466069576143 13.138471513640324 10.452867672926487
Fe 13.016545144631348 9.286148310511772 13.780605809454917
Fe 11.179642148547396 10.38176605421217 11.877357450843853
Fe 11.017903746161293 8.260734783920075 14.406997214051819
Fe 12.139016625565539 13.860630340983624 12.81345512346439
Fe 9.190555485035478 9.176688585553169 13.283296838847095
Fe 12.773765277394896 11.52956428198341 13.27584464582967
Fe 8.840545552956463 11.130065474325853 11.751373898692327
Fe 10.892217117193459 10.568652781621774 14.582042012352836
Fe 10.158436639997946 14.70568741349931 11.827321639090604
Fe 7.874963193102778 14.759378912356455 11.844229204355988
Fe 10.46947027114936 12.393750908865991 13.185725557556747
Fe 8.595263886547816 11.303020936703717 14.174696827940545
Fe 7.298256491800245 12.597171934144319 12.507199896970572
Fe 8.97805975503118 13.821714362060092 13.79812132665431
