33
Energy = -227.15697712 eV
Fe 6.322905247075111 9.179820198676067 9.471866434372574
Fe 7.388281339661985 7.404003832533278 8.540941237187582
Fe 6.8452642908432 9.075350198767133 6.794446934578294
Fe 7.029219620170555 7.382195737311474 10.977959521090865
Fe 6.082223209605852 10.990278397624502 7.916366438688784
Fe 7.171004443994682 9.604196859406134 11.850328383517693
Fe 7.637819203021252 11.51487474354483 6.2986998918804415
Fe 6.835252060669711 11.343146821350308 10.187176065317063
Fe 9.015071253657142 7.78578965404681 12.245300613921811
Fe 8.962577157533241 9.643234328457723 5.803481238984119
Fe 8.825352491705395 8.89771243600863 10.204052406862052
Fe 9.346643500879104 7.885177257024145 7.473330486996567
Fe 9.223828027801844 6.609961294985043 9.9153246329288
Fe 8.465236415786585 9.9926855343734 8.192265541090576
Fe 9.37609862014205 10.195144820108421 12.737251261737597
Fe 8.170649877030055 12.378241412395338 8.579288820512984
Fe 11.15432752519132 6.9443418524228795 11.541562564270716
Fe 10.782576685346102 8.361238770129093 13.633342036848731
Fe 9.0013225782789 11.216991281622455 10.639144844372833
Fe 11.006339317293662 8.046238768076034 9.191621831481422
Fe 9.924503852195642 11.771609446886744 7.048371072520639
Fe 10.602119022301403 10.637821890129027 9.17864514015826
Fe 10.523148594545773 12.940389771892285 9.238519627041654
Fe 11.039932904819379 9.33991508179732 11.193573226242183
Fe 11.01176634315979 9.595900137971816 7.105829397891725
Fe 12.223635196917419 11.725928020629468 7.561619213541678
Fe 11.04383125490802 11.87035091692461 11.50080330431535
Fe 11.776788045209749 10.526734275370707 13.303109981067376
Fe 12.904754844934759 8.373905192304694 12.651682101583162
Fe 13.103136095828452 7.876592288279489 10.392120077595886
Fe 12.650994418610658 12.200367456332911 9.781326911318562
Fe 12.737016556477572 9.794582058547364 9.034828893922437
Fe 13.174425984253833 10.345935667089654 11.35225890377282
