36
Energy = -246.43570707 eV
Fe 7.12338334592899 10.639621071556368 8.756081169086405
Fe 11.845724580583202 7.431980899370547 8.25285687331456
Fe 11.030152717711504 10.093965228070399 9.705158800167462
Fe 6.201563445260751 9.412161420775982 10.494740401884087
Fe 10.419698557478972 13.761700472115843 12.676461501840913
Fe 8.706267675433105 9.713357045273503 10.59580054325814
Fe 12.300684918956042 10.579352447481018 11.680738184867337
Fe 10.03790276688243 11.4113629291619 11.857974085238167
Fe 14.58336301780053 9.537050309970994 10.628747207743828
Fe 8.130236013520301 7.769191448267236 11.609891324613008
Fe 11.512758215017561 14.81158012930418 10.839892429279267
Fe 13.742195882758168 13.843436539186353 10.541252972468149
Fe 11.48485458502595 9.5216604171003 13.893212070361038
Fe 10.000079695883228 7.77900422793964 9.750208237232336
Fe 12.440055379894583 13.74077330396058 8.603384208876781
Fe 7.641505662958667 8.098181455921983 9.066573376744367
Fe 11.723467108957083 11.5078744574195 8.003052188502174
Fe 9.437470002820492 7.376117425916093 7.50805291535399
Fe 7.5225798807839315 11.618898323824121 11.286910701754602
Fe 9.249033584344012 9.597989424758042 8.136379420724838
Fe 11.273357461241492 12.612828405655442 10.224973834948248
Fe 13.423150045316925 11.089621539926567 13.891467438334274
Fe 6.865853955646214 9.554940296858728 12.605344766282547
Fe 11.312597664266164 9.184410226422237 7.178087533735506
Fe 10.62565635688783 8.684147227477537 11.887953268682645
Fe 13.543011350975897 8.953350345048253 12.709415431162704
Fe 14.606868205850022 11.502366902487962 11.90205185925656
Fe 9.026617951176103 9.834032127563384 13.199519163157808
Fe 12.502733598942434 8.235872403857439 10.46219472383314
Fe 9.067726387090774 13.610452072201584 10.784607768325325
Fe 9.224047856102883 11.753930373173548 9.2624703696446
Fe 11.072377617959916 11.758754305036966 13.94105048674472
Fe 7.111565530136997 12.95546825907382 9.451277418352568
Fe 13.270063330688497 9.55131245769362 8.669926369464548
Fe 12.562810362843333 12.85904933306581 12.325325075647257
Fe 13.418358587211062 11.64090193783712 9.76865169163143
