33
Energy = -227.08380145 eV
Fe 9.785541901964802 8.263492271435709 14.906501602246282
Fe 13.320292741102197 13.762773327271294 14.046853898896597
Fe 13.232711121414233 11.58564371144163 8.992057825992593
Fe 11.73056872525505 12.25892793229516 14.942295870701763
Fe 11.100519242325934 14.024044156758285 13.294803407409228
Fe 9.85426521092716 12.919538838220841 11.441837376351472
Fe 11.54885518290641 9.745852163475387 14.533119075523823
Fe 10.121670833201485 9.064980451249996 12.656681401540265
Fe 11.09982186267378 12.87263707936522 9.40110913894414
Fe 11.30829705109928 14.81305466561366 10.931391967772049
Fe 8.627188772931 10.232167637256707 14.09437466110222
Fe 15.413544579893324 14.978111094813435 10.770693120242285
Fe 11.288712954282405 7.957356715848758 10.9563395267456
Fe 10.508489446285662 8.838975915646246 8.862269292443633
Fe 13.28974808718213 15.088318281823458 12.175609267232463
Fe 12.764916095279506 9.319918875455155 9.653376966760538
Fe 9.003506639097674 9.081978141101368 10.546431749091505
Fe 12.493679933616713 9.594337949334895 12.258984444540003
Fe 13.988890891681589 11.043314315914202 11.077734770554592
Fe 11.062624165207303 10.649589666418466 10.709315800527751
Fe 13.463574757411429 16.009119064811376 10.00026783909038
Fe 9.057686097947483 12.516479717138383 14.082134829038706
Fe 13.324215755658026 11.306416164069958 13.720135043656567
Fe 15.494393707575025 12.638552067074162 9.924203862319995
Fe 12.339222666650631 12.57949847306401 11.86671872663849
Fe 9.242198313184277 11.167102110917 9.342312361058525
Fe 14.753916334733736 13.102893393349717 12.184589313152445
Fe 14.756693580040208 14.501561614243393 8.550750044818367
Fe 13.315606944573684 13.669989964209938 10.05656204702763
Fe 8.635216885754215 10.97765819866058 11.892949307245956
Fe 11.200756140481769 10.860771436202878 8.051114380942023
Fe 9.969625258341196 10.940474129036142 15.774941907380398
Fe 10.724577203302685 11.348664830152694 13.07252228846216
