39
Energy = -270.56698287 eV
Fe 12.522369098398896 9.743219388272923 12.59990147068583
Fe 13.042097079232231 11.138732455029645 10.852692781042226
Fe 10.308681592520118 10.345110703557005 13.70539027270766
Fe 11.019653749727928 12.070240801754332 12.065246789364156
Fe 14.186442124356532 8.888287264371016 10.815117315798483
Fe 9.640663709058817 12.588260691010051 14.079019775296256
Fe 10.760786579101147 8.134739048191335 12.727138764396045
Fe 7.97431539682081 10.851141641412108 14.258461785818396
Fe 12.937769177899561 7.26547817227421 12.40131033214453
Fe 11.295693548671018 11.549248546652514 9.385027121388765
Fe 12.91246194120056 9.970009142168093 8.678395586566362
Fe 8.414328440287601 9.052540486864029 12.541619477703367
Fe 10.406638536615024 10.018612564139879 11.144147531705897
Fe 11.03453839516963 13.709082474371634 10.27261663674233
Fe 14.081892429485372 8.036416289557197 8.475034546521785
Fe 7.198224926443421 12.843507978419145 13.200353848632714
Fe 8.594128951969857 11.32179409808062 12.084927452442036
Fe 13.57512857629029 6.573990654682604 10.189399147839376
Fe 9.138248748673227 13.748187517308898 12.032200387561563
Fe 9.336534462354823 7.506786658976679 11.08915885756649
Fe 11.962349608101293 8.443827717551775 10.392040890767637
Fe 11.29169669896676 6.1981836612532355 10.68417569446216
Fe 6.537458023428651 10.687802381363975 11.49387624315449
Fe 8.681720925772058 14.455663613154476 9.828125808655102
Fe 9.167594650141508 12.086788052758447 10.08827267125827
Fe 6.960444880257383 12.938881097167846 10.784002327350713
Fe 10.125744051427176 13.359987583587168 8.096626876125528
Fe 11.846425429902524 7.190659756193483 8.362777366329952
Fe 8.414315519795124 9.568626389641784 10.000387505298281
Fe 11.521340316516163 11.327334373849679 7.041299684626616
Fe 12.184184593115148 9.002314115880157 6.651426221582455
Fe 10.565944903729676 9.39623408295435 8.580040421391926
Fe 9.502716920188757 7.266578842507053 8.886399276747335
Fe 6.847590172240427 10.978758050837929 9.108499794081546
Fe 7.625792260003359 13.043270006627466 8.337692017417277
Fe 9.120093623132904 11.192159675026003 7.9314055872652345
Fe 10.176882918126765 7.679155131774985 6.643461769250757
Fe 9.887458213376922 9.941469115329276 6.065123268466683
Fe 8.24325849528098 8.967506649914329 7.665111202337828
