36
Energy = -250.29946037 eV
Fe 8.275940877783443 7.77537588715756 13.192409888113065
Fe 9.093286007053443 10.041778176729073 13.186353489817384
Fe 7.0435642896626245 9.443421808126827 11.980029043345299
Fe 8.094287659631478 11.644014541167667 11.490866392182102
Fe 10.746106919215894 7.640636871429037 13.069379808906156
Fe 10.056017143718588 12.303876282011652 12.67980740169231
Fe 9.30552089260925 6.161424392581187 11.657455296609841
Fe 11.437231549094706 10.226808593008217 12.650147179117779
Fe 7.422597574957873 7.343175575413298 10.820223574636428
Fe 12.481721819231117 8.477017823847026 11.550641396012972
Fe 6.092682367855446 11.048818318848385 10.239091471676831
Fe 8.168714490966863 9.61139626742443 9.869975630642946
Fe 5.734050454020582 8.78375689609266 9.955517191635977
Fe 10.044629915551324 10.838974004754105 10.801905869069696
Fe 11.233859645561317 6.844140036594318 10.487206733860404
Fe 9.908453797869628 13.220465352725654 10.287738014800013
Fe 9.685174646541881 8.608816290220455 11.349730885097088
Fe 12.045514130778924 12.403908874207126 11.51187930335522
Fe 11.942369845175758 12.83778949843615 9.064081883015657
Fe 6.542318148168896 10.329433508545087 8.014142195058973
Fe 12.344631247156894 10.518598216313872 10.213237779954651
Fe 10.350547440556793 11.246813474837003 8.564373281657502
Fe 12.710336255795108 10.6777650509521 7.856124074576213
Fe 10.843074060966405 8.986522072091313 9.009344135203882
Fe 13.097970417070462 8.332627766703107 9.189430112555224
Fe 7.087625066692623 7.915442159536526 8.262026412004737
Fe 9.664536592569178 13.530374180224195 7.92642923908693
Fe 9.212516241830397 7.215377460278493 9.201860906838638
Fe 8.765004331648775 9.537017974042879 7.643396310371075
Fe 8.086659983271188 11.900155459965504 9.03548240169158
Fe 11.603988431692832 6.67012429001544 8.185671584742304
Fe 10.759505410913258 10.04995533560337 6.389730510366912
Fe 11.3157785475909 12.38760231858249 6.680864959081602
Fe 12.438471697063141 8.526034763616002 6.916036017163905
Fe 8.76376325730362 11.710687196392662 6.694740454514106
Fe 10.002847303431286 7.707713076146328 6.882587725997119
