32
Energy = -219.67825987 eV
Fe 14.345379411501456 14.225818071861685 9.709694279729202
Fe 11.849311284679997 14.634585087227391 10.060865060883895
Fe 10.634584448844477 13.785001530682292 14.155559554396929
Fe 10.50491458413702 11.079596524202394 11.18766259192224
Fe 12.916949669567448 14.421373310808342 7.966251663084794
Fe 11.249284811308389 11.539486600297169 15.616310991273831
Fe 11.195936504225672 12.902250431038473 7.926393363142231
Fe 10.129224966983768 10.89422904015622 8.878417398714399
Fe 12.234925414228764 10.727839242819872 7.771786948155502
Fe 8.987310878968131 12.89934724638697 12.363931105078507
Fe 9.802438215260029 8.884794465595427 10.460566422559848
Fe 9.857616810789445 13.148723832410026 9.936742523450102
Fe 11.256454200784468 13.250930912802328 11.949150435374623
Fe 9.437135692859815 9.205030379970548 12.788045135784046
Fe 12.021673246676242 9.686110201842439 9.994830704788825
Fe 12.756175018769248 11.324778678162858 11.900045314806682
Fe 14.788295196724471 11.780643089094566 12.93186840031274
Fe 14.832607316686602 12.04045212227725 10.55666214058511
Fe 12.346750670896029 12.287643882585387 9.777383737397274
Fe 9.255419225656679 10.085268206729207 15.098918194591857
Fe 13.026080097266398 10.361170545071085 14.088169091361948
Fe 14.20277429432511 9.612870217447192 11.801447043233276
Fe 13.553212926389556 13.728262760044338 11.82872708295754
Fe 9.00361111155552 12.431773131575886 14.906037717523953
Fe 11.732760177012892 9.094971911933497 12.318296893160534
Fe 13.970702831152341 12.332414049007099 8.110481864803132
Fe 10.705789585026077 11.26577985341034 13.458288494559108
Fe 12.725003597042868 12.771371742070142 13.986830650372926
Fe 14.142687877282953 10.215292177677375 9.392703052336216
Fe 8.013735721759353 10.981456377068417 13.19477532813241
Fe 11.231049126172463 9.007957981979578 14.692959379286929
Fe 8.350305196682841 10.844801172926601 10.768856187265806
