31
Energy = -213.38018265 eV
Fe 9.271952089726797 11.377776291487594 6.2952159525995555
Fe 9.269304422534105 8.790207721805993 6.734707309252755
Fe 11.618684199993465 9.381890035392908 7.300136485069667
Fe 10.541085030679174 8.047492814713815 8.963503407103547
Fe 7.280847753976765 10.011703363424145 7.44753002787274
Fe 8.125150272196054 8.3687834804664 9.026474757111755
Fe 11.56101091581201 11.722752400321893 7.29047748960953
Fe 7.362069685253725 10.725370878963636 9.829952869146004
Fe 9.485597245288837 10.43041193509712 8.305777663503402
Fe 13.450316879184955 10.87575909126078 8.678629445225509
Fe 7.789012260085564 12.299506854906086 8.09833992848305
Fe 11.416802322847163 10.370940542980795 9.569733780808841
Fe 9.403640217313411 7.250960040361544 11.126306995079682
Fe 7.5498980378810625 8.867816691979892 11.65954564360882
Fe 9.966704125171056 13.176362163509552 8.17823919748231
Fe 7.750503057813471 13.102892438749254 10.686176918585417
Fe 9.559329661098985 12.02812595923301 10.084312664638874
Fe 11.855615865424927 12.596791165394293 9.793447490161938
Fe 9.40166549238284 9.659934355368174 10.601045572279874
Fe 11.503132390438552 8.586387812780627 11.18659555072084
Fe 8.455390903018333 11.305598319703765 12.111521304896984
Fe 13.07787410038183 8.557082611003548 9.330196783403045
Fe 8.549404298292853 7.351956972105319 13.276594307387327
Fe 13.314636864124509 10.556462290342056 11.104770583702088
Fe 10.95707991126993 7.280979590583453 12.994866233302883
Fe 10.123893648686714 13.13525098302922 12.089089731481064
Fe 9.71859047031402 9.322074941672293 12.991247693707972
Fe 11.08047298366202 11.078871923514216 11.832268374891173
Fe 13.667659330739633 8.303048307452302 11.702365340507582
Fe 12.139578658280918 9.603599277048241 13.268748725451792
Fe 10.379326248036005 11.534142011494673 13.886193954826872
