39
Energy = -272.40325195 eV
Fe 7.825444097033343 9.277609656470744 8.41873633277278
Fe 7.3927391735549275 10.941228313145261 10.101739735080512
Fe 9.948197841293588 8.987204579475964 7.476708464492493
Fe 9.043408810029321 11.35784028333166 8.16162825234957
Fe 6.337027075226027 9.871784197925217 12.030149100230524
Fe 10.539777023137853 10.893773898764822 6.129447991769333
Fe 9.566793319956165 7.4939527964224775 9.342876963516286
Fe 12.29789688503915 9.190983962596059 6.670439747136565
Fe 7.755394079672175 8.458934267399204 10.625438678706415
Fe 9.280995122671563 12.194304897139572 10.853169584958435
Fe 7.546904614863474 12.0200495751998 12.631154417569373
Fe 11.803909290193317 8.272997778788028 8.873373217372695
Fe 9.857210441083552 9.955668263499339 10.003799065069414
Fe 10.512947744985212 12.907254686554957 9.120530822509892
Fe 7.443479348750847 9.84182754182256 14.18820795920085
Fe 13.061769999633086 11.38735413271848 6.5470807887942675
Fe 11.467291958438462 10.751274919666713 8.413095696928117
Fe 7.88787318785311 7.891602932607319 12.936184997412493
Fe 11.243396940642942 12.9166021836774 6.9567762169737195
Fe 11.929218617268855 7.017100298607839 10.816525632944696
Fe 8.697751693193727 10.141047264947279 12.177432844203087
Fe 10.095052457687418 8.18855274247673 11.630399896643196
Fe 13.664725101199116 9.999262519209292 8.675754608796561
Fe 12.051538688747353 14.589704612255352 8.877919045100638
Fe 11.839101266555534 11.837706522576381 10.689490338905044
Fe 13.116576741411125 12.499736168563931 8.63361686329708
Fe 11.064693917406045 14.204415911227322 11.065718754434682
Fe 9.838455676559702 8.74997004511954 13.98843175007494
Fe 12.437490211361295 9.510958937443492 10.795519507008233
Fe 10.180233560527217 12.876278539192223 12.877512474406158
Fe 9.433299009132032 11.161708254467264 14.372047285523951
Fe 10.96139788555833 10.582623699096304 12.538079127428782
Fe 12.16509288513321 8.340125379325094 12.896441570758174
Fe 14.15948992855212 11.554276023270766 10.71688324742176
Fe 13.537117222235805 13.95596126833754 10.564014538609406
Fe 12.667644877198228 12.985652990060968 12.563076501688055
Fe 11.855098941453546 9.88552338633701 14.718337599316285
Fe 11.709258515386276 12.14762189349817 14.530905880563342
Fe 13.28976879692999 10.664987624336035 12.896817447586548
