31
Energy = -212.772601 eV
Fe 10.578481597451963 7.5304713578114155 12.495927475262103
Fe 8.992026505844875 8.972197926833298 13.33708361422569
Fe 11.247604209502928 7.4372181144938185 10.253927946583515
Fe 8.257257148310648 6.837263693413101 12.522118051930683
Fe 10.794525791676335 9.825401118579956 11.450317820300825
Fe 9.345907699442382 6.035285676489158 10.616266313460983
Fe 10.92705560427582 6.609691516182166 8.034946595041875
Fe 12.792614297546436 9.242452090094984 10.27681953543962
Fe 9.041645651975807 8.518207562870323 10.809547029670194
Fe 12.982421873451413 7.766229891684728 8.460790767624054
Fe 8.560440447611343 10.721563551697843 11.839705857951884
Fe 6.904476805343172 8.946301351737931 12.044737511575532
Fe 7.0385264777093335 7.093505071875666 10.523884803279394
Fe 10.689133774822517 9.12141354219782 8.672634233400581
Fe 11.784956617625214 11.219326866656342 9.711238965370939
Fe 8.811028365865612 7.486860273232009 8.748118382623273
Fe 11.899050273897918 8.333093106106066 6.431564210020846
Fe 10.551547539691699 12.268761397843928 11.432815268815595
Fe 12.726541864638111 10.078273683200822 7.7825969735560605
Fe 9.624971596973072 7.797995732709146 6.443969053918668
Fe 7.210788461196082 9.426230135193558 9.665363327219781
Fe 9.103689742388976 11.053457608256592 9.574047044449209
Fe 8.406135314651706 13.07144920314867 11.25757865056213
Fe 10.773729386575264 11.444490850939404 7.681474079194301
Fe 10.308299007470373 9.972293548727993 6.0180212130548
Fe 6.696443743358307 11.54170242230176 10.584106545075866
Fe 8.602400851066193 9.747710296735153 7.622838883344566
Fe 10.087341542859644 13.130558947052426 9.25205318187174
Fe 6.704078025372186 11.282849480513946 8.190801444039995
Fe 8.616907078650266 12.06323939937518 7.137328842068294
Fe 7.752245132394368 13.2399111035175 9.014969630278053
