32
Energy = -220.50798961 eV
Fe 14.46166173846174 11.464533826813502 16.03088121006079
Fe 10.517894168804833 11.217003347016515 14.498604156882525
Fe 12.31265167458745 13.361769638216648 11.907997831127881
Fe 12.403654867805946 12.975091768213096 15.774144267274385
Fe 12.625227101562208 10.386913479482875 10.015489250482094
Fe 13.010391726258263 11.788377971970014 13.926739230586437
Fe 11.966573610142989 9.259605824901266 14.03532441891115
Fe 14.22613964562352 9.545321520951415 14.779603772185201
Fe 8.62242570671876 10.532745190987825 8.739054013813748
Fe 9.523186367046057 11.918673785220044 12.222103282343156
Fe 9.952309785839304 14.174894829011764 9.072408172440426
Fe 10.847429536636932 13.374972595362427 13.819744760273444
Fe 12.026327460741877 12.518884964158486 8.045180324876394
Fe 13.74185248006287 12.660316029863791 9.791840198389725
Fe 13.89465309906548 11.523299661244835 11.6578499198164
Fe 10.981603318251565 10.295914719236189 8.275160009318
Fe 9.692551376984552 12.303223688498045 7.74913490098864
Fe 13.719615755642588 9.446847222999011 12.404969210770004
Fe 10.100394386597483 14.122649053106759 11.439337336841255
Fe 14.706060559771679 13.501532482137128 12.470597890578663
Fe 15.152712488276634 15.43238745650164 13.710059304081215
Fe 11.076519856038407 12.211233135889538 10.081607742003506
Fe 12.20166367563099 14.395192295194448 9.809825778581077
Fe 12.977267425664238 14.545491032596246 13.895288629789661
Fe 9.84450952319126 9.471677353767268 12.913039044124742
Fe 8.57805663591725 12.484747095486306 10.082605437038021
Fe 9.992322350697668 10.17393577987347 10.548494222757595
Fe 12.268111851284829 10.589975960728221 16.028276836504855
Fe 14.853823968913265 13.449731812622728 14.873026307235286
Fe 11.649991634600878 8.640192487871756 11.5158115454467
Fe 15.329507903510587 11.30264285377415 13.62459094351982
Fe 11.638115426553583 10.96536534486622 12.210604151130196
