34
Energy = -233.37515814 eV
Fe 10.798708252478784 14.920796637636395 10.418815590383979
Fe 9.633006744519307 10.361939054978262 8.243530072924383
Fe 14.170540963954815 12.120387618992332 12.84480415380149
Fe 14.528734088401688 13.245548757632227 10.783430527197828
Fe 12.410990601574195 13.599539959148148 12.132301914330451
Fe 13.31739078112394 13.264669636992616 16.295577163231396
Fe 14.13315665540644 11.162203414735622 15.14670872435345
Fe 12.031778552927191 10.046949452567487 14.567035230472158
Fe 14.843204905702686 14.588033475340227 12.611532809558383
Fe 13.088863027208498 7.490591521991675 11.8458381606198
Fe 10.814888900903744 7.873295307196896 10.479159542294555
Fe 11.622961261578938 9.158721089935419 12.333556541106912
Fe 11.138281369430512 11.4260341489915 12.79520571937457
Fe 13.715595120402726 9.857927757466618 12.872586517718352
Fe 11.312291084062762 15.884027678548351 12.50976290034953
Fe 12.76828943225882 7.036953800742086 9.55678158511232
Fe 12.246645946546217 11.012802378645041 8.659191341245316
Fe 10.327991643459608 12.48935694686267 8.695914612354892
Fe 10.333799549111356 12.707865677009556 11.027207221973335
Fe 8.653005084070069 12.449591282809763 12.646775633329357
Fe 13.189788647329943 15.414489176001071 11.017386555629662
Fe 12.388895202228394 12.488421309521005 14.446420953968694
Fe 12.418227719963815 13.221278689037248 9.699145562781494
Fe 11.469577129484612 8.780040821699778 8.412739221775407
Fe 9.261884194697563 10.198761255359983 12.104870068320091
Fe 8.516408373054933 11.438818172045128 10.167200104774153
Fe 9.931348525044184 11.779503877934252 14.661442913173326
Fe 10.723466683513319 10.321303681973738 10.287474884661377
Fe 10.548224005096124 13.855955511360015 13.597421791145896
Fe 14.960062440846002 13.395966304753513 14.745542920715192
Fe 13.138125571304252 9.219749396265442 10.221991812793782
Fe 12.822776605896523 11.423209825805438 11.096085948142274
Fe 13.017587002630385 14.83497616413985 14.058308161574045
Fe 9.06430962903583 14.709989984529226 11.972168921093779
