34
Energy = -233.61986084 eV
Fe 15.341437468438155 7.583167634187381 11.797499804420163
Fe 8.941943950550517 15.276943183491102 11.79483252626831
Fe 9.360544442758851 10.630052397705947 12.950225115417101
Fe 13.58769550219845 14.381179658918324 15.57243404395939
Fe 12.161176300224213 13.730271073913551 12.938442834731397
Fe 13.210400058362382 8.08675679220853 10.797826237994602
Fe 11.248921310504167 11.334157685161758 13.994224345065364
Fe 14.783312391462822 13.431563756652112 13.779178064392974
Fe 9.615995704669748 13.086899129305316 12.923915597207907
Fe 13.777610306698056 15.560172987353752 13.105392891681976
Fe 10.685127900754456 16.186172585531473 10.10561395370072
Fe 9.250062233127867 12.228543407075927 14.972219694962504
Fe 13.154250716951825 9.81431401220149 14.229748384242468
Fe 14.536478171487996 13.757152072620332 11.517469280953419
Fe 15.261263137664807 8.57100439807092 13.94067375821085
Fe 14.72954013213727 11.609681587599223 10.223144062313569
Fe 10.576555215533428 13.958563215905235 10.844407635409127
Fe 11.827490614770445 9.558446030304442 12.289254674601388
Fe 13.354547997680154 11.682166372015095 12.500282781785632
Fe 13.29644469851791 7.645130031310757 13.045250162301496
Fe 12.69463757281785 10.387907116668272 10.259828680644066
Fe 13.217846197418249 12.123169979331545 14.942474509942555
Fe 11.203454608341818 16.002758122999214 12.438621480666654
Fe 11.72432342446715 14.395764737385619 8.84073327503068
Fe 12.60938520997008 12.811165223761815 10.38921131808583
Fe 12.812175476231124 15.294205773451356 10.802728858150173
Fe 10.950145282231919 11.682578702241072 11.553143564340482
Fe 15.228302045789755 11.010201063431696 14.060802541202094
Fe 11.99769309059145 15.751680739430588 14.620249685899802
Fe 16.004352219796598 11.908272517308532 12.13237380268452
Fe 11.23120422886258 13.52721148554667 15.193668398707208
Fe 14.537037031565783 9.746827202823525 11.93766748868624
Fe 14.157680000615331 14.02933889904628 9.195146497510086
Fe 9.798483170908222 15.053705670012121 14.143264344436558
