34
Energy = -233.71839648 eV
Fe 11.205561979047218 8.674609127383006 11.281373460938505
Fe 14.439622689351731 14.540868668717994 13.195430268954327
Fe 14.415333720329581 10.89754250070781 11.417855546589685
Fe 13.58015967442716 13.980146095885345 9.051451730702299
Fe 10.685367748485989 15.176439400905888 12.021306745364136
Fe 8.873069228401521 11.549448322216598 13.930166794753243
Fe 10.235379421490501 12.712220807184988 8.959140293636882
Fe 13.894889267116193 13.909237628790297 15.45785146542824
Fe 12.652564826355267 11.959015688595487 15.75921114596304
Fe 10.892560168059088 9.356458796161185 13.578969028893992
Fe 15.015961590238144 11.623093269619078 15.328074464003771
Fe 15.276714720604968 10.131952733008085 13.502884530438411
Fe 11.886568381978707 13.997407334662539 14.166737379347362
Fe 13.300812038243826 8.843376854245397 12.332989177968736
Fe 13.623162441613072 12.233532036647828 13.412735100387993
Fe 10.611267325970365 10.529119357358262 9.866476057400606
Fe 8.397309246308945 11.629587475249176 10.11117664165043
Fe 11.335220364439898 14.467285866064387 9.905573536825536
Fe 16.024644328425154 13.651429108349102 14.696263258690308
Fe 13.25563081176043 15.34825313598241 11.132681734700254
Fe 12.291215315323473 13.508519152410974 12.054406752759492
Fe 8.92742555011058 14.211768237145552 10.706991107341604
Fe 11.13735627014573 11.760602602348632 13.857742426556865
Fe 9.43492342295242 10.347693740151513 12.009937961633005
Fe 9.48695493542868 13.80195773661008 13.437108412420523
Fe 10.253395585454252 12.504052950342802 11.500749896194547
Fe 12.43018690855262 12.191350363824277 9.88854823725707
Fe 13.059207829705088 10.060480846691487 14.362891177531488
Fe 12.995435932645197 9.749591195327335 9.893283654700882
Fe 14.476329119995889 13.247431497707971 11.164746433595655
Fe 16.0062868314393 12.303411666192163 12.830144845717657
Fe 14.691011449905782 11.717289129861962 9.269180851884856
Fe 7.806694954085175 12.685937325167972 12.191660448095599
Fe 12.057973783941216 10.889378778523971 11.94007164371119
