31
Energy = -210.91169443 eV
Fe 13.706318019834164 10.152575584636116 15.440010829265725
Fe 15.304807641239954 11.53735568807128 10.112445421170722
Fe 12.25196277311471 9.949063942619558 11.703603070127873
Fe 11.573526019164829 12.25741191338555 11.430901031501412
Fe 13.34926663633437 12.440540246355514 15.948119990483205
Fe 11.574573413393484 10.768949286178131 16.173858339290927
Fe 11.119119939348117 12.945303772234174 15.191196148973246
Fe 9.21007124278018 11.711049531012819 10.860713718581
Fe 13.89251471552923 11.766052609629345 11.81626997483096
Fe 14.14257915504381 9.76498957685892 13.092002098819023
Fe 11.346407750275581 14.224165326637573 12.871531053405068
Fe 14.88730761192946 11.799587994813693 14.140662336862873
Fe 13.476797596002294 13.607615411622945 13.85142761594454
Fe 14.247937627743966 9.334607453666111 10.774683680225179
Fe 12.884378177262702 10.851525496878171 9.526618638066582
Fe 9.769396580461372 12.444084398188473 13.214606310506067
Fe 11.851238048096034 9.207841968522787 14.094838986712809
Fe 10.64076964493433 10.226630918277484 9.848280547984858
Fe 12.20891645345194 11.518457404865982 13.70972001379566
Fe 7.575303544483884 13.16642356675598 10.051156932116024
Fe 15.502760656016072 13.230931942894612 12.32200344410104
Fe 11.4677640852466 14.663898697732671 10.31437356000584
Fe 9.170156243311103 14.158629640127025 8.814445151778184
Fe 9.537611403757944 13.92968354800901 11.229975717761842
Fe 13.305850299265845 13.090026023320501 9.678997868878769
Fe 16.040361742213335 10.655807581697806 12.100746879552704
Fe 10.937399668344375 12.644160970204387 9.249977660262553
Fe 9.937280195410048 10.57627079004397 14.638786577821365
Fe 10.138817102020461 10.175815591197555 12.334165257657704
Fe 8.773120274899812 11.934591336486834 8.57729684485174
Fe 13.471926853041333 14.309285176886616 11.618496397059191
