31
Energy = -209.63914118 eV
Fe 8.791955120612341 16.669312318973173 12.461302522779809
Fe 12.627483496452072 10.375362459756118 9.140700580972865
Fe 12.335834542142715 12.194732907301857 15.431495876322373
Fe 14.413056082469243 9.713151804317771 10.5389414201859
Fe 11.021482464219906 16.334529124545945 11.731063397364961
Fe 9.279012294461912 13.102672772494941 10.094101404636296
Fe 11.743104342580503 8.58834164880656 10.364651347621592
Fe 13.664183009846116 8.109408895307633 9.080561767768694
Fe 13.806222463330318 14.070979756945306 14.905209323625005
Fe 14.372535259581879 13.835634222627018 12.601921666368762
Fe 13.58248383153664 12.186168677934136 10.730646556243812
Fe 14.546581902527581 8.871559169125817 12.738005467478596
Fe 14.560117326782338 11.22113284963799 12.5176360048081
Fe 10.814259183050156 14.973943358687182 9.711703706856069
Fe 10.302731666259126 10.669917873967583 10.1312586014654
Fe 12.082101139507099 14.912882900765629 13.404030913677813
Fe 9.984858596658947 15.62035955720298 14.105488406817848
Fe 12.61029752354463 12.505008474279293 13.159796477015709
Fe 8.758031013979037 15.624274978083257 10.419036599353383
Fe 13.172474638922976 10.283628680002577 14.1312136958235
Fe 11.52777652881497 14.529931487588916 15.746883809384451
Fe 11.531205972375323 12.47084876941715 9.395368964818482
Fe 10.401789557778464 13.124471444446307 14.115332278232238
Fe 9.614426277667317 14.355287875193955 12.154201004594734
Fe 12.207310568592687 8.406346022907055 12.814650761222868
Fe 14.761250206397989 12.028662754351386 14.63555160054646
Fe 10.640613394309401 12.265402399409686 11.742227929503928
Fe 10.776922994532207 10.794476511271363 13.640284889349433
Fe 12.225417473734842 10.465139954506194 11.780233244719478
Fe 12.16723681619485 14.051936023466743 11.274730719305381
Fe 13.683097572878276 7.318204610746041 11.258573580236957
