33
Energy = -226.45955156 eV
Fe 14.83496680661199 11.260177493799448 10.542132548403243
Fe 14.15524998667041 11.11711658105085 12.836465859490387
Fe 14.05183705153436 13.242425267587672 11.46606902097893
Fe 13.466146137704083 9.951003820736638 9.204801472546752
Fe 12.641608349123857 12.789171698330367 13.285806410432242
Fe 13.353424007803225 9.29150494815425 11.55147437728142
Fe 12.706002630725914 7.70357295205153 9.945468499412094
Fe 13.338929974073512 12.575904631976574 9.186501099103927
Fe 11.829292034227933 8.424521775030529 7.863884527988483
Fe 12.289752595691441 11.381075531992616 11.100563186474995
Fe 11.795153126677018 10.409307861476385 13.25412602410922
Fe 11.86682931667762 13.826434666364964 10.92365827135934
Fe 11.143431040551857 9.763823917212227 9.557550766353668
Fe 10.499202841765099 12.560718665395216 12.4633016299166
Fe 10.482775603042395 7.167517288725222 9.80441228256055
Fe 12.158365770518436 11.082497233075749 7.671355716615172
Fe 9.508250355440454 10.587459914874099 13.65007713082804
Fe 10.896808723297504 8.769148906240588 11.689475972972167
Fe 8.947199661268298 7.245737943330028 11.694596317387333
Fe 9.766189532767271 10.51084985036551 7.851508175815967
Fe 9.927362019891792 8.28860991577499 13.71481019572871
Fe 10.912757935640668 12.244292641167318 9.352274183323528
Fe 9.45170722715201 8.17495633937895 7.899081814989396
Fe 9.233230719482787 13.487431132275477 10.648319667016796
Fe 9.673234006396436 10.925164425809545 11.079349375537554
Fe 8.810770116098631 8.935573820438787 9.95161487412873
Fe 8.016761348262662 12.137189132765084 12.277291274354871
Fe 8.165262311038521 9.315204811698283 12.314951824038214
Fe 8.54644290442277 11.839380834427683 9.053169896757542
Fe 7.42392590197293 9.827677842843014 8.06914320116359
Fe 6.9150015092554264 13.02742843944977 10.390425977097793
Fe 7.225983338132719 10.608120714347173 10.487803873098871
Fe 6.197101410932515 11.685601892198086 8.572242421298533
