30
Energy = -205.89876631 eV
Fe 9.113655726526678 9.123668491271632 5.981892712044818
Fe 10.414214140496744 7.314988366594647 5.4857317028154124
Fe 9.995353924149743 5.3145184335180975 6.511349234957543
Fe 10.50251337480938 11.287128702934698 6.685772182651832
Fe 8.064778723008775 6.707515400968143 6.579452994697011
Fe 7.958859536526458 11.14499007049746 7.102843134958569
Fe 7.567143494912704 8.758861625549661 7.759000485113961
Fe 9.628353416061751 12.27835021691488 8.704704595882138
Fe 9.711207597633615 9.799821762129156 8.187359943189508
Fe 11.460254566016593 8.882371468822923 7.0161360522980125
Fe 8.986648357417083 5.031935085592874 8.526871918898394
Fe 5.5697992111205075 7.811245654672346 8.122045734739396
Fe 11.849860911578384 10.80186967999273 8.752966871943084
Fe 9.84038702491461 7.272114991308787 7.943038338163602
Fe 5.839761535032084 10.29207243643384 8.345490572837747
Fe 7.478570490988279 6.682419225367658 9.113685324821908
Fe 11.28804259007575 8.35018723326772 9.560302125215232
Fe 7.793949492213204 10.737679896996454 9.479813042155872
Fe 8.782057038593697 8.466476090213234 9.85540854884352
Fe 9.83149462951865 6.416713898202525 10.355383150660755
Fe 10.00085045849214 10.424068496352536 10.408968045369544
Fe 11.181203696395798 12.352001704287467 10.51682093879374
Fe 12.063943993680843 9.910107400713494 11.143213656680688
Fe 6.34153006787915 8.776954268159255 10.153301444649907
Fe 8.677144147618236 12.334635926127486 11.121038590441055
Fe 10.150716338764187 8.435874410900201 11.879416405701923
Fe 7.8234457342278825 7.306382924274536 11.562605185766762
Fe 8.00599083941401 9.853182069540816 11.77297275284905
Fe 10.291846669444876 11.015128471795935 12.58151842745662
Fe 8.282537250231991 11.612850574342616 13.287010863145877
