31
Energy = -213.24695753 eV
Fe 10.362716216093308 5.812422518350364 8.329245905798754
Fe 9.394459820589967 6.433412595575841 10.428737783544141
Fe 7.971926035266193 6.179873676655052 8.293893275016183
Fe 11.652968687455028 7.234443316761509 11.985935327268976
Fe 12.061900452307382 6.392960078800303 9.810385630034029
Fe 9.42808529940803 7.127184017831883 6.372254132768481
Fe 7.402956645019955 8.44749668189468 6.634480371214037
Fe 9.092351076342355 8.07324572009466 8.453565191382465
Fe 8.212204285433023 8.929063772428192 10.50766730529865
Fe 11.467648736131 7.893152963639604 7.785546722151669
Fe 11.961453672579715 9.648688770713123 11.93395432786413
Fe 6.591132989710231 8.232212449697647 8.870580441414626
Fe 10.588737465345314 8.341380387460976 10.238068047080551
Fe 9.614243654065348 8.53148470201145 12.401446903022268
Fe 12.801818024687268 8.677268729629926 9.739041112614615
Fe 10.1261347767629 10.643346661301226 13.23258393875974
Fe 9.92845581797553 10.535740142096705 10.751981993591224
Fe 5.902545064984254 10.169990433290408 7.6409744948558656
Fe 7.956097707251589 10.713609167128634 12.103379994642177
Fe 8.252619341785078 10.156868287508658 8.525565437221122
Fe 12.42699956838206 11.099948757080146 9.891942338722865
Fe 6.399294835306893 10.562494832914984 9.94433660132914
Fe 10.750716888658678 10.156713977035098 8.517864609715188
Fe 9.79942512489771 9.52557866041277 6.450497023238876
Fe 11.556906768875363 12.103835946362627 11.837553815039
Fe 7.824122156705145 10.807260949855266 6.185750080362442
Fe 9.286778588358906 12.649921389031071 11.981419385627392
Fe 8.261167195586408 12.068661578983582 9.914943009404958
Fe 6.9579019508312845 12.259413087200517 8.001202326989542
Fe 10.565383664010339 12.584146520946517 9.637397516877247
Fe 9.416042674875793 11.97747817653545 7.525918855938897
