36
Energy = -248.00236153 eV
Fe 11.520011413189824 9.719847197514818 14.239864338822846
Fe 13.512390257419574 10.417153371662735 12.879385619693235
Fe 12.55160870594288 8.137139452120959 12.650060443147588
Fe 8.243633598809968 7.570589546734045 11.224081525941406
Fe 9.997768137160783 8.991919403498784 12.564936633051538
Fe 10.770684386213295 7.112258326768373 10.987962363412832
Fe 11.990550289418323 12.090114694226141 14.3281447586614
Fe 9.718471874014032 11.182275617576073 13.758193724096293
Fe 9.273100824662176 7.024428920065207 9.030137844358464
Fe 7.3833023665973165 8.412336545365093 8.722247791170936
Fe 11.439285462631528 11.091152844392889 12.079961094700083
Fe 7.9170892198322385 10.154862985406133 12.243509037346087
Fe 14.435245195949719 9.257944767210661 10.947970789334404
Fe 13.135736577548656 7.369899757346397 10.292614116753938
Fe 12.995183091148835 12.909458419387052 12.31282867611735
Fe 9.548606192734107 9.105714211637974 10.247095074146621
Fe 11.973344258841514 9.290791449542612 10.790203721331407
Fe 10.557159794623132 13.251937603405507 12.584588322742851
Fe 13.30242962691121 11.380059226524036 10.510835756491495
Fe 6.54296191459076 9.268436783246958 10.650948063258362
Fe 6.966458029074143 11.978076386203535 10.640463510365894
Fe 9.35232693641928 11.678716163551423 11.270688079556166
Fe 13.322434110833088 9.680700659700758 8.777539706710167
Fe 11.380686796859257 8.308891312207153 8.741162431601328
Fe 9.48060576180423 9.252399005594853 7.755806436171226
Fe 13.064927543990553 12.02035407003179 8.263754518498436
Fe 10.856465921839796 10.961462260442705 9.289307683869211
Fe 11.522046294650444 13.071483057075183 10.290356229961311
Fe 8.268694236070464 10.7451776085606 9.243880063615121
Fe 7.411402238605535 10.135761478878885 6.981022262533879
Fe 11.589685036786458 10.498332482235117 7.117783221067496
Fe 5.932279879043554 10.6593571618656 8.794664971189551
Fe 9.152437712061726 13.079326877910177 9.318541317406343
Fe 11.037719317296697 13.117838873486471 7.857302800172129
Fe 9.371520983701105 11.645724399858898 7.165480599993799
Fe 7.224315900361965 12.514400103155984 8.020241867464629
