39
Energy = -272.22277143 eV
Fe 12.113846081547651 9.270819038619885 11.095419535254049
Fe 9.649592374650442 9.745516065181256 11.093515058871496
Fe 9.220843477357237 7.561996061194111 10.150329159009264
Fe 9.602626732225595 9.703433345499862 13.626975187795606
Fe 10.539792344981494 7.72092027954662 12.29805158988892
Fe 8.060415958111207 8.257515105594278 12.253380319070578
Fe 7.683130395298378 10.763737870235051 12.30111620223859
Fe 8.382566575626381 14.250700285056547 10.147961733079773
Fe 7.445600085449129 9.459726265860105 10.150380614495111
Fe 10.264908213295827 13.208455516894787 8.87021898913928
Fe 7.428049038842727 13.289954492500735 12.255672128888413
Fe 9.698142819166693 14.422459861135271 12.301493902305122
Fe 9.280421518036212 12.268168841991944 13.631677222313398
Fe 7.12454528501264 11.970312674961816 10.151334073638534
Fe 11.20014971120143 11.203638095410946 7.5542550206000545
Fe 9.336226740627167 12.235205587882039 11.092515912772145
Fe 10.79010655184013 9.032100372318816 8.869707175122834
Fe 9.019697789630664 10.931053021210587 8.87841157939589
Fe 11.204316425186997 11.210679303126836 9.903393704377528
Fe 11.703700871238553 7.086990566679253 10.154435478123029
Fe 14.314347091351173 9.493528284532688 12.29834331722667
Fe 13.326479477777466 11.474759611440918 11.094563357751781
Fe 11.61022807762423 13.294153673340157 11.095180207994728
Fe 15.276162230731057 10.405457677083023 10.151600679250597
Fe 14.057000663523082 8.19192202347291 10.151717988726174
Fe 13.795850686029086 13.633101331261363 12.300151600885256
Fe 13.143450599189073 10.137046583613458 8.875278815975692
Fe 12.820576714965476 12.720757726710001 8.87691093674038
Fe 13.22816707289492 14.83517842266279 10.152366454191682
Fe 14.952475560788386 12.986668333877788 10.152185861753942
Fe 15.485381261060242 11.745525195130337 12.253090345795535
Fe 13.387383297833054 11.480886861164723 13.627164917867294
Fe 11.206655016628218 11.203382179850232 12.440627193939514
Fe 12.022038241051524 15.442204020813527 12.250930919189745
Fe 11.20572650837774 11.205404359934494 14.892882142135896
Fe 12.1403420923874 9.21609059645356 13.626883740209015
Fe 13.039468722235863 7.300431345182155 12.253275965808495
Fe 10.669973654265485 15.324710573500473 10.150869599233362
Fe 11.620696148096258 13.366490761347364 13.626813368943994
