33
Energy = -226.87664038 eV
Fe 8.004273270230993 10.02612136072195 7.279319483299444
Fe 6.709899534035212 9.16614960068283 9.362171048436243
Fe 9.280803171547632 10.738045268004225 5.379564029447384
Fe 7.50328095130719 7.113500824903098 10.40450102938847
Fe 8.856450175210895 8.209241530864388 8.705415405205684
Fe 6.382510702760619 8.682472977185665 11.794101952955284
Fe 10.200847630440624 9.122470832497024 6.753303423321606
Fe 9.862743748564377 7.215288638471028 10.873580656579001
Fe 11.164001556105962 7.696824141962862 8.7201661055588
Fe 9.501107783329424 11.92527861874146 7.350088836159203
Fe 8.188405195224728 11.245282960557986 9.320357541677238
Fe 6.599624935064664 10.869935152565905 11.037888733372785
Fe 8.758200638618941 9.39866116759109 10.777686590984908
Fe 10.403302997599974 10.230593687372263 8.899710594345974
Fe 8.318325685684153 7.6807009582045245 12.698076909085906
Fe 11.48519449589064 11.21520973539012 6.3627952652860325
Fe 12.400816952075308 9.600830061791811 7.79910655856661
Fe 13.53624354058464 8.232152650446263 9.517877381925686
Fe 7.84847025696693 10.026620102329774 13.167400386128028
Fe 11.612008479019359 8.809415630663667 10.71869015924597
Fe 10.132952216887665 9.216227101407096 12.652910700535568
Fe 11.850827037297313 12.22007654956444 8.565001456313533
Fe 9.907665380512404 12.871636378041293 9.779005076781488
Fe 8.749966396582463 11.695475348538029 11.739963178375792
Fe 13.015473315899593 10.643399169309987 9.870599138930231
Fe 11.051075911795737 11.191592091691136 11.136166062858717
Fe 14.062967609999554 9.068403122972118 11.400236357185902
Fe 10.162955678797754 11.398041348174866 13.645399296210442
Fe 12.358940431590394 10.10482407393977 12.88496287613678
Fe 12.35386984586644 13.214993492715097 10.75203602213819
Fe 10.326439588355454 13.485825374968604 12.085271851069919
Fe 13.797403860443184 11.641251977950795 11.838620609676134
Fe 12.156002702371653 12.530119572854563 13.20529163349138
