39
Energy = -272.9105964 eV
Fe 11.752049810588723 14.48009568796443 11.497318502022658
Fe 13.826149459331635 13.158390287894385 11.517305375573642
Fe 11.072471616162952 12.371365845176541 11.34645267535985
Fe 7.687491876895131 13.739803493554929 12.819046978234383
Fe 9.959500314217175 13.52386366493365 13.156163727011597
Fe 8.903732425454569 13.667467585489513 10.81426522930503
Fe 12.396194514823677 13.050703931867767 13.482359070713125
Fe 12.600282231360627 12.617243847813127 9.546132528195619
Fe 10.102160297474049 12.279190777683937 9.16317103175981
Fe 14.572945578592536 12.049596337551415 13.634775010638755
Fe 6.606178085292507 12.08347199309503 11.60468733338333
Fe 12.839473628801485 10.95228658750753 11.98600806634369
Fe 8.24354725802708 11.774019446566495 13.995779175097297
Fe 7.6660202545656695 12.070546158900408 9.413204219580972
Fe 10.745067083633321 11.282447320272833 13.60746121609113
Fe 15.383159136876413 11.268672574188155 11.63277953193645
Fe 12.918430996773107 10.743241275389382 14.558661565999975
Fe 9.079054629667995 11.327852131340252 7.3430259426377535
Fe 14.79739138011758 12.167201588286817 9.38409841017997
Fe 9.209056093665364 9.504985581711113 13.640199838743143
Fe 11.690310854317213 12.060426450151994 7.433077424783448
Fe 7.0056751713400685 10.003182263454345 12.809103179929803
Fe 8.82535562248366 11.358995992918448 11.682210618165268
Fe 14.333486030240367 9.44745216072202 12.841950355450257
Fe 14.147152956604584 9.940039643385541 10.104024775263525
Fe 11.841834766373704 10.468379628490858 9.681447045139224
Fe 13.50037572181398 10.615203132018582 7.8443681751449565
Fe 9.183403718314183 10.097152902473319 9.491274834682896
Fe 11.079043904534078 9.763669138739536 7.535135498442243
Fe 11.889665595716922 8.96804452028804 13.451907988725813
Fe 6.972093809768646 9.873985083295459 10.380049731349795
Fe 8.64510334578254 8.599570841864635 11.514443308442669
Fe 12.699380174875815 8.428837200027125 11.152043920326339
Fe 10.678309468930541 9.749998846445841 11.640388346319954
Fe 12.837371649279026 8.393124293148869 8.590472927470142
Fe 8.845068499069141 8.910873684819837 7.406858968403143
Fe 10.744168933787693 7.458534174933336 7.459722510476819
Fe 8.281209765848345 7.76259390449749 9.346052230898255
Fe 10.63175838889932 8.17861507143961 9.683697782078891
