39
Energy = -222.87434222 eV
Fe 10.159285729958404 23.303763182124122 21.10844904999443
Fe 13.426040687620752 10.3647859574111 13.620319714961495
Fe 13.247027880364236 23.49391327229735 18.960911071871152
Fe 21.269239999633562 20.687204391175776 22.640684400810944
Fe 12.468915461884254 17.07196410084829 13.614752813834299
Fe 19.981131278086274 1.612723702427493 12.64157711043356
Fe 18.441886048090982 18.50398709466145 16.220242048904577
Fe 20.23673143410601 18.381799555536983 18.116795717875117
Fe 21.439822878177868 22.40596919757377 11.891352204913826
Fe 21.42649313244702 0.42930192032096864 11.533361063173055
Fe 19.710546501768462 19.563970970884696 21.600166012509693
Fe 9.937729690000474 20.879585721747326 20.80640898959245
Fe 20.816632221085897 16.037552599897634 18.55779544254808
Fe 20.139023491350816 19.50898130521658 14.94334082243567
Fe 20.523880591094606 17.715783328496016 20.18461658301335
Fe 21.327927206162272 13.80731043187973 19.248423059881922
Fe 23.384758075446392 10.327856975883975 17.950745645055836
Fe 19.75062092002876 21.11815994725893 13.105162245812721
Fe 22.009783471711724 13.219070995198777 15.403304401357499
Fe 20.755212751893833 15.274918582775447 14.850603524429308
Fe 11.604160717119848 22.199895982005025 19.819131076531036
Fe 17.244376399584308 17.337499549102397 14.613569837408066
Fe 13.114670604989943 9.920122577406932 15.538337568749725
Fe 23.212330148719506 11.164231629399305 15.903631718712639
Fe 19.96150228143542 23.565611714265422 13.104816722486879
Fe 22.170411747156308 12.383928553115204 17.536165462227054
Fe 19.554790147360116 17.261162005530416 14.40382097458826
Fe 18.239471864319643 19.232248859903414 13.745620166115986
Fe 10.414508285932754 9.831356635605058 21.772915570372735
Fe 8.60249949610759 21.98773044473972 22.082734029754242
Fe 14.505550427053992 17.394465069519523 13.655012350496994
Fe 21.134914510927334 14.5375522459627 17.015447304169907
Fe 11.862725124942925 0.3841914852019432 20.17243260062339
Fe 22.458831515927226 11.596029039326899 19.56424256604873
Fe 19.718613201008022 16.545439680785933 16.579969702224698
Fe 10.865621798673201 11.830401613281452 21.97568120910033
Fe 12.362137598257787 15.813286879804691 23.71741227633378
Fe 21.708406979068158 19.752336471705615 20.641446024660162
Fe 11.624351925368106 14.147964789520369 22.75287097681751
