31
Energy = -211.48492718 eV
Fe 13.909573520151271 13.150672772874682 7.023988632229612
Fe 12.251789823987963 14.960831235240677 14.443241605882797
Fe 15.52644081384455 12.103564964596247 8.549727272162489
Fe 13.66182673089987 11.756303039408698 16.484417862575093
Fe 14.725935375352334 12.420435879036566 12.590048695954287
Fe 12.300457578641932 12.258909691811871 13.779694389190666
Fe 10.310266472771586 11.587204751057758 12.117322041268384
Fe 13.33269210809638 11.25276157145125 8.495268857110073
Fe 12.240918583750222 13.506246500081607 16.313738285186346
Fe 14.560713851211084 13.649352431912295 10.24629113368593
Fe 13.506920114169416 15.048947633021502 8.422744405285828
Fe 13.36650297175458 10.24474936457739 12.636967819722392
Fe 12.307430628128854 14.817768720082714 10.513212268335675
Fe 11.084838580371759 11.074270592715125 9.629929611607329
Fe 15.614415813566561 14.313086456657865 7.86435136205483
Fe 14.816474478589562 11.152181060908934 14.531937327090773
Fe 11.06490463781096 10.016925501693775 13.94722917161961
Fe 12.973619230893092 9.889386092278714 15.297463470226003
Fe 8.977414313536734 13.438720081801863 12.848570017011408
Fe 9.303124556819885 11.506926759014883 14.3478952190371
Fe 11.17418000846526 9.500194703437613 11.617486516405357
Fe 10.26900102574037 13.560541551283745 14.889880060405002
Fe 12.011739923022372 13.20597629601242 8.712768534364963
Fe 11.153956473678628 11.403923972470263 15.985978245285759
Fe 11.134091594963406 14.165089252820502 12.512151058335599
Fe 10.302635359441679 13.323885387829542 10.455791769062891
Fe 12.581467776838632 12.323118013906889 11.26140347513051
Fe 14.2557181932555 13.590332149718256 14.790073998899441
Fe 14.747282305533979 11.1086260968374 10.61608257412628
Fe 13.559712086706066 14.404192957650364 12.528230163897838
Fe 12.929811269966903 9.662076443855744 10.183789602872757
