33
Energy = -227.114688 eV
Fe 9.501648347321183 11.145716157914897 14.238114626350665
Fe 7.756358416027593 12.363173234082495 13.479149194957499
Fe 11.461703570106224 11.443345489184791 12.909082232097935
Fe 13.55124661116972 11.474851060104763 11.472521686365525
Fe 10.157968215912408 9.12411137383684 13.255003682752255
Fe 14.440174668840356 9.15577123700313 11.126846722040959
Fe 9.71607458377093 12.885180587180333 12.26674644074338
Fe 7.445476745203838 10.017130402360584 13.144458148107839
Fe 12.25528740670108 9.32400188628778 11.949651086522953
Fe 11.753963189742889 13.19783385996701 10.901277284164095
Fe 11.108260367652857 7.190712343122964 12.075721221191351
Fe 9.10732859701456 10.702688761238068 11.736328861293899
Fe 8.323283213333758 8.138087943306097 11.946567683459197
Fe 15.026657182829075 10.973355957391973 9.624906868442363
Fe 11.137841524266586 11.041063973669052 10.504598196382975
Fe 7.245896885479462 12.118633291857455 11.236291973262956
Fe 10.158652441978559 8.692794019789348 10.689445650030294
Fe 12.510932914208983 7.799410625053404 10.12309078420701
Fe 7.026165645336511 9.891749097865413 10.553643437621487
Fe 13.022831431748907 10.007811141759325 9.389960370223704
Fe 9.32041921721576 12.521546498169423 9.8800205698833
Fe 7.167561092823339 11.737305379294936 8.899419586653119
Fe 13.172355298406563 12.434046592037603 9.152322868520304
Fe 9.1362869375796 10.259798333776498 9.252872147625144
Fe 11.004469801607948 11.854279807290604 8.222755358459393
Fe 10.18441316976978 7.2640994746620855 8.87836228252735
Fe 8.83283354256788 11.200369574645068 7.145990944735623
Fe 12.864763985250963 10.929796294789655 7.222579755937902
Fe 7.017504006850514 9.656577379882881 7.927995538738262
Fe 8.016960570135515 8.00254302570389 9.4754586184786
Fe 11.079357859720812 9.298706252477904 8.497847596954756
Fe 10.74324408925558 10.085990617702588 6.4174442844501955
Fe 9.003166862926673 8.632502365904697 7.272250779888896
