36
Energy = -250.36924656 eV
Fe 9.434416702327647 8.97373231615428 4.781735652553584
Fe 8.529888212346302 11.292782588916484 4.763729498319523
Fe 7.710238516821114 6.957997696142525 5.39375072599058
Fe 7.2525303544014115 9.594694580751222 5.731547880293309
Fe 10.22839293566204 6.397615977576642 6.043369746834141
Fe 8.533813915730416 4.542007603257746 6.170168370737393
Fe 5.505540614314386 7.963727860816382 5.525445527130193
Fe 11.388836967391354 8.49794459866372 6.735299428718929
Fe 9.711266747716268 10.674584351811937 6.65762427624302
Fe 9.057888993071996 8.356654855817515 6.985725935844131
Fe 6.272416700177101 5.586707194698243 6.8667231702931355
Fe 7.605815404531206 11.906233580167463 6.915867637223586
Fe 12.12196692973176 5.9475406860703925 7.444023044103484
Fe 6.561329997500572 7.895055323877416 7.511638566875661
Fe 8.394207274199076 6.189080194351984 7.707360913192746
Fe 5.520402198998557 10.060486328778516 7.462803540364446
Fe 10.212335680232497 4.6273033282717755 8.09065884431935
Fe 7.792483145620708 10.024795045530757 8.13662313675782
Fe 8.26877221706669 7.884691281141766 9.296115831378422
Fe 10.252560336668939 9.571353263606335 8.851758596077609
Fe 9.217329043516198 11.767202047469436 9.150593567391397
Fe 7.720045036243496 4.196773135619865 8.622273150274573
Fe 6.528683294526965 11.464975689687291 9.548244900784237
Fe 4.555130995219441 10.496680937042047 9.941977583312584
Fe 10.538284283587737 7.158148723770779 8.58506631065704
Fe 9.011040530194954 5.736736098681881 10.1546145287749
Fe 6.093170116141316 8.962316626793532 9.649207056660105
Fe 11.413395010571513 5.601963025694051 9.972444308716096
Fe 6.5383180383596144 6.253834232765352 9.40462358097481
Fe 8.394950969917932 11.747705420823246 11.671330210988515
Fe 8.315682422205551 9.89350102876488 10.427328826886063
Fe 10.526306194985553 10.573147351800102 11.05974112950307
Fe 6.47901622767445 10.077054957965542 11.819676096905736
Fe 10.084427889074604 8.022323756022587 10.917337381081438
Fe 7.514052463297439 7.827335349390933 11.574297466374171
Fe 8.934486831144447 9.4947361524752 12.648696768633513
