38
Energy = -263.59262627 eV
Fe 8.377933657141911 7.7949409555077205 3.8781240663096264
Fe 9.367386521148813 6.004803596194596 5.3206635309992425
Fe 10.6291199092846 8.338428652451416 5.364610858464708
Fe 6.768531160931805 6.330298372012073 5.350350884258639
Fe 8.788101783022173 10.11191969353945 4.999258203129277
Fe 6.411208312844642 8.88139662891517 5.0030152995811
Fe 8.429840449658986 8.023229088469325 6.14395513590832
Fe 11.416757600290056 10.746923330144506 6.174464977777241
Fe 6.711021914269518 11.268276345443983 5.334750232334685
Fe 4.531468768019304 7.236111779018026 6.090411772321027
Fe 10.37339297311412 7.041076666820936 7.443761298461009
Fe 8.118637570517564 5.886798078295953 7.452715509376234
Fe 12.061534974928874 8.93767332171024 7.942951932084541
Fe 9.838613524774345 9.665369455704933 7.307160443461882
Fe 6.343720084921951 7.818357130562327 7.289785418491146
Fe 7.340553041453588 10.091615059547191 7.198764523811201
Fe 5.5234464153349965 5.5489878481184745 7.730873814233089
Fe 8.976513681322642 11.748340448897068 6.798645281536909
Fe 4.9888144976524655 9.691809029701446 6.824176176215611
Fe 8.305423954044919 8.177147496237264 8.457948384115333
Fe 4.420065418659463 7.900495213605523 8.647315059104864
Fe 10.978559314676147 10.962147680795344 8.954754095825525
Fe 6.296850935912085 9.307051155949983 9.396225819880183
Fe 8.574685213653582 10.522925355730328 9.341718802925701
Fe 6.75724135102277 6.641920721771396 9.437375189656075
Fe 11.83352710408447 6.885032491924119 9.52953376772518
Fe 10.25895638684584 8.578894368822507 9.468020823185771
Fe 7.770626643714756 4.507932353346768 9.530938534823411
Fe 9.386434252155604 6.28222462738635 9.683499449418639
Fe 12.113278714087468 9.391746975520102 10.480141833677079
Fe 4.320366663895303 5.996046204908687 9.855918274816176
Fe 8.14420113159003 8.307960930462594 10.841331088360896
Fe 7.2955536813999196 10.313495913280498 11.424872467243437
Fe 5.693898541950817 7.638250976118819 11.218068492294561
Fe 9.860167976198342 10.126310589446579 11.341008639798027
Fe 10.433549774389835 7.694666170282961 11.5816355746026
Fe 8.05343410735976 6.078790711139526 11.620579064085433
Fe 6.023407950649553 5.037430539140759 11.057501236630552
