34
Energy = -234.94370371 eV
Fe 9.59059213226633 11.663771540620337 9.256047017902429
Fe 13.45293940369641 9.860904966352873 14.717555367574175
Fe 15.123208198602393 13.904976240932012 14.352942643549856
Fe 10.400052677973 12.925040880406595 14.836613151462121
Fe 9.54859883793642 9.495100898829023 10.07840437826179
Fe 12.585937632103612 12.437575011101881 11.692600527446464
Fe 13.435027348524148 12.114113040474804 15.575798307699603
Fe 11.855661053621406 11.503617012448112 13.715869300467993
Fe 17.267537369084508 15.052210562519605 10.933138090753458
Fe 13.858525319556948 15.91027573416064 13.06806732319382
Fe 8.746574184281897 13.225673941513413 10.866978562963878
Fe 10.558880376459596 13.600309496647126 12.543013729362935
Fe 12.07024089451969 10.798914144052613 10.0150013721936
Fe 11.492355679455489 10.563472405316135 15.852878310116722
Fe 11.393459855924393 15.584363157273584 13.500526104939356
Fe 14.69973649927708 11.574592178290587 10.916817486843422
Fe 8.47723912554172 12.221302976147857 13.041804827444954
Fe 13.157914762573954 10.024734570081543 12.221698043009152
Fe 13.50993669321323 13.508644323584658 9.732772302475887
Fe 9.101831925371288 9.32857599515287 12.481029745640646
Fe 14.46762348233072 13.766550326566254 12.027235266485771
Fe 9.546589112364499 10.672102869069956 14.434488782457736
Fe 11.239500612055632 9.09410289801964 13.799748385747117
Fe 12.376433722315488 14.982815229309342 11.387533149327561
Fe 11.288995198283311 8.743573621101204 11.444898728460375
Fe 16.16148757587117 15.44993927244152 12.871396135917088
Fe 12.746353350098225 13.76766626246967 13.905272015131033
Fe 14.867366725828056 15.657404384228544 10.690956337688636
Fe 16.64356001460007 13.093073541513814 12.34641288467518
Fe 15.896713470040888 13.487857514596351 9.985120774873748
Fe 7.92129329832764 10.991142133926973 11.027936289647531
Fe 10.431724565482002 11.243032687151796 11.802488781116823
Fe 14.45263766978084 11.756097514769321 13.406937319626449
Fe 11.045357266864837 13.307036376049503 10.11211744808786
