30
Energy = -204.46364729 eV
Fe 7.596027246498246 8.819283234326415 7.169169517008972
Fe 8.982028706735017 10.63657065805011 7.3651835246001855
Fe 11.259222236951414 11.875498337015609 7.525097929947695
Fe 11.29688971023026 9.553441922273542 7.4833664978803585
Fe 6.5539481035437195 10.71777498792105 7.923096138269338
Fe 9.510241736606332 8.334336556572003 8.492910007971815
Fe 12.654199358477506 10.816122842522086 9.283229221931624
Fe 13.760097313853148 8.719563908340163 9.008983243124968
Fe 9.69238263833235 13.169855655406938 8.658232271144774
Fe 10.079291948969185 10.743021883593826 9.40695483643948
Fe 7.917890439366732 11.897828628570567 9.385931931482205
Fe 7.696039315575191 9.522064294714644 9.564130775506376
Fe 11.846328532642797 12.911452709515496 9.745484349658096
Fe 11.612619649105794 8.694919277326147 9.718315241475786
Fe 9.51127475045219 8.634553382233193 10.93912794826006
Fe 10.649135863511132 6.711929216022235 10.332267420860196
Fe 13.165930277309215 7.218245627278461 10.792680925260827
Fe 7.956762485535107 13.756102915416887 10.731194774154192
Fe 9.986345607924614 12.675858874061772 11.079037907657565
Fe 6.596723251720969 11.432769423743242 11.163374644930549
Fe 12.597030804906787 12.064051794685932 11.903378876710097
Fe 13.505811971502359 9.637645812044191 11.265928246479355
Fe 8.67733858806279 10.668180960176299 11.572596117495834
Fe 11.144319578998227 10.44563071403749 11.386155969883296
Fe 9.754907570165976 9.559473519890291 13.311744011375756
Fe 11.472329760901626 8.108759653790802 12.24740354843521
Fe 8.054892119116 12.520016655689691 12.681668784810077
Fe 10.39489299768342 11.789880155435522 13.280160791707756
Fe 12.253947700497946 10.087647976086929 13.420409958466115
Fe 13.646042706847313 8.102411395283204 12.987677559095564
