38
Energy = -265.83620145 eV
Fe 15.40103891273208 10.485955540283395 8.83653148735023
Fe 14.438668070200842 12.703599195715588 8.632384376183527
Fe 15.75509927726682 12.096236880196747 10.656946680888247
Fe 15.204010703008658 9.717505558863065 11.12813154225734
Fe 12.964341074464377 10.85769699766014 7.8479984826826525
Fe 13.577080041627784 8.850436296110939 8.848858189717177
Fe 13.837961331809709 13.600663762196788 10.75588575691637
Fe 13.55800034798013 11.024367490071462 10.305045143221262
Fe 12.097386547304477 12.717804719012399 9.246308299081203
Fe 11.48483535334146 8.957594966787163 7.594930504258224
Fe 13.24845232818343 8.132388242380884 10.978473012164061
Fe 13.014733238201048 9.967329683763827 12.508146537745382
Fe 11.491393934500648 9.968233009074398 9.9471552646835
Fe 10.511673914139026 11.339188345455556 7.93015232442862
Fe 14.389916927262737 11.887538841592338 12.5812792731295
Fe 11.235209820858103 7.6915584402295165 9.525631475209796
Fe 11.059037217893453 14.224211037148644 10.854070773917101
Fe 11.204601792509417 8.172925121732915 12.050313344273258
Fe 9.889844849422085 13.597703515406392 8.699689242749315
Fe 10.712556969564238 10.500880740720792 12.228156326143607
Fe 12.156893980638955 12.329044957413188 11.814503579982205
Fe 11.943164789199473 11.692380233142984 14.096068165549235
Fe 8.288989417807011 11.752482701856318 9.065396431604036
Fe 10.190180466283259 11.857679861576013 10.334601327314898
Fe 11.400132532908005 9.403296854192636 14.265372935681038
Fe 9.341814705683511 9.477492311673082 8.508604051616693
Fe 8.67633084381927 13.585275069663709 10.879891131236555
Fe 9.409783289739805 9.127980000407174 10.736397412157912
Fe 9.978983439807468 12.891646067217097 12.756185432371073
Fe 9.149273185673279 8.970124158647257 13.278018921772155
Fe 8.41904945911751 11.090314735274323 11.77044838494278
Fe 9.508905739620426 11.182674615283391 14.296799882470928
Fe 6.614379289752722 12.478761065991652 10.703837883004532
Fe 7.117149111823509 9.99122850963767 9.94938202836604
Fe 7.4569946693716975 12.654918024093892 13.068028446265501
Fe 7.271513274774254 10.371921315385634 13.898974487008717
Fe 7.280313932302484 8.748411165880064 11.945092068341904
Fe 5.922959714565632 10.71163009831876 12.012712446004548
