37
Energy = -256.83854097 eV
Fe 14.460627113533338 10.639885539808576 11.884362172616129
Fe 13.318336242273247 12.966807033924486 12.570162892770291
Fe 13.280345765148915 8.854100139845562 13.342011393344151
Fe 14.489946726176024 12.663049657187386 10.49300934041952
Fe 13.874118270355003 11.17952934221096 14.17510070875879
Fe 12.105304539956002 10.825652358101673 12.880281650115535
Fe 12.642193404444976 12.37940041736963 8.39257467384071
Fe 14.000388017388365 10.336857620377534 9.295342818869896
Fe 12.244037206906468 13.895738816465391 10.361619733873749
Fe 12.649461491265253 9.111387498391212 11.01642781082909
Fe 10.522029118975317 10.479453542458922 11.128608426640476
Fe 11.466107002436209 10.026719242370167 14.980385377155727
Fe 12.58221075575695 8.232977132128172 8.716551379909472
Fe 12.499766685530508 11.588722641039919 10.64057440661773
Fe 10.879060413541456 8.627322867337044 12.858668820981103
Fe 12.849669817443356 10.194625643792667 7.135356936080992
Fe 11.383540086197973 12.517634233251462 14.415282487105232
Fe 11.436518921309084 10.180301621763034 8.8995602582711
Fe 9.021914774243681 10.236902008909883 9.235311471779934
Fe 9.756645306425213 10.778566868612776 13.377059927228848
Fe 10.486665844579857 11.869640235887221 7.366647467865488
Fe 10.32714107494162 12.454597755528173 9.603149842331169
Fe 10.382905094886018 9.62668190873349 6.755037130793091
Fe 7.954581536812894 12.317920874377055 8.813256003306934
Fe 10.427453065260787 8.179886850415166 10.44406743471336
Fe 8.073852032288798 8.8413651165586 7.372124613516674
Fe 10.064263250435532 7.859839850113536 8.210000949819767
Fe 8.562701830278334 11.931260404042913 11.355418479833563
Fe 8.944048858475082 13.106175181650157 13.555695441127538
Fe 7.474413568846828 11.092109178809316 13.255258365789814
Fe 8.583197053909313 9.249173144028335 11.827080560936233
Fe 9.408006398989858 11.705726755675828 15.388603519571227
Fe 8.452614335184922 11.01162403663325 6.67389467046578
Fe 7.960929555874303 8.197342830516236 9.689253823361906
Fe 6.635535949312494 10.637647357557327 8.265590647464222
Fe 6.9994291919452785 10.370409296603851 10.57233376749506
Fe 10.813194543645464 12.8461198424978 12.067489439374848
