36
Energy = -248.18924065 eV
Fe 7.44312740272057 11.470783648223266 8.3258757084086
Fe 12.339354966360279 10.481505393160617 7.530494100377027
Fe 10.092972991404773 12.607691015613899 13.620068332695618
Fe 8.784750481302302 13.508262191241496 11.86834083834131
Fe 9.59460476114644 11.097129842431173 11.88507499130109
Fe 13.294800371015906 12.506126685985866 11.065638910115505
Fe 10.068890515984956 7.778949846441152 13.255199402914142
Fe 13.65357795597742 10.829167080954205 9.454561356178822
Fe 6.356614081642492 9.827245662629181 10.187579910138629
Fe 8.752464136778533 9.575639811997137 7.000584373720025
Fe 11.429459972303736 6.7477903454508805 11.328778751516237
Fe 10.819659633878858 9.166147765989018 8.486729594656834
Fe 11.495642690817474 9.203164211991902 12.203966221417074
Fe 11.962353053925321 11.446482037622594 12.863320929434058
Fe 11.975894418311192 12.709222957715363 9.015864746493463
Fe 8.412898920403505 6.860708744119454 12.093810232974468
Fe 11.295756636171738 6.901457802707791 8.907041888729642
Fe 11.06424293218777 13.181199558971697 11.382572334427923
Fe 9.926377825603183 8.299398917283696 10.657081627343153
Fe 9.937451334235698 10.1005433581927 13.915108120091285
Fe 6.8070273587090515 8.900232888894838 8.086838101047904
Fe 8.674575055203492 11.918998141447037 6.291995544246473
Fe 9.332370361742818 12.5377278397656 9.774507784084896
Fe 8.108338283017709 9.254661430930108 11.992368960346619
Fe 11.396179943579392 10.790166299210588 10.27873293704071
Fe 9.323093113181208 5.974624358430183 10.129682557401331
Fe 8.744205500281206 10.025278858370278 9.597574232112738
Fe 7.455459796679671 11.686408315489544 11.058883912708746
Fe 9.017190097152556 7.540237892653234 8.293148166753653
Fe 10.581369400664212 10.325991983913612 5.836755259080792
Fe 10.725346533597751 8.035400980707024 6.5534797341173
Fe 10.191292058317922 11.401704463064272 7.95714385132278
Fe 13.623472417191408 10.14855885513817 11.685077970142833
Fe 6.767109602199014 10.512736842742765 6.249018901330625
Fe 12.614685817670765 8.58015607214944 10.107630200056033
Fe 7.495154912180779 7.72229718794298 10.105983798872662
