33
Energy = -226.80784268 eV
Fe 12.501100781627207 9.478822973754163 16.171825015301295
Fe 9.946619821631876 11.245756515757982 12.788654412111507
Fe 12.692405564105247 10.179356093164278 8.984324406382578
Fe 10.852419696796513 8.199155081153062 14.967288466871656
Fe 13.41625721934336 11.391591609001683 14.819218952081545
Fe 8.858570459522491 9.486361291909057 13.988607443297632
Fe 9.180517818163871 13.571009461936587 13.171171101216245
Fe 12.096898759287482 12.57087276934326 9.079682430665365
Fe 14.670669579239293 10.150085549996417 12.519269329470731
Fe 11.1831985407557 12.87170586059952 14.253370873399042
Fe 14.919733545121538 9.777715085416546 10.137801438982379
Fe 11.09601704547906 10.481467773639327 14.81735729028956
Fe 9.758179663665379 11.875420677920161 9.434781171101038
Fe 12.998929087972215 8.997146041734378 13.857023951170094
Fe 9.02685045196427 11.679759561438885 15.009682863212022
Fe 11.130498792332721 12.833055287329609 11.526888792315477
Fe 12.706880207107194 14.453169807217193 10.645161117156569
Fe 8.709390497332835 10.164895393031143 11.213438000011568
Fe 13.477848948582674 11.85917683343157 10.863218731580439
Fe 14.913487657623026 14.021224906320748 11.435977439141361
Fe 7.6325920106216385 11.522028073952638 13.033598585842498
Fe 8.483006051742823 12.75989863058048 11.099073237313915
Fe 15.082014068816159 12.27613763730809 13.0925832390282
Fe 12.398315193244764 11.07005987273555 12.809728084268837
Fe 11.108225758965565 14.941325933815635 12.504989394967502
Fe 10.804799418827242 8.979807818633732 12.673464642255691
Fe 14.530264343241901 11.468073988979741 8.49786786194261
Fe 13.067628025388757 13.498307158208448 12.927554210432136
Fe 12.948414772589468 9.115811905621914 11.260290876665632
Fe 11.142537680428566 10.549327901764501 10.701864494899176
Fe 10.24885083839719 14.330115698176362 10.11194191332989
Fe 15.809954754360154 11.895862013347864 10.640204812893128
Fe 14.353208230704709 13.638720864625377 9.142666179923962
