36
Energy = -247.39660237 eV
Fe 11.906851874523245 12.843547677366644 14.021009259199271
Fe 15.341341218258801 12.069554887062473 12.440534689048246
Fe 13.400333412962647 13.43914711661472 12.103578141911225
Fe 12.202586427641968 15.156131237263693 13.446361010760542
Fe 14.341610707785899 14.082570994868354 14.126527605336014
Fe 15.884099458874726 12.621560348274226 15.151242817615278
Fe 11.942011601038049 15.066425501408872 11.092163391398223
Fe 14.674611238748959 17.973820693801322 12.77133648992443
Fe 12.379830998678528 14.871161112168219 15.779076949072628
Fe 13.52787612453274 12.938617693255924 16.08153619888611
Fe 11.887299775621635 10.028913613676242 13.538351267895937
Fe 13.006547444120669 11.155351140900338 11.834438613561359
Fe 13.794515702350443 11.572444464194346 14.136979080298323
Fe 14.662757425646134 9.616763029665787 13.334103692401229
Fe 14.639070487001925 12.195444589020493 10.117040827532554
Fe 14.363354609418172 15.648822415048622 12.180819154158243
Fe 14.0122576590562 16.487119071520468 14.444022505911887
Fe 15.09244790984082 14.922495538203306 16.23013900890611
Fe 13.227192177573649 9.107463104538825 15.150249364532991
Fe 13.460639702809692 11.575716576028837 17.937294272396336
Fe 13.213494470300084 10.340265212209511 9.696719535742849
Fe 12.433316498171504 15.11947510508815 8.868789740557046
Fe 12.873843620212853 18.915047139618906 13.889755337284143
Fe 13.483241594013869 16.58864449773301 16.91710957907325
Fe 12.41053454559929 12.907054733272743 9.963070344651493
Fe 14.333127599548542 14.631138082140456 9.996073339445058
Fe 15.166475109774767 9.988067325604518 10.995772746998853
Fe 13.176612063250317 8.806593661371831 11.725833816611235
Fe 12.07660870571984 11.054310725707898 15.822342836320756
Fe 14.725872790245036 10.67299109444774 16.127697673950216
Fe 15.513023400020485 12.694492042450168 17.501341697798605
Fe 13.657992232872742 14.178608104612609 18.020477776110884
Fe 11.887800234944168 17.19442593761496 15.10586691416604
Fe 14.350462813765155 18.34301603309763 15.608176121215132
Fe 12.323949782504597 17.204225464389378 12.386106416425262
Fe 13.517088882497122 16.879267629248766 10.348786040432781
