39
Energy = -271.48890899 eV
Fe 8.703385760833811 13.179687634061565 13.147981587356666
Fe 7.967969729116129 10.884596571441403 13.372599808115114
Fe 8.523146522811833 13.93335151923848 10.934310457620215
Fe 7.059958523600534 12.081130279527489 11.557425961630674
Fe 11.032902781868241 13.72163976477188 11.072424045183105
Fe 10.430577686017912 11.512988901879716 13.628897716833055
Fe 5.971539504001433 10.01028584366801 12.259722665086931
Fe 9.52644416296386 13.608395860540046 8.787434168829094
Fe 8.340920186184483 9.793923031782322 11.162582967720994
Fe 12.134560805156864 11.562504520172794 11.868719010253713
Fe 8.195759465183915 11.721339044587982 9.476131262795123
Fe 7.384520430505025 8.369339755052772 13.065039033607853
Fe 9.643362141132673 11.84203153962324 11.377416953625355
Fe 6.1730221788296635 10.35764844551304 9.948486677432067
Fe 11.92804124597347 14.088308174937211 8.85763721442829
Fe 13.36237062182156 12.68108314132866 10.272061124517856
Fe 12.211838815561874 9.886835182578844 13.618825389536537
Fe 10.77743001671215 9.694229580090983 11.600117772299669
Fe 9.638751853533867 9.212062480873335 13.667222656736307
Fe 11.401567619048462 7.709996472227001 12.969599604770472
Fe 10.05703703516538 9.773749273049733 9.284142830777368
Fe 6.879570779721759 8.101681282391112 10.684903246505417
Fe 7.823288964899011 9.414781471822089 8.614299923452062
Fe 9.26526796740208 7.572312557341389 11.865794615258883
Fe 11.07886012406626 11.923629793125558 9.336062420307565
Fe 14.388792773396304 10.891940651655972 11.663550059670905
Fe 11.373382105096185 7.739274187663703 10.455469884614187
Fe 11.033490154648314 12.845298542946752 7.019690700874293
Fe 13.165597002910912 12.079610659568429 7.904544971076501
Fe 13.195023753685266 8.83900695054574 11.665770418455137
Fe 9.31942387803171 11.267641946222557 7.460648175831941
Fe 12.624034357852514 10.117906695699638 9.716346412710367
Fe 9.006172324480735 7.586594347599379 9.573072286028337
Fe 14.922765576979216 11.205402045152985 9.231882348344898
Fe 11.497327118879594 8.201812359538499 8.143170040132373
Fe 11.563945910361147 10.422262202502047 7.346970922496936
Fe 15.095152179901156 9.132432097273092 10.16259187652976
Fe 13.512216329972375 7.6782594246029054 9.317271865305084
Fe 13.844539330419131 9.50472805585743 7.847980301199201
