39
Energy = -271.33761852 eV
Fe 6.43267256275895 7.135080249561001 9.093203017518293
Fe 6.225288181951622 9.154349832996651 10.393754424873041
Fe 6.7145905322372315 9.21071776405336 8.077693729060407
Fe 8.553651768666107 7.485137400264024 8.225726263501338
Fe 7.887743214856566 11.299740555928539 13.653981352894924
Fe 7.9446945580560415 7.154946695163942 10.789932260567523
Fe 6.614275562863855 11.472150408049627 11.467856518813127
Fe 7.810850388926343 9.434066528108522 12.063406438437703
Fe 7.668386446425799 10.977427385833103 9.398814025245946
Fe 8.940762101828017 9.143209839203688 9.938543501256428
Fe 8.99449388485164 12.332607958708005 7.7511532203049995
Fe 8.873475827383052 9.902310106021801 7.508296446846352
Fe 9.223533222606932 11.286097019456273 11.442623134034118
Fe 10.739719121112127 6.702983296617156 7.524347249250232
Fe 7.808026453125127 13.269041784841178 12.464420315033413
Fe 10.380868155453753 7.082398801916381 9.921147716232252
Fe 9.882617257924082 9.89444414630862 13.348453668738541
Fe 9.757318246715252 7.951012414911888 12.17553288868914
Fe 8.475799929745035 13.089935141507166 10.096004153606865
Fe 11.097121230205735 9.507295110338276 10.996525082265034
Fe 10.05651624557225 12.35456396431646 13.409576756026958
Fe 11.831604175951139 8.506941522915731 13.34542980054425
Fe 10.438674545350702 11.194577205044208 9.164829572033968
Fe 12.388723733325737 6.143173881948479 9.245317278720334
Fe 12.791139407236098 8.33683617098515 9.805832967070767
Fe 9.894055452225357 14.10588637018319 11.828920453484395
Fe 10.576850005407014 13.887973398705673 9.329527439952013
Fe 12.07096532383588 6.970820717243196 11.565794869233184
Fe 11.09590316888071 13.247915700907685 7.1653772860609095
Fe 11.024948234332607 10.867981648742042 6.730156333097263
Fe 10.858614501299234 8.829950364995499 8.286178797034184
Fe 11.965699381442537 10.847296579122023 12.815638519565363
Fe 13.550400611022546 8.91982616942793 11.947708771267134
Fe 11.30646249516159 12.425106950755627 11.099213348631123
Fe 12.688949591402832 7.909974755643061 7.435929743668777
Fe 12.943432417541244 10.820038016154504 10.461813061703346
Fe 12.707344946130918 12.748698344437278 9.034676644784158
Fe 13.06732287509515 12.046216609319089 6.796752860676491
Fe 12.812634742203889 10.281866587803407 8.242727331985252
