31
Energy = -213.4631429 eV
Fe 6.675049906780904 9.868479746769367 11.76419032394667
Fe 8.024995857727319 10.04187188932293 13.527592325531492
Fe 7.652307364402617 8.641138795873896 9.89196188279684
Fe 7.222552708178243 9.604477014533572 7.574489597695576
Fe 8.326691619012099 7.978814820388105 12.066425308877236
Fe 7.86788544690525 12.375581418909078 7.9727559786298166
Fe 8.922674754530062 7.592440623894646 8.261760009884553
Fe 8.301816311119252 12.14181238584266 12.178562357117867
Fe 7.349535996795531 11.063264441746435 9.85519575064951
Fe 9.128227804103354 10.269669167136383 11.155609807394777
Fe 8.626381863555528 11.189454884334559 6.243044412132996
Fe 10.037943953992704 11.272026028463637 13.501559856635847
Fe 9.9966783309784 8.752104984289076 13.47677492511616
Fe 9.076973069246797 6.424452514433137 10.361892325077303
Fe 10.229896616434631 8.480685834378436 10.165808759577585
Fe 9.145230129082458 10.220891518432346 8.613041563342712
Fe 9.370499614955957 12.420555430122413 9.880683067563758
Fe 9.03839879392199 8.860719012298988 6.288382326584424
Fe 10.897247265578397 7.15609890440521 11.879302405215105
Fe 10.960986654099203 12.163478991456621 11.539642590223574
Fe 11.475253985156263 9.889035073074862 12.080746062892612
Fe 10.901788866033701 10.541790923374206 6.339233201364895
Fe 11.191697863172815 10.565231072059255 9.655028150879518
Fe 10.364343276761973 12.325072669638633 7.725319979690703
Fe 11.498972228095152 6.7939535709609755 9.396785719069973
Fe 12.856300185373728 8.37634248835454 11.035055552079243
Fe 11.965713514501726 12.81312669965162 9.45864351251155
Fe 10.997153388834752 8.69634372965814 7.752927350118621
Fe 13.2766076470213 10.775571111097385 10.457634112943637
Fe 13.040374250815733 8.683781645510434 8.813023361769668
Fe 12.672090829417572 10.953741609137257 7.961791288386005
