30
Energy = -199.96772231 eV
Fe 12.00115504345664 11.539268354020308 8.041012818305616
Fe 13.626269645556278 9.847195471771787 8.345418648294599
Fe 10.200980032093364 13.361140729119347 8.595729346627554
Fe 13.90476164640491 12.104714364754791 9.499316384591411
Fe 9.943304258510748 10.990662928006328 9.430831512235189
Fe 8.031828125201812 12.48031755470583 8.665133138845757
Fe 11.025430520348218 9.243301898030298 8.367266434805249
Fe 14.393750796309263 9.991765016636851 10.760206483208705
Fe 7.462446155218073 10.422496253056984 9.613154121838203
Fe 10.484578816984845 14.820402660489398 10.48581701371579
Fe 9.036865670649663 8.51169699477921 9.675959797666296
Fe 12.323588997074344 10.414521264009176 10.19885983212224
Fe 12.62080584749206 7.97404790014467 9.459337011434272
Fe 11.78453718373985 12.82514786429391 10.229974478046731
Fe 9.292136151191029 12.795714570673455 11.047060762359328
Fe 8.218467792997698 14.40844170350364 9.855051812065664
Fe 10.770420610734448 8.97081481636994 11.052500126116241
Fe 8.963228990856697 7.935479231825725 12.087306099438203
Fe 7.141177943095612 12.338579158401881 10.996376286471442
Fe 11.111682950490955 13.479795787780397 12.540038509426436
Fe 10.829710775398098 11.228925845967263 11.749723916764168
Fe 11.039662862212586 6.774098276512101 10.960331408080703
Fe 13.189025717241686 12.013032547461831 12.013479323998828
Fe 8.623110812391381 10.259005685145071 11.520430029523023
Fe 13.209193480303682 7.9795870331428125 11.65988445436735
Fe 11.32113296256598 7.650848353437579 13.103570013870952
Fe 12.46521409893111 9.893689939429349 12.78587835025323
Fe 10.031305677817942 9.646011475593282 13.482379758611186
Fe 9.047783439029102 11.937998619609868 13.243175469836606
Fe 11.412010229287137 11.66686493491133 14.040363890664072
