32
Energy = -216.62404644 eV
Fe 11.534071157340255 7.6740354776136215 11.98052982353479
Fe 9.147601250393043 10.671551224207217 13.856186604250775
Fe 9.403932913968061 8.230055914599074 13.30078812705568
Fe 8.665698599629645 12.359602233559356 12.05532440481936
Fe 9.18553917258716 14.144918771959127 10.419176710526365
Fe 11.088940460587805 11.833790020806273 12.517492230014009
Fe 14.345895852720188 10.969825484931055 9.972424313582135
Fe 15.465791537803565 12.924220185867659 10.611608164747915
Fe 11.178993730200048 7.0947217850821485 14.36728415408915
Fe 13.690411811981692 14.65340380722448 10.358825712709196
Fe 10.212239085105473 9.044147255588296 15.344275674377267
Fe 9.524116165000192 13.020178628252932 14.304309947307784
Fe 10.114243026364763 11.923810061489318 10.116349633312483
Fe 11.866139540431128 13.588794383632553 13.811305662921173
Fe 14.489213594297816 13.101340320783802 8.558267955993072
Fe 13.568683878574712 12.772661692350354 12.040962018401324
Fe 12.622640818478022 14.725846876495007 8.308196791384994
Fe 11.67742478061896 9.63066352042878 13.206805709730848
Fe 13.333133816714835 7.3977137124298835 13.554927869978053
Fe 11.621022445237275 13.798757340537136 11.241743525607998
Fe 15.16118561482676 10.989997714911256 12.30642513855313
Fe 13.805119194919932 9.005701717048325 11.764486462070222
Fe 12.077683166553605 10.359437658537713 10.758933220989412
Fe 13.332434501464395 11.353168142118413 14.024424010711092
Fe 11.144964492308862 11.306067479889162 15.025514432769194
Fe 14.653333803520388 9.326390083046343 13.981749825356834
Fe 9.884898515179444 14.603991809291662 12.609252587230102
Fe 12.67484528108756 9.05726029122662 15.258645868789273
Fe 9.764871495644691 9.948793818255448 11.678089434595861
Fe 10.510175669132074 13.70212120524202 8.49954200868978
Fe 12.358281817806862 12.279774270882331 9.233765699568792
Fe 11.113097861594337 15.591143187354845 9.923325919287901
