34
Energy = -223.35657122 eV
Fe 13.633411916144782 9.075045245220592 10.638194736099694
Fe 11.90426887969589 11.514651110116295 15.847895585238186
Fe 13.25096268295921 11.661434075669204 10.760541292152178
Fe 13.918930313294283 13.893047064516525 9.944553074719131
Fe 14.250276041212846 10.691414426995562 12.557609109102554
Fe 9.833829589885324 13.903808391833483 9.875329028554011
Fe 9.559217941441203 10.731608756241382 12.421053903916041
Fe 10.15314939078301 8.245202463516847 12.304435708413468
Fe 13.042655412045464 14.323335127842094 7.691213605307559
Fe 11.966767978501522 12.85655438623087 9.081442949114582
Fe 11.84474210714281 10.370763475768364 9.29308635184424
Fe 9.898831019162365 11.832394143087837 8.63815353602762
Fe 12.342822251871144 7.167951834532248 11.888789550533616
Fe 9.62315951674087 13.260285518479279 12.250970881053012
Fe 13.09228098801713 10.000334080301426 14.465401321316941
Fe 12.03322272854133 13.908893299701514 11.43645144093906
Fe 12.362409881039113 13.689524854981562 15.307358996159733
Fe 10.59400972306447 13.999666724386252 7.616653971368345
Fe 11.829501415159458 15.2835671245013 9.440729697267678
Fe 12.076582573677191 12.080194361899956 13.176457191582678
Fe 14.06434441095137 12.327737964998486 14.497729661091137
Fe 10.154497511371314 12.467149574059945 14.552028334486725
Fe 14.03309106508742 8.404234671303655 12.84139397671621
Fe 10.321992987586773 15.50680354930382 11.497097607328113
Fe 8.493393032192802 12.01168365491985 10.564260705068719
Fe 11.814203659904626 9.870843370050993 11.98233449181159
Fe 14.525614877731968 13.02472371668764 12.170125024357755
Fe 11.772353560851482 8.040255420442458 13.990464936078599
Fe 10.707885989011473 10.104490849728123 14.315700340110746
Fe 10.940495914636152 14.575899348876458 13.668865647829138
Fe 10.925625588527673 11.811610558152722 10.934216590391744
Fe 13.276563149357623 14.582600709838355 13.297202326412117
Fe 9.790412218533243 9.795985426476431 10.242862698183666
Fe 11.500498587177034 8.099514971930828 10.082270869629161
