33
Energy = -227.69419094 eV
Fe 14.769095609630384 8.440899170354811 11.131551523460743
Fe 13.280914000469252 7.529682292207168 12.58320115785433
Fe 12.783285694392076 14.39353430143984 13.293993895129255
Fe 14.787455708562655 9.285011410210984 13.641739373856863
Fe 13.63803795723299 10.690154814973749 15.338156950561414
Fe 9.7386184787636 12.292767433224904 14.911258612146005
Fe 14.637326294435612 14.871250607567557 11.844048697518904
Fe 9.781951999871637 14.505216242545494 10.520793224790706
Fe 11.07019259106608 8.68240484201675 13.214406804023078
Fe 12.173879372368 12.26431120627493 14.171358953676123
Fe 10.397655671741507 13.386173685582131 12.77149812680576
Fe 11.266988754279147 14.538948443867259 8.619944562040521
Fe 11.638163299992428 12.199105336864553 16.391241687743396
Fe 13.606063429651138 15.418285434109581 9.697259241450423
Fe 9.430976531559049 12.133542424985688 10.97000272162823
Fe 10.64265136695746 10.182944050905324 10.718961150039615
Fe 12.774091299174204 8.429316000639782 14.879304725859079
Fe 12.628566887828306 9.185002394441605 11.219997880974818
Fe 11.126896911174233 14.276553337337246 15.004461286179735
Fe 14.384024095777768 12.347424329141582 13.134374508166033
Fe 13.064368854421629 11.00872658206846 9.652385568347167
Fe 10.31324272128765 10.951025739967815 12.954340947793186
Fe 10.748459022225745 15.681503073710065 12.620709255410183
Fe 14.554876823497988 10.738108597277998 11.568746098229173
Fe 11.114681674724013 10.1792889805235 15.151522278010175
Fe 13.2514221223529 13.272937474307518 8.67593969002058
Fe 12.849898579035528 16.462144541385754 11.93252368657345
Fe 11.064075558078766 12.319473166776488 9.334557614079968
Fe 14.351918524875165 12.920146585073535 10.706389270267227
Fe 12.116568526154033 14.143666850111188 10.956163910589485
Fe 12.201405982483136 11.930513013287404 11.686541786952002
Fe 11.30803224520361 16.363642426977037 10.185143675899965
Fe 12.810451012410734 10.223777338590581 13.211145813127237
