33
Energy = -224.21784097 eV
Fe 12.45647725468462 8.822339844937135 6.902915889595614
Fe 11.125102481081317 7.9836094158291075 8.685834576482018
Fe 10.031837411137747 9.425557588511127 7.098940782760708
Fe 12.829799015585293 9.744400419733251 9.002955010580415
Fe 9.667728219236134 7.51156246579207 10.553986546834976
Fe 11.202548186878355 6.907514778697848 12.185950882238021
Fe 8.501187739700141 8.837365264330414 8.918513433716651
Fe 11.395701726869536 10.264775541794235 5.418845943176258
Fe 12.034051570596448 11.314349240044402 7.371026766237636
Fe 11.632403486323023 8.908977497243473 11.001886287114115
Fe 10.263123555061858 8.772624427278236 13.072821099586076
Fe 10.529474364683853 10.380568273448713 9.2629273129786
Fe 8.596513617098465 7.280669419888838 12.609790118385929
Fe 7.178097280927027 8.257477624775023 10.878125768365281
Fe 9.762447493353715 11.683836124696848 6.4402934273377515
Fe 13.4929788354931 10.541880187325049 11.329944974628605
Fe 8.365818938307317 11.133499208103506 8.297026119405444
Fe 9.180207567032895 9.754661951420479 11.226267545517352
Fe 7.563294168833766 9.566167548941392 12.863566587164252
Fe 7.074713354487016 10.531255493196769 10.301222464604573
Fe 12.339531123871302 9.935983073258823 13.176106437536081
Fe 10.324567795652708 12.807976251633795 8.397897564524179
Fe 12.29187704734435 12.072585159791068 9.680764116614549
Fe 11.160441651342822 11.249270755469649 11.549615342158683
Fe 14.097214468823276 11.34375603514099 13.388318570995919
Fe 9.648179186898771 11.155896335820806 13.3645312529198
Fe 9.239455303972266 12.099727900682044 10.41377832879419
Fe 7.674844452575684 11.814621513183894 12.201944391003794
Fe 11.824218853053349 12.300642394313954 13.68973391279929
Fe 11.025998264336215 13.857194244181136 10.58176298172954
Fe 13.048085626928145 12.873624139383681 11.846067706604947
Fe 9.6976185012344 13.337564003553968 12.53925664916909
Fe 11.70281763048321 14.472362656771221 12.755395727762894
