36
Energy = -247.43701816 eV
Fe 10.27255945698144 9.226697201998162 13.575683006468925
Fe 10.738839587091226 11.603380372309338 14.390018516616166
Fe 12.474662892664805 8.193103227141794 12.51714544599287
Fe 11.116765100235423 13.84772185016951 14.749480423756589
Fe 12.06146444306467 10.427005062791881 12.611943269760449
Fe 10.275928574398364 8.639042258191337 11.327161748773175
Fe 9.616527580025048 11.12519084438952 12.313654315323692
Fe 12.739263352583452 12.681725553895708 13.364506833170918
Fe 14.334112918539143 9.440075746158454 11.662927272124586
Fe 8.899366636594074 13.013142034675834 13.795601096203253
Fe 11.79674320951397 6.573951305203097 11.03064800375509
Fe 8.132026934680157 9.359330495688491 12.061061201627684
Fe 7.360681173201546 11.819295833159632 12.469247429925284
Fe 13.751136277680981 11.718039366872425 11.341405755236147
Fe 12.173371521560298 9.605517251600828 10.343908239566561
Fe 13.694817087400194 7.776737347378316 10.136748722807265
Fe 10.688964881032694 13.744683248766439 12.51577925240871
Fe 11.659650881166709 7.007878749820363 8.78208032570036
Fe 12.998562285194678 14.04092499268772 11.47202445629121
Fe 9.664187887404601 6.831787641282197 10.00788463802119
Fe 11.439218879055334 12.101100605847604 10.866595503634839
Fe 8.952095210469382 13.004070588777822 10.926906279897386
Fe 9.77704088861418 10.758067322074783 9.778780484170662
Fe 11.035700530314365 14.556499946651714 10.252505596806092
Fe 7.459058356954869 10.957150446673475 10.323901485262738
Fe 12.972295909263877 8.843603881968876 8.085289519851836
Fe 13.002096823791984 12.912698332389104 9.301792968277661
Fe 14.24193745523536 10.380236492934232 9.383860800172515
Fe 10.410242183480635 8.966993939978941 8.407540586144192
Fe 8.92446762415599 14.64968637261924 9.220935329623929
Fe 10.490877083744758 12.91899223339494 8.655866056898766
Fe 8.409586054156565 8.730931954513778 9.752487229240524
Fe 11.908077729448754 10.960594601098217 8.439657648883475
Fe 8.175145386538967 12.45198849292537 8.585154299633375
Fe 9.887681154119656 11.101833094041723 7.166610035976935
Fe 7.982475825262265 10.137231721097466 7.993080283731346
