31
Energy = -211.61296327 eV
Fe 12.329920496900591 8.41834745253106 6.824486515826206
Fe 12.592583993372994 15.661313641572116 14.257746691693573
Fe 15.736228176995958 13.993055982286918 11.31389887900857
Fe 11.73512402186229 9.970649748286464 8.517241009028425
Fe 12.20144548761461 9.980840374855621 14.714321861011028
Fe 11.828752630872192 12.279401614509752 13.872748084344918
Fe 9.545079582318236 12.853182511336223 14.967500101124658
Fe 11.638816390149053 13.858978569587785 15.822264794988872
Fe 12.511387840461582 14.642631901022051 9.811315856279712
Fe 13.335225439968257 13.62134636881614 12.386198452199118
Fe 11.938345644150209 12.295947494552165 9.2650252429119
Fe 13.527000506588417 9.570049801150365 12.44154412200135
Fe 9.790319260873199 10.48139549607675 14.637017755156192
Fe 14.176427028440385 12.942319061798313 9.807021532858363
Fe 11.00363098107321 13.432955941593898 11.258693535267183
Fe 15.704206716838295 13.22951888856687 13.501903761428562
Fe 15.05136151471737 11.640562224943794 11.658775057622858
Fe 12.227172797869219 15.837395062475375 11.920614261666744
Fe 14.12572109634801 11.46086546512704 13.858111592144837
Fe 14.31434238713502 15.751494304303174 10.769521354071918
Fe 10.876547510267786 11.581982951758484 16.429615933517795
Fe 13.754998468311332 10.437125983893946 9.842410393674532
Fe 10.384271042419405 10.863287278249777 10.49038071393014
Fe 11.96927444403196 9.011979350194737 10.616654884585124
Fe 13.173559358372238 11.844485341638913 16.025804235457432
Fe 12.495750952679613 11.501984599256934 11.640710962132319
Fe 14.733207322310271 15.512594556825785 13.115566653940395
Fe 13.91737851726002 13.822167340293023 14.916749047263224
Fe 10.766127666340841 14.405384772735903 13.469803432043994
Fe 10.96955556191782 9.756146044579898 12.642379592495516
Fe 9.717592770698998 11.93652725202969 12.68656393219243
