33
Energy = -228.47029983 eV
Fe 7.047409608468227 12.047795354591821 9.45199994512925
Fe 13.836646350761297 10.293292393365741 13.004611106856354
Fe 11.219309078174275 10.790480082655957 7.190617997467585
Fe 10.44871168304953 9.04065766864932 10.632372103049995
Fe 9.092593650109697 12.938038327921449 10.097043199945707
Fe 12.398717474400193 12.128227084375302 12.617986855493092
Fe 9.310018222279895 11.49675050173936 13.879416590137035
Fe 8.737767732756229 9.46197293101775 12.488574885209777
Fe 10.982037549722607 13.121461624480629 8.311298654740607
Fe 10.793998135769195 13.360329305018828 13.740062330377839
Fe 12.931305305389476 14.345084307383818 12.442335989160117
Fe 8.660124798182485 13.50514109576699 12.491120923198212
Fe 12.096874205037748 12.813756351853073 10.335874478015567
Fe 10.691040182885642 14.214380738274553 11.563976112149462
Fe 11.140730581098744 9.807272043136066 13.01819220879332
Fe 10.684600100006739 11.072679390145664 9.382550451788154
Fe 14.419138945329061 11.428720181271201 10.813919086482311
Fe 8.453288869281842 8.018545350399224 10.581692681796913
Fe 12.274022750257677 7.557807051709884 10.55064028021891
Fe 14.691008308323324 12.70909718400354 12.766755055335638
Fe 10.209520323917637 11.545413189144881 11.655564540058602
Fe 13.059372224916526 11.43324359253272 8.682475671540244
Fe 10.373413986722715 7.574043969712839 12.337752915687174
Fe 8.422947309158967 10.326416773504505 10.080593991030383
Fe 12.212281425417979 9.13407807049478 8.721797469660679
Fe 7.629297766414798 11.540979310334945 11.881840828109368
Fe 9.699635789961922 9.126829410782575 8.332297747638012
Fe 14.161901090574856 8.95289723140771 10.854543222402055
Fe 12.33606233568738 10.30743444840274 10.961008521809841
Fe 8.917930491881032 11.577692135067498 7.953954074394986
Fe 14.216720990844353 13.701496866894457 10.55845129594295
Fe 11.777129872040273 11.235555322931946 14.63647570226846
Fe 12.81217168817916 8.200241424001895 12.754902696604107
