39
Energy = -267.50310874 eV
Fe 10.161425963860431 7.363432752948685 7.865626757702609
Fe 11.531946268289989 8.884740360445727 9.05784842475222
Fe 10.689299014786382 12.123719391971362 6.736459539784278
Fe 10.453039731306147 9.777186259726882 7.059632754292592
Fe 12.636110913809912 13.093264474625798 7.697826236261356
Fe 14.406981917817154 11.755406220796967 9.096114014946126
Fe 15.400904119312862 10.357165475554888 10.651648056495672
Fe 13.907740848962442 9.071258797451359 9.465647939242004
Fe 12.559517192395655 10.786387528087047 8.044903060826334
Fe 10.056300502000502 7.2258390654116 10.304179768839633
Fe 9.041232807486757 9.178337838719454 8.918953209080605
Fe 8.429437565840262 11.144598524154603 7.795562174567215
Fe 8.816704411372706 13.363980778056137 7.368842421262668
Fe 10.65925127521441 14.072413610692783 8.554540601475566
Fe 12.23022090000405 8.106990774397094 11.27684654716512
Fe 10.315532755752821 9.642998713968222 10.917738734179878
Fe 12.424563134917161 12.940662378986495 10.018352600330727
Fe 10.493603453667552 11.580315108896633 9.170362980863938
Fe 14.016226902611006 9.428281679604222 12.26669211277001
Fe 8.228070290843638 10.874881680767276 10.361759048481192
Fe 10.330185698265321 13.948535318633608 10.897584804387877
Fe 9.92662835415666 7.901928965187516 12.74345141490279
Fe 14.374651530726245 12.240043002613811 11.517650078732995
Fe 10.841082427081396 11.846553705210866 11.788444971837283
Fe 8.051805614104081 7.174408312607959 9.081780550834575
Fe 11.548114028877887 9.705481388888195 13.013222396041288
Fe 12.627745988969648 10.620969125330678 10.720932978997979
Fe 8.47393319798298 13.121793374375688 9.622552672121492
Fe 8.07447766863479 8.521220023422345 11.185137898594123
Fe 10.074453395395757 13.704327879857566 13.351373743107342
Fe 13.13088674144167 11.41867966768402 13.345476793674546
Fe 7.832345660638443 8.707683283167691 13.64581717549185
Fe 12.340622457293405 13.452730504707151 12.499829983708375
Fe 8.480334414346041 12.573674021066777 12.01078272066163
Fe 8.963143782256845 10.393897441704235 12.700466416294354
Fe 10.848683345511233 11.732051054273288 14.218387841721668
Fe 8.508201354164006 11.852678511803807 14.46873744792808
Fe 9.811977872570587 11.304516959016787 16.294338363128148
Fe 9.825434550320296 9.529784098173092 14.787312817502023
