36
Energy = -246.16715317 eV
Fe 8.243335430160718 6.254453162660217 11.574748044841252
Fe 7.056271253940975 8.156083120759899 10.80581230175829
Fe 7.759875126216728 7.687877174099109 13.289973736957219
Fe 9.456080494054044 7.095183443043595 9.742189011320823
Fe 10.284668962297935 7.057340493899921 12.536761481189703
Fe 8.312894172471577 8.838312220157613 8.572953181051217
Fe 7.814606252108624 10.563067057665442 10.395220682574859
Fe 7.424466517880997 9.963486878344833 12.723721215056125
Fe 10.85225785542499 7.873557018721636 7.9657855585916595
Fe 9.157046986987972 8.655460839643688 11.406304959735282
Fe 9.533677705627456 9.10339211852238 13.870025401986494
Fe 11.622727928757545 8.120488813521353 10.335718765425693
Fe 10.152379844900066 9.847264737661742 7.0801193247783
Fe 12.211547036785369 9.066231740987863 6.346818113442531
Fe 8.612510619676584 11.350281577218228 8.220502943338275
Fe 7.954520788371232 12.27891128985034 11.932014860853368
Fe 11.471965491018347 9.227018972347983 12.316079304172868
Fe 7.547180673178293 12.86028806521251 9.754033423933013
Fe 12.433219109130219 9.710558992553949 8.552298288198108
Fe 10.148078845035393 9.8498539583614 9.609559356564143
Fe 9.67669832034418 13.617265665111988 8.36000035446905
Fe 13.432182231583708 10.535215320792778 12.94179818162529
Fe 12.421308573538322 11.474927389979038 6.6571307669114095
Fe 11.167506710337657 11.01166835139852 13.811095430677945
Fe 9.61490234609471 10.840728923308207 12.14440986203084
Fe 10.179724843463747 12.19348660633516 6.386693322020079
Fe 13.620187274484044 9.721661973410349 10.689271396944203
Fe 11.774448145346662 11.080497218479067 10.833403299551115
Fe 9.70660688225231 12.312760403081203 10.285366567968632
Fe 13.452516970042488 11.73273636016023 9.075791575902548
Fe 11.120899910709104 11.823988655073627 8.417081658765643
Fe 12.701705223689643 12.75037185267536 13.556189851280472
Fe 10.699942369035837 13.041105801844992 12.313373995666684
Fe 13.702323572100852 12.329478971107543 11.339170191227268
Fe 11.7725261839113 13.451246255283461 10.04567439303804
Fe 12.665737417569506 14.380421066967939 11.953984582702947
