39
Energy = -270.93243648 eV
Fe 11.546408512131581 8.496629321193653 14.426793765594642
Fe 13.84399583076955 9.494643040246908 13.713654002936941
Fe 15.244798601864769 10.685289199838408 12.168053482764472
Fe 13.228785887203395 11.765403011188031 12.82357047904947
Fe 12.119804346612586 10.763358749440151 14.764269138276319
Fe 11.959816461888396 13.971621925500417 12.739487030265767
Fe 10.662047675114636 12.111081770950726 13.446585282772213
Fe 13.551098262251958 9.465550631246145 11.160244447193104
Fe 12.840854018765357 7.627705998464281 12.644228082213134
Fe 10.197704284160379 7.680083341430645 12.598417066873687
Fe 13.929564762621801 11.692235708658895 10.424829958233946
Fe 13.950713590481392 10.191383382171198 8.599863419502455
Fe 11.542015698605358 9.853079331865066 12.520827149896617
Fe 9.95013165189323 13.83324672453385 11.480769728934739
Fe 9.507244589006659 9.905942841340606 13.658318578800111
Fe 12.698108963814764 13.844409421652887 10.503959412161704
Fe 11.178645140891179 15.643405309110841 10.737192982187862
Fe 13.230478480394055 8.023254590511252 9.15197693813659
Fe 11.511885140347111 11.893760630193889 11.154887064880995
Fe 9.209167113492915 15.423441635197193 9.486713170297946
Fe 9.601849172583151 11.651940455035879 9.689795879424981
Fe 11.500549270899866 7.994311543361005 10.712982421341284
Fe 8.0684131870614 13.4501773482727 9.983055015645249
Fe 7.3626712612722 10.092586458625895 12.535684339391223
Fe 10.713231660301046 13.726658390776887 9.099090474424981
Fe 7.944628345204375 7.995344721065661 11.945324620126152
Fe 11.630851680021 10.077750265368278 9.606273715635732
Fe 8.85363118845177 11.738460778403601 11.954891099960848
Fe 12.342225620105925 12.07455940056786 8.600127761775694
Fe 9.602771120823876 9.622392701589146 11.119711800330641
Fe 11.984961725167867 9.65158968511873 7.364923730245996
Fe 8.795564768706502 13.446785379937607 7.747199545740587
Fe 11.048756562364595 7.714498838204073 8.358687766288782
Fe 10.290954532812924 11.568603226151964 7.447438396476933
Fe 9.246326908195957 7.489371475393292 10.026492537023056
Fe 6.811438305231527 11.60699616156985 10.699628135620529
Fe 9.511982652231614 9.472079050983186 8.531256708774507
Fe 7.780043640748633 11.353608473117664 8.277133801243284
Fe 7.642746757336487 9.56861780967762 10.01227152629421
