34
Energy = -233.77731167 eV
Fe 12.396905370010359 13.383310759535682 10.260192337424545
Fe 10.84579725546721 12.341626420028543 12.15583165446611
Fe 14.24302066403295 12.18731584669382 9.265446904841637
Fe 11.006612116983925 13.752851206981711 8.345960567619798
Fe 9.193513753667393 11.058468129315923 13.392522576429794
Fe 12.729046560688005 8.555447209762905 10.591038555130726
Fe 8.365121491392062 12.285202134317094 11.125414102999711
Fe 11.274016506572698 9.899610860833045 12.078975104350262
Fe 10.52959133521389 11.769691271441788 9.946238089611976
Fe 12.23764448228975 11.637434766364407 8.311739062122816
Fe 9.995790678965884 14.05729862780781 10.5755789489708
Fe 9.941608752678842 8.791620512286789 13.616372929626374
Fe 7.8144749410053205 9.667865504747324 14.786428428609376
Fe 12.792018503954846 11.030039310199099 10.667752941158994
Fe 9.115314028459474 10.037354368976946 11.217206724388534
Fe 13.6342701367884 9.845668247780129 8.694479333532602
Fe 6.996767819726638 10.947626781506449 12.6336123517901
Fe 11.731454670714985 7.469535965267471 12.456302082035391
Fe 11.32809996291227 6.85114473799099 9.848129819388328
Fe 8.691502118525007 13.18134272426513 8.74503496894339
Fe 12.638331528741405 7.830482371101078 8.117976412040143
Fe 9.784934739315581 7.763743953752606 11.324025029786283
Fe 6.802107475988468 9.841062602868261 10.50542650820996
Fe 10.873438657308006 9.497617564877315 9.281633165824942
Fe 7.766287739533715 8.767013733184811 12.710338556236424
Fe 8.429997143481769 10.81454908897391 9.008935194186755
Fe 10.173159971842617 11.65354173465267 7.41736475187081
Fe 9.011003860392387 6.211715542978513 9.62927813260664
Fe 7.90223915201148 11.609562680864322 6.935181174283937
Fe 11.676736670093689 9.672454841919286 6.98141120616404
Fe 7.367026794881607 7.551136879939867 10.870438297449049
Fe 9.224565397900182 9.483989646109281 7.035977608259357
Fe 8.597535692051736 8.491869400285 9.131858744191625
Fe 10.30996597740218 7.485560649197235 7.788491727966553
