34
Energy = -235.87122585 eV
Fe 9.737285289076013 10.657905028468946 12.421783135891108
Fe 11.255029480005843 11.275593077333076 7.878017320536512
Fe 9.90612859633899 12.693213703689985 9.180377946879114
Fe 9.080359309551461 8.997280068831778 10.685843189280156
Fe 8.70921799475191 10.41645457439462 14.500793693034284
Fe 13.03903506280213 10.199616311532226 8.761341220118556
Fe 11.026687431150167 8.63051734867145 11.970919083483492
Fe 12.943530593951454 8.579278498043333 13.35753092708581
Fe 10.45470671706386 12.69264678225005 11.584859544659183
Fe 14.627643919505728 9.702874939384099 12.234035963049635
Fe 12.730652962971458 13.496528891273845 11.914370185590007
Fe 13.724051629470681 11.27112873187827 10.696336385901837
Fe 12.967797325453313 8.921950641181407 10.759299691433226
Fe 13.227403991876805 10.633942216444252 14.494776531876335
Fe 12.904151792189703 15.311947219381848 13.805380029023214
Fe 14.777816658778667 13.372886579829766 10.841185087541028
Fe 12.22132406749883 10.898384075719964 12.471954109018949
Fe 11.09379182393626 8.7910339549014 9.183925464739993
Fe 12.829200378012649 12.974003612946284 14.205466507028728
Fe 11.055645654952908 10.729208536653703 10.38170128465394
Fe 10.800865254545826 14.357510495029157 13.170918444282751
Fe 10.91480547221849 9.553234588145548 14.30747360754484
Fe 12.284329497118454 12.667142046319057 9.595158598795377
Fe 14.884596069453542 14.137166050412162 13.414932724429903
Fe 12.06819345684405 16.005132795738522 11.778176656055466
Fe 7.552759086742804 9.914841436997927 12.365361948580446
Fe 8.501518121030594 11.466242972394838 10.586723808191147
Fe 14.335307604397132 15.577547187081946 11.691262821715329
Fe 13.132753008993545 14.877405427409798 9.774836253156863
Fe 10.704200439698255 11.995743341262523 14.0973380607047
Fe 14.550205249770885 11.913423219178283 12.892010337309488
Fe 9.03508093668468 8.3429578075893 13.240087168142061
Fe 10.837496249038834 14.62837925499801 10.391623944986668
Fe 9.245149644595283 10.30064606584432 8.647693272046642
