34
Energy = -234.2872941 eV
Fe 13.57554998967357 9.773589233491009 8.563202543420735
Fe 12.487498760294663 11.80394441950352 9.819564461439736
Fe 12.870254784494412 9.506276035902196 10.768242837230524
Fe 12.74439273664816 11.626994849321369 7.4019995732472745
Fe 12.672548119087521 7.146448835556778 10.971692026869842
Fe 9.882166808610124 10.48471064391697 13.29140895430441
Fe 11.054177380682896 13.009611160765617 8.230115968893084
Fe 11.978842683097337 7.992371171685794 8.621856035263761
Fe 11.73365765786117 8.874437495322875 12.89648813442132
Fe 12.12916056624381 9.499963058001258 6.57499751832383
Fe 11.029490747473686 10.116113861330176 8.881798727502892
Fe 9.712902353048163 11.93373640882135 9.727776408908786
Fe 10.66817483555389 8.518655665158214 10.784230599625008
Fe 10.332372772399749 11.211363217391623 6.81026337919537
Fe 10.775243621840449 6.168907649123543 9.9427402592481
Fe 10.920725413055695 10.794387729479116 11.370077516455192
Fe 10.880760442497872 6.692996280712729 12.44853542494952
Fe 8.788638817736228 6.863154345005929 11.045831445532274
Fe 9.197072572296774 8.338511925407653 12.800361123171601
Fe 8.506718236420928 12.551608014314862 7.599269562892052
Fe 8.57233701405629 9.72179222766936 10.819208778738139
Fe 9.892644952507492 8.792140144608023 6.776371082414749
Fe 8.5616472776058 10.17209447240422 8.422960129942446
Fe 8.544610519153325 11.928536023249471 11.860392974503384
Fe 7.292841604652865 11.995108325899501 9.687585894951845
Fe 7.269289969854238 7.685479176354042 9.422975832918546
Fe 7.580882839810905 10.058895326635891 13.34533101648805
Fe 8.198221142893608 10.520329338508644 5.948848090519337
Fe 9.493242205954017 7.971173846663126 8.882430682839765
Fe 6.759440954222324 8.472357982226647 11.600527967737511
Fe 6.514204312493222 11.274782420338301 7.4511739130012495
Fe 6.309529294464645 10.792242575449485 11.454729688829838
Fe 7.345558798828718 8.726655861247787 7.1480948120074235
Fe 6.245419640415044 9.778849297602001 9.315900411270182
