30
Energy = -201.93384416 eV
Fe 11.788957239730447 13.286615846069646 7.804936315788216
Fe 9.513617698603142 12.446668502017927 6.728905521259831
Fe 11.519803303969653 11.181973381671002 6.818558427074041
Fe 7.713040753725852 9.197871113009569 9.074103633811303
Fe 10.107260602104892 12.14745909615422 8.831624533232105
Fe 11.94496798872672 9.114741084180507 8.22873579143142
Fe 8.44340430240641 8.023179176220024 10.931178655714945
Fe 9.453789524355336 10.111003480368108 7.306409732916951
Fe 13.998119589344254 9.758536554219948 9.379094420379705
Fe 11.546381432070488 13.443844055533521 10.395301308265262
Fe 13.039859557984459 7.599239380666696 9.88012577505178
Fe 10.742845786111056 7.5749183206869315 9.870017883243008
Fe 7.901280192378709 11.493778228974138 8.95225607357953
Fe 12.251968582263451 11.318211997114762 9.182261782648647
Fe 9.965752386575685 9.740338427464321 9.50881596245691
Fe 13.053573605769138 11.746471342028677 11.365392263620448
Fe 8.979222725828704 13.344316819971578 10.507272209211818
Fe 10.47195783299453 11.380634609901076 11.168044934065495
Fe 8.198746238962121 10.447225033392622 11.276830763392965
Fe 12.236262734556282 9.529848798312713 10.784426180757007
Fe 11.680041312329116 7.207369472575599 12.099828423102576
Fe 10.252886307680773 9.019797683211817 11.891864764711974
Fe 10.907075324916192 13.017809701274576 12.689504477350688
Fe 13.13999426009725 8.701685267596634 12.691017283823152
Fe 6.839738175590353 12.303406928050173 10.855330019493296
Fe 8.447801250761886 12.617069525054859 12.59121468337629
Fe 8.420745368750366 8.746755554824182 13.272273522032418
Fe 10.771048459865819 8.721522857075703 14.045791488776974
Fe 11.858769532176588 10.728355808333735 13.067366970212806
Fe 9.528867717910147 10.76713174258239 13.51929598775672
