36
Energy = -236.94746605 eV
Fe 11.682191663329398 13.174352457172171 16.362405341408863
Fe 11.860750454988459 10.913426273271352 17.365333610646775
Fe 10.543588920114328 10.6567583350607 13.330414412645418
Fe 8.996834069403562 11.86124198344292 14.840202473957675
Fe 11.960955326460542 15.324479088595018 15.12839390048069
Fe 10.610453239662935 14.940258606394439 13.187158044086972
Fe 13.046544214345982 9.20841995664225 16.102234189993066
Fe 10.967161859825755 12.816215190465906 14.210150005268792
Fe 9.628272566736507 12.729876964870664 12.423512341417506
Fe 10.830129471415955 10.5057215670262 15.490122326258492
Fe 12.96151313430088 11.47425984802063 15.297057719577197
Fe 12.557507853606715 16.843798589065667 13.381344181373784
Fe 13.129185372033545 13.513425283118568 14.168023187928915
Fe 11.185595876024054 8.660390694606942 12.153949807228113
Fe 10.629812489249844 8.525411739365243 14.609688145994227
Fe 12.656612221605466 9.252646675658346 13.793461112182923
Fe 14.991441092421807 13.342970108425543 12.676857586105394
Fe 13.259748801941383 11.513598100375239 12.75336250337361
Fe 14.20158754688625 16.056284679760438 8.932202310926199
Fe 14.761013672205786 15.431778031387136 11.310039495106075
Fe 12.168871100527715 15.362851139612285 9.825400054610975
Fe 15.06962114132161 12.707134599499113 15.063867685196366
Fe 13.284960585379492 17.147166966552174 10.908422518888695
Fe 15.358238549471903 10.571112407958173 12.287443293385525
Fe 12.718666637693744 14.905951941842922 12.231748534669427
Fe 14.506552503702746 15.419724684845168 13.892982239684782
Fe 13.38135666305081 9.089421356684188 11.391888169281724
Fe 13.905856518823812 11.281798832874863 10.481123240212204
Fe 14.71557952132683 8.499305883495163 13.296142212332098
Fe 11.64237727872095 10.69698640053584 11.170528874513048
Fe 13.861906645806346 14.354107741509416 16.279870575200594
Fe 14.836827752227022 10.302463535638788 14.711097077450775
Fe 13.681417584059702 13.604626206186907 7.499653564076535
Fe 12.245641243396518 16.646865081258657 7.928020361065224
Fe 13.947401372784272 15.71134095743991 6.514963957414107
Fe 11.909557948944803 14.649449175572412 6.696640558424745
