34
Energy = -236.3872146 eV
Fe 7.982001752547455 12.13903742662205 11.191845110404618
Fe 9.597168670445766 10.276069246782226 11.175782478494433
Fe 7.304907409967147 9.798231903051194 11.63639005330797
Fe 9.975385722971087 12.48206039970247 9.85577098463923
Fe 6.05315826432459 10.820857947870483 9.998655142624996
Fe 10.631330774391039 12.346511168993619 12.074657155635304
Fe 7.524703138233544 12.770931131288473 8.935817269087154
Fe 8.166994556214416 10.663610937239048 9.121643866699937
Fe 9.326300479193078 8.363852964964211 12.411716896457074
Fe 11.320813716887859 10.17780078116259 12.925639444663707
Fe 7.229931508241793 7.337661082372034 11.916205056495325
Fe 5.956601372808191 8.105042215521065 10.03152169118407
Fe 9.539409292990872 12.335124962436975 7.500103449944785
Fe 12.380132659721882 13.099736851340062 10.502743657169574
Fe 11.87025636069218 10.619097522716327 10.46169324457992
Fe 13.001420008102457 11.823643087811844 12.36438825408557
Fe 6.516964405686984 9.27446617005602 8.09524489441343
Fe 7.2745611980944656 7.070411596484607 7.922131377850038
Fe 7.5382233451671725 6.000566505634138 9.991656027530093
Fe 8.28242222948853 8.363288285934903 9.927751080287592
Fe 11.885047950732078 12.258042109321691 8.326726602867698
Fe 10.743140591685739 10.49655578412795 6.499215748945287
Fe 10.379796066643184 10.33733428038935 8.786652747682176
Fe 9.611591786167631 6.474707903983575 11.089623260695124
Fe 8.172074352143875 10.71950666516718 6.721100208908062
Fe 11.750823625152842 8.16847596094629 11.827259800148829
Fe 13.667734449379841 9.677759118072704 11.783130044407974
Fe 9.011357229940375 8.72360678599758 7.602977114472533
Fe 9.57608316924418 6.577928769157488 8.596630236124687
Fe 13.939465365445459 11.30460090197334 9.930870857358533
Fe 10.62250063258492 8.287096501321267 9.85411980084453
Fe 11.360131321379429 8.349528023802959 7.605425686989132
Fe 12.905365438677755 10.251139648372819 7.943066193253018
Fe 12.99481257314195 8.66643411024685 9.673321209225914
