32
Energy = -217.64506279 eV
Fe 13.836599708494141 9.494725677595401 10.531626273995283
Fe 12.500013968911919 8.05181098702865 8.68218555429752
Fe 11.992036467192081 8.075913262281608 11.115701468488867
Fe 13.908799086758114 10.057276298863625 8.324697260116345
Fe 12.878358656815388 11.783825930903351 9.948615504920438
Fe 10.076905109399961 6.755942099466895 11.512623712017207
Fe 11.068235584889711 8.667040721210952 13.376150262675525
Fe 12.148738921393024 10.426347145084707 11.8765232495451
Fe 10.270897142703582 8.53159930825684 7.172521543319989
Fe 11.554556221969452 9.99744378263487 9.415430531571841
Fe 10.022553913077223 8.123583155222878 9.530866116917208
Fe 10.421424686950385 11.271568076906759 13.228585764417547
Fe 12.323810178942166 9.480248940488707 6.717015051183933
Fe 9.789643330905182 9.360486923243833 11.63090800698037
Fe 12.557478292218772 11.83659838630877 7.55544360630938
Fe 8.794949172998905 7.661465676671653 13.20449323744771
Fe 10.26603919944922 11.591715848694776 10.724352880499332
Fe 10.597226551946859 11.068503362852894 6.450232880639733
Fe 10.639653674426281 12.60298992924187 8.60554613546686
Fe 8.762543155097728 9.861573403657944 13.982522030485525
Fe 9.52406974695826 10.437953880139048 8.51457389737648
Fe 7.945947897519351 7.602621300612405 10.773574784872542
Fe 8.134768788342457 10.02190751661513 10.150190273611063
Fe 7.928090746567221 8.388717792697255 8.277537802376486
Fe 8.265404488846624 11.507017768198113 12.151253099933323
Fe 8.388783943618359 9.846352450818578 6.473961397814714
Fe 8.24150200575796 12.421247144666935 9.64687347546527
Fe 8.653497126348329 12.309840344153315 7.294680143769757
Fe 7.14575700430575 9.323869396593015 12.272548137276099
Fe 6.118261246058898 8.988768418619344 9.896061936954917
Fe 6.971007409123647 10.784278768018503 8.1802184408009
Fe 6.312610236779554 11.237283793892816 10.771991516453024
