32
Energy = -218.9619198 eV
Fe 14.154759903673185 18.088310294237633 14.266133829933018
Fe 11.387082143604909 9.574573346428435 8.946172114665352
Fe 12.728269023123065 12.700031151807929 12.754243133329389
Fe 14.520285302181437 16.204979923654765 15.66419906723269
Fe 12.343518749967808 8.099908257331387 10.514668980316625
Fe 13.307320719436783 14.926771217887282 11.441635459643148
Fe 15.058264642266025 13.556696597225635 12.503412948924401
Fe 11.495886487850964 13.414095554960603 10.568688196570012
Fe 15.2002758406565 11.764456580813095 14.14505970254061
Fe 14.899124106421203 15.990636573021623 13.176929906549814
Fe 12.450035712350898 16.863531695458036 12.993129889275039
Fe 12.065134402071394 10.792667721377256 11.45061380366759
Fe 12.188016090227523 11.763634129646201 8.97781057323106
Fe 12.551154079938124 14.851744160546843 16.18285472079927
Fe 13.921948221131606 8.887827326131502 12.008834784409412
Fe 13.85141735910665 12.734649007720318 10.418903992263095
Fe 13.114005496212783 12.425818865324345 15.223727382488232
Fe 13.3885814469741 10.28101192377811 13.857111418569147
Fe 11.19374041420641 11.123680726850674 14.093923370199494
Fe 12.417871293908963 17.258094469831104 15.649541376014353
Fe 10.903457231419834 15.91394411327699 14.584504993640946
Fe 11.002907389828337 13.476415037832597 14.533612992182706
Fe 13.741231017042645 10.10281004328394 9.82348001579706
Fe 11.588235863414587 8.816151562597511 12.835036026778345
Fe 10.048817512687435 11.335712826980485 10.179473574719461
Fe 15.071226031204267 14.001449709053274 14.959567135629364
Fe 13.063018459911536 14.78868863512738 13.931396677572911
Fe 14.738469371353377 11.112867073077576 11.923241306572137
Fe 9.687692551048336 10.273025959356453 12.433579916326137
Fe 10.133322967763965 8.790778811578082 10.679467432523982
Fe 11.075988453823133 14.846416124715272 12.449357407176496
Fe 10.160217111041149 12.616692715022895 12.391945483318178
