37
Energy = -257.86184896 eV
Fe 9.219780827540538 9.231435210444287 4.337834208194335
Fe 8.43277126477737 6.676537355108684 4.678996687163167
Fe 10.925154567418744 7.411358546654032 5.178865369618941
Fe 6.885032129781043 8.67094579743378 5.334047636740411
Fe 10.854134677297324 9.89235557726337 6.137440381085467
Fe 9.08097423803962 8.167700374954409 6.287903581485565
Fe 8.309359906338656 10.56871180769296 6.283690029401355
Fe 9.741035999426977 5.7631808192582366 6.633946839573906
Fe 7.21814785676218 6.4757656860407415 6.769066306608228
Fe 5.931469247839415 10.59517672370666 7.205318304762865
Fe 11.252391503912811 7.687003356027362 7.578572342348197
Fe 5.291485232555742 8.150111135410095 7.082001544334279
Fe 7.3188841618547675 8.75770405277389 7.775213010591046
Fe 7.3858976285056945 12.653181336670468 7.457630480223646
Fe 9.905464626897473 11.908779447034995 7.699271826650719
Fe 9.752588981757752 9.44171648413258 8.196526167582899
Fe 8.969081422596345 7.081830365848645 8.393640267348378
Fe 8.11706083664695 4.922179296886632 8.952229483543336
Fe 11.750249925586855 10.4533696877737 8.497415897828436
Fe 7.920062781680489 10.850049495581727 8.723708171661766
Fe 10.651781261551015 5.695155524701365 9.389178894891057
Fe 6.488069050831842 7.006823481816256 9.169398746836356
Fe 5.850918495965891 9.493142965321349 9.560860006821683
Fe 10.959201573413374 12.441795373557202 9.604526495960794
Fe 5.956008027680283 11.905778798842107 9.425332255797594
Fe 10.658472415228704 8.167182270674491 10.06115932763422
Fe 8.178473575280536 8.837524248531274 10.034519514042207
Fe 8.550129184349329 12.747185723551345 9.764124378649349
Fe 8.655220713920833 6.655038172504097 10.622331588152857
Fe 9.847043169745815 10.533949824715632 10.399962032496058
Fe 9.292048703469947 4.538751688046674 11.105755133400208
Fe 6.81437714269761 5.433222265421073 11.096758032759444
Fe 7.4171467897413335 10.808092850475724 11.105771928700145
Fe 10.760331838096874 6.466188092964027 11.76860454557252
Fe 6.782047479494256 7.855326919652172 11.675490993638848
Fe 9.343620923358614 8.58058862525959 12.069693786315762
Fe 8.453064927176493 6.394143706488407 12.86219689080417
