35
Energy = -242.81304678 eV
Fe 10.653864818724964 7.884185442878636 6.34988165010462
Fe 11.97140190539744 9.898204680239814 6.250782625043129
Fe 12.630222540717368 8.148443205266327 7.826916305753881
Fe 9.639599357560503 10.018850528633115 6.119207853462827
Fe 12.930342889096725 10.98390578660102 8.062207173351887
Fe 10.71930859048562 11.68425010492393 7.560018416436157
Fe 10.396670072278358 6.71760772876195 8.317573520723029
Fe 8.63932304697493 8.184548283216659 7.677751067691788
Fe 10.713166271783399 9.422083755993343 8.557741127168981
Fe 11.774144628390609 7.387848238042025 10.019536246131894
Fe 8.518859195765542 10.514043913431795 8.136780371426166
Fe 11.429804026400156 11.334943157880126 10.059301981703863
Fe 13.766610110031092 11.963888544664975 10.070238054189488
Fe 11.94565659511592 13.287374512689059 9.08568764418912
Fe 9.301629297002766 7.953116069970712 10.06250420517115
Fe 13.125721125776021 9.46108634595755 9.858537828094576
Fe 9.33885951685438 12.417295579421339 9.42314971547891
Fe 11.051229415859945 9.248584046069404 11.226963265699686
Fe 10.257184068481704 13.763983693442144 11.099438101195359
Fe 7.126716073130388 9.12892522870307 9.662450739558867
Fe 12.922177550618343 10.693528677650885 11.98369580965384
Fe 12.389100590149283 13.074869755968729 11.711739985100138
Fe 10.432482881967283 11.496036535151447 12.249208402719368
Fe 7.0343892200460525 11.51344470840948 9.950315555069743
Fe 9.01529016049476 10.3243666724308 10.55925953658379
Fe 7.734077429500904 8.20159460456764 11.743848092265209
Fe 10.08623508815557 7.552949375087348 12.374350565158473
Fe 8.263079314116071 12.702852186214534 11.717658079123924
Fe 11.545631145106046 9.47973575412628 13.579016231021196
Fe 10.235020787747938 13.358574360208067 13.520144601598478
Fe 7.015361625601598 10.46680672735335 12.039361930356833
Fe 12.22512041593019 11.972031517206597 13.89181012575192
Fe 8.347641055838196 11.773971282199653 13.82567436872637
Fe 9.170786612527305 9.578109746806872 13.08017182731448
Fe 10.321160481310297 11.032073348556938 14.830810555928828
