35
Energy = -242.09122791 eV
Fe 13.469116048538885 8.324041225688148 12.32107930534398
Fe 12.567047016470335 10.453882458324772 12.897713627025592
Fe 11.466449470538182 12.501983623539886 13.460411966273801
Fe 14.08858261102607 10.369389554401986 10.852572208695182
Fe 14.458949401369708 8.159656161313846 10.28651557919955
Fe 12.74897620690824 12.474579828650716 11.31501735634552
Fe 8.103928733400547 13.795156491263295 12.201506689048786
Fe 11.106312612316827 8.010513540263036 12.348293544473433
Fe 10.153218563404122 10.115737636745097 13.054370314960765
Fe 10.494511933942482 14.022429626891174 11.884954740936294
Fe 9.070734711244995 12.218712749103174 13.525604203799332
Fe 12.198910899133645 7.357813805907882 10.265470354915678
Fe 8.701872323029873 7.906930278175021 12.43013228418755
Fe 11.840526329115802 9.732441920630816 10.82379333651139
Fe 10.591193344801887 11.753515322871255 11.35421207940854
Fe 13.288947996286783 9.11227628488353 8.594259128787957
Fe 12.421554054300417 11.316047672684604 9.1056583979767
Fe 9.986195843927232 11.144469669105577 9.140563559491872
Fe 7.750542276865704 9.95820508473391 13.032853654412362
Fe 9.454150889443115 9.495004177113197 10.820767194393522
Fe 11.208455965439164 12.46936777494989 7.312994089109011
Fe 11.637539369814407 10.204719462618728 6.893425545808834
Fe 10.95752394257129 8.969565808646575 8.713323489102724
Fe 10.729604337162527 6.75549492594782 8.259086132512227
Fe 9.693927956442174 7.229082992249825 10.306001649241228
Fe 6.68502619226317 12.0575369689222 12.92972145753352
Fe 11.099378920078825 13.434052638362935 9.512695512137515
Fe 9.99410402013422 8.320630176946684 6.604703307889072
Fe 8.11395673486766 11.450869208517705 11.260632982574805
Fe 8.839662060586447 13.306463694991416 10.018400723975056
Fe 8.961492915699296 12.844019867505866 7.725499052991873
Fe 7.669228297136562 11.019927129685286 8.961626453010709
Fe 9.303249728105953 10.551373663726471 6.980276903441511
Fe 7.274517772690299 9.033008020567623 10.728604448391877
Fe 8.596207806911607 8.660781252597792 8.605201422227621
