38
Energy = -265.97851942 eV
Fe 9.387061348080197 12.768176676156163 14.128893565048005
Fe 11.843932769531856 12.516603366829337 13.350084798139964
Fe 10.473899371497353 10.62910641784412 14.341909712042066
Fe 12.815223425632722 10.080458963357414 13.588088330961918
Fe 10.395446005168932 14.207772579304045 12.306314735319624
Fe 7.988787577610201 11.091422453443974 13.086351130982058
Fe 8.171982642622343 13.378881478091358 12.084926711915651
Fe 12.697231810903233 11.341126974878577 11.482434273564659
Fe 11.100653063450382 9.592968553657512 12.172211599423278
Fe 8.963021206632984 8.944946400126243 13.812252243300115
Fe 10.055735094737756 11.785043480651801 12.042739709550313
Fe 11.84621539771079 13.228595381596127 10.618896193996049
Fe 11.26472208209951 8.189623893520386 13.966200372197884
Fe 12.23450633488205 7.440265110996718 11.571107615115116
Fe 9.578333340726143 13.379175855405599 10.05216379422268
Fe 6.790672133886255 9.237366481760928 10.268735724560656
Fe 8.82519626600209 9.480076091350186 11.381206722087498
Fe 8.061550977700021 11.497769552562797 10.500509316036876
Fe 9.75251902778569 7.429310451556232 12.131125430654025
Fe 6.60598280438276 10.869883467387298 8.651140834098685
Fe 10.662086076447016 10.938166686879143 10.01515529317726
Fe 10.642484088772562 8.281381809118876 10.107714913122715
Fe 8.931581433505555 9.667086855617075 8.817291816537807
Fe 12.786889212076083 9.297872412021649 10.339973636177412
Fe 8.766257982372805 11.99729779489908 8.189506993980716
Fe 8.31732574560476 7.422056232421452 9.944196817175156
Fe 7.320540639309324 8.328952967253704 7.922392765668659
Fe 11.29635645159397 9.598818929187347 8.21724228450802
Fe 13.010082069247801 11.41482159086905 8.974145435376379
Fe 12.402725996741713 7.440677843959797 8.67881013768589
Fe 9.92060450970651 7.2574524609498186 8.131630924866677
Fe 11.139196952482502 12.448374563103435 8.101064269003462
Fe 7.735746860963666 10.3796392869727 6.666910955551714
Fe 9.406987254352684 8.645805214543687 6.408870361300745
Fe 13.716396440517778 9.277480353765222 8.033248521991469
Fe 10.163261887710437 10.847147278243852 6.482543751812714
Fe 11.87489205832057 8.391107739511655 6.405472886836169
Fe 12.573061198804698 10.807619572481796 6.561979052612301
