35
Energy = -241.73180358 eV
Fe 9.849826410759693 10.715837782486773 6.479686247693966
Fe 11.453589353079664 9.039486064715422 6.311226811389246
Fe 12.11647297291522 11.123051079042687 7.4626926508602525
Fe 12.174161998714341 13.063059864086831 9.206466928767338
Fe 10.099089710611347 12.309657727502536 8.207106285904269
Fe 11.060652521148272 7.196873500689941 7.693453884425139
Fe 10.084869762801693 14.26606724825076 9.667303661465528
Fe 12.963735437150559 8.847353984728892 8.17395990694781
Fe 8.425373006401015 10.543140088709215 8.583396100863308
Fe 12.681804781085692 10.699328020244437 9.874472985083694
Fe 10.713344507044868 9.654001700415796 8.769839243898543
Fe 9.047726904474247 8.600268610197341 7.158372394091865
Fe 8.341965740960426 12.583964348599853 10.090437609769257
Fe 13.242928650700874 6.640258894656824 8.752215025392966
Fe 10.417076416255414 11.52535860679828 10.37545295935264
Fe 12.625721949448868 12.427928616871288 11.492541545356033
Fe 11.971992020506477 14.693984850085565 10.999984856062458
Fe 11.06802875021106 9.350537241819097 11.369850440641422
Fe 9.98222308235077 13.430153681686738 11.886990846267532
Fe 11.86611698279278 13.78904935554041 13.18663617995528
Fe 7.031604432995388 8.676563693675837 8.991430125015242
Fe 11.53663010422864 7.412062987421496 10.011995225575978
Fe 13.481713518278454 8.549756855610013 10.521068312405967
Fe 9.223432920921567 7.847022584264825 9.431880523327571
Fe 8.679759106039157 9.717186624249209 10.828072474534286
Fe 12.923026185867155 10.164824194324297 12.360938173610975
Fe 10.999548201424169 11.457452740151009 12.889615259348561
Fe 6.655273174754002 10.941567699856977 10.476846181541069
Fe 8.433340848137009 11.552565300695576 12.375071851046133
Fe 5.782308324677651 8.88544011325873 10.947201119516013
Fe 9.842125617674542 7.385241346121335 11.837238647110253
Fe 7.509245568377337 7.377706931575427 11.216731057595299
Fe 9.577944154258027 9.497978008694417 13.278913201880455
Fe 7.084174644699336 9.56163429908499 12.762225671638232
Fe 8.161578820113354 7.643075979742684 13.466400444071299
