37
Energy = -256.48996054 eV
Fe 9.162955887989858 6.940003218753729 9.163591501699663
Fe 7.677593852713631 8.330869584940546 10.672072297572916
Fe 11.21573155562813 6.172951472705235 10.753351789854966
Fe 9.822988358214568 7.804916813675008 11.400170239797273
Fe 6.959635128742709 10.586673884225867 10.131343378284626
Fe 11.428462260297092 6.854794331338738 8.472017547434337
Fe 6.467492319860581 10.0570270617388 12.357370640822877
Fe 6.077522905931386 10.327283632627125 8.05306926477859
Fe 9.997073162537788 8.202106745740261 7.066139773846807
Fe 10.002443493182549 8.636181888464584 13.624055520456055
Fe 12.029842399267222 7.874617684218202 12.523602500151089
Fe 8.731410450083136 9.803227408883169 12.08633840416408
Fe 8.241937719146136 9.267477180256513 8.38831970716378
Fe 5.854416607523724 12.204833027130482 11.373678276724128
Fe 10.344197249168118 8.876499919072396 9.383350420063607
Fe 12.39565229292452 8.287073781559068 10.20112878771046
Fe 9.301729773147056 10.8035007368351 9.979934841671094
Fe 6.041847105285943 12.521168546122638 8.982342711586998
Fe 10.088431699982621 12.86813848755749 8.892066760034355
Fe 8.068310293570518 11.986629465637485 12.253830179354964
Fe 12.28477685545494 8.920464880907241 7.8165668490263736
Fe 10.408811146041764 10.671812890710548 7.52992242176277
Fe 8.061590955301222 11.703306518948418 7.995547041360656
Fe 10.11202458667277 11.106326867295753 13.571018977717571
Fe 11.768844100601209 10.921117726155975 9.423729864537844
Fe 11.185213628440179 9.946287648875751 11.675311447161883
Fe 8.045883354403388 13.019275615967555 10.181275285303082
Fe 13.872093610202327 9.15119458402474 11.951843459740305
Fe 12.385043012527136 10.070416640116463 13.652039685020915
Fe 10.36997807282289 12.307911191734826 11.319546118224462
Fe 13.157142724856865 10.937024335433708 7.245632651622203
Fe 12.075005148818535 12.861113186562262 7.764441841677783
Fe 14.02957765120376 9.814946756516422 9.397728986982168
Fe 11.991118252320192 12.384760538934943 13.03002249043926
Fe 13.140889782463963 11.294839239640787 11.312739836067655
Fe 12.187745560562876 13.310829704061632 10.212379012141461
Fe 14.002513500736532 12.160323261259016 9.150405946668636
