37
Energy = -255.95116138 eV
Fe 7.80713375635903 10.829569538659262 12.930812469906996
Fe 11.061984935598048 7.929877715618172 13.473648671915438
Fe 10.044897193206747 9.531323283768467 9.581671688349655
Fe 9.054658789259348 10.557698397874734 7.707983224588293
Fe 13.482286242361425 8.826516911220013 8.248397047640527
Fe 8.715724638289018 8.803006167603861 13.892992879390407
Fe 12.38809470794596 13.03618897654957 8.18245987840651
Fe 10.17133029597819 12.071919360634466 9.196503159989309
Fe 7.0607484700891625 12.771863305764676 11.600211846241585
Fe 9.768632361100188 9.251739306752631 11.936299874678982
Fe 10.74572984424685 11.195191261970018 11.291813783092758
Fe 8.542120374358541 13.661736277118312 9.892105889670217
Fe 9.01460839298296 7.505046152987453 10.056622030867112
Fe 14.797404535755119 9.087423997527939 10.404941485596275
Fe 12.10544328986663 9.997078821988397 12.77604121622585
Fe 11.061380485446067 13.895993734849915 10.509118797984003
Fe 7.506590562128937 9.349577099522445 9.251106857358746
Fe 10.690406817265897 12.158428691556594 6.754278616825572
Fe 11.225392786052407 7.513325224143537 11.166932064168861
Fe 10.374974351812481 14.28740934349275 8.23401173518811
Fe 9.053649928062478 6.898076369619259 12.348393973940894
Fe 12.304756353574156 9.604340554960904 10.450530415789796
Fe 11.793352007843843 10.550359881902255 8.16200075087722
Fe 13.36262398270084 7.186555605060224 10.041325258313492
Fe 9.374943070079432 12.885664086353355 12.152427828699487
Fe 14.032066771208216 10.868389564252764 11.703905116872088
Fe 8.47928564269143 11.030611810125574 10.670431955493433
Fe 11.375496206596301 7.873410032165881 8.729263611778613
Fe 12.580705488469425 12.079045497338448 10.269373378990897
Fe 12.130156815270809 12.476998277059346 12.572067365864074
Fe 7.111661068267382 11.80581101354799 9.035041397793876
Fe 6.1444824258974124 10.539508234356504 11.035763000339808
Fe 14.12323714419205 10.95572663963012 9.017413039855867
Fe 10.20193003775151 10.933548339914937 13.599826840938642
Fe 8.505922052579244 12.940047309857492 7.476122189604815
Fe 7.4844820150168285 8.674863724683236 11.658525207154463
Fe 13.413570149859725 8.13846042560821 12.175904473441385
