32
Energy = -218.35840265 eV
Fe 10.600370147437125 7.437120028319513 15.05741235185668
Fe 10.307217092482423 12.415102495423914 12.758411945065179
Fe 10.990452924428423 10.795068734998488 10.724693198456611
Fe 12.256970595009106 9.159786503680536 15.006836207092604
Fe 10.318349799070598 8.501163977517717 11.209727847748196
Fe 9.162314330330085 13.67730077475547 8.720944902985224
Fe 9.015262655303376 12.171699526126035 10.578315129724333
Fe 9.281226229068952 7.950369537428617 13.194456910934262
Fe 11.721699415154777 15.561582355088841 10.311556770015985
Fe 13.511446287808617 13.975317138629217 9.550458990326144
Fe 14.783840184590831 13.245595230751768 13.37747996551156
Fe 11.434865695938463 10.07303890801714 12.97805819889555
Fe 9.052583163642268 10.253254752268457 12.393568669750445
Fe 12.670446376806444 9.129021589416856 10.922631653134216
Fe 11.257705038734237 11.522397415003915 14.9459938636436
Fe 9.756583891020194 9.62437745085787 14.767011154522484
Fe 14.725040395024289 10.313372864639327 10.876282320715882
Fe 12.867584944719408 11.80172661500899 12.042620061542493
Fe 13.38519788122859 14.42493750918888 11.882339733662953
Fe 15.476032303268974 11.081753482421677 12.934743488444553
Fe 9.846461350830335 15.906049662810004 8.909571403593997
Fe 10.752300416454355 11.934708673882893 8.615909746201382
Fe 13.866420442995656 9.264644446868905 13.036920332192036
Fe 9.3719934802136 14.594221460663249 10.939745280195194
Fe 11.827595488662844 7.689928117961613 12.95382380393338
Fe 13.098487225451644 11.532600155270366 9.563819877464176
Fe 11.467586407036666 14.236126213164027 8.224085136935056
Fe 15.020640372301742 12.719562787297102 11.007066872834384
Fe 11.144806314022238 14.781673990508885 12.563107082083357
Fe 11.379402632566405 13.203778175500094 10.593803187016773
Fe 13.617576636129645 11.247265255686933 14.48852327892848
Fe 12.431527694765006 13.394518609625568 14.009763578217013
