30
Energy = -205.37798162 eV
Fe 8.201869379078719 10.005209476048945 6.780683042870444
Fe 10.160585001969316 11.444927240163624 6.644747618373868
Fe 10.916631318933936 9.249441690285023 6.963820622966851
Fe 8.414620546709724 12.387090772018167 7.981918650464162
Fe 9.213254928399392 7.751987620844802 7.395899004410982
Fe 6.936169451412906 10.75133042066174 8.765921505060305
Fe 12.493129471351264 11.18178087746255 7.70970934429783
Fe 9.332999010226581 9.998332836303025 8.724194398810301
Fe 10.664880332885328 11.971765191070464 8.94828495259969
Fe 7.472778055268051 8.431451893107548 8.817465990411467
Fe 12.610369454076018 13.185708765097564 9.068052417303566
Fe 11.245879340485054 7.425538674482154 8.549213826663193
Fe 9.459600046291298 13.853584417769502 9.745964062736805
Fe 11.690792383776026 9.631444473109779 9.190733376355894
Fe 8.505053289174677 11.77052887492484 10.421147985760038
Fe 9.563856953027365 7.9699038791729055 9.983215260555056
Fe 11.819398208295338 8.267211741686353 11.0349741525909
Fe 12.722181607778904 11.073624626705167 10.42729000341966
Fe 10.3217500171476 6.320186735618914 11.351468363908387
Fe 7.925204933547605 7.0200233566067824 11.100369195407868
Fe 10.383166926719367 10.378744043789226 11.15612649727094
Fe 12.646449428226408 9.740366360121898 12.502233738485764
Fe 7.900068407347508 9.553504270886462 10.87129045355012
Fe 9.2722979035049 12.876043700341828 12.346675630877638
Fe 11.724016712758008 7.688290811464758 13.254922841444559
Fe 11.191947925224778 12.931158135265077 11.011357065601308
Fe 9.55041859565431 8.257921528180667 12.320613819856028
Fe 10.676426818895209 9.597040247551606 14.008014439569054
Fe 11.241545798295194 11.623079437589132 13.026521066775155
Fe 8.712312789026216 10.632432937156544 12.866825707089573
