30
Energy = -203.40962285 eV
Fe 11.584819230100731 11.348530412220736 5.652740171087666
Fe 10.96825989413007 12.987519782674182 7.267640859789988
Fe 9.411953737117004 11.25462162727525 6.028411276253251
Fe 11.149305495833032 9.252159876723503 6.805494863263325
Fe 8.653996263594069 9.640872140813444 7.527296719186539
Fe 13.071245949608763 11.17765582252167 7.323437923541142
Fe 9.436416430609462 7.409807559965898 7.783137388910388
Fe 8.550464062286167 12.251458231821228 7.892691377489161
Fe 10.47016223235996 8.781847633924373 9.236090342235507
Fe 8.831594534169366 10.6131087753527 9.721211581104672
Fe 10.706858304193776 10.996201088274768 8.232484349171072
Fe 12.686968892963177 9.638872035114574 8.995136281574759
Fe 10.086024630468266 12.80620069870141 9.750944815182521
Fe 7.983039357099112 8.318344062146865 9.70337618871637
Fe 9.635243917760533 6.850173616503453 10.342538542268851
Fe 12.44019298199159 12.316137123322362 9.24738689971395
Fe 9.626918653650225 9.16749150567568 11.507144573172216
Fe 7.716958606716008 12.45386248339515 10.306220890406284
Fe 11.86990500103409 8.14598558708059 10.967560936065258
Fe 11.36384389141559 10.637477974485169 10.753646657274134
Fe 8.028888064239073 7.781611279592887 12.22320966657977
Fe 11.633458816108401 12.815432680087056 11.576889162003688
Fe 10.376508920956276 7.021204426427483 12.507701977644937
Fe 9.298728431249817 11.626556532361148 11.79595163426951
Fe 7.31133765776225 10.072579593978181 11.494581386328067
Fe 11.358956708800449 9.148775512396861 13.07264347308091
Fe 10.98190289969025 11.400998226919846 13.35494369179343
Fe 8.75016305562105 10.157158059459968 13.469896161895447
Fe 9.47297425958734 8.109924689154413 14.362313421322808
Fe 10.612507057679471 9.887028900423791 15.166874727470455
