37
Energy = -255.85696656 eV
Fe 7.515578774600583 10.19347291094507 9.665348819976984
Fe 7.92053267495113 9.525073728982836 12.03161318936632
Fe 8.404466992446682 8.586460649002145 7.928153959765703
Fe 9.209606137584608 8.500569398589773 10.21091877811809
Fe 7.379817637096854 10.905873780507536 13.930500824860715
Fe 7.967977550501002 10.884284744294625 7.168747811994173
Fe 8.750146574338073 8.976967066892573 14.256825777637799
Fe 7.822620823062434 12.026396744800058 11.700056125562035
Fe 8.218048415214566 12.277664586320181 9.148493850461563
Fe 11.04765726160751 6.976659305049188 10.585144181475068
Fe 10.583087417713292 7.771232818524495 8.334198775152165
Fe 10.27934322726837 8.683592615513618 12.342014907064822
Fe 9.743703865084212 10.887659603314784 10.848247719924517
Fe 9.438089494459533 11.024816593872425 15.601542208216516
Fe 9.900084974860658 10.337702012947261 8.560618979000232
Fe 10.147441899357903 9.650386084751375 6.424731896036211
Fe 9.731793377458386 10.962058377759865 13.168044898990063
Fe 8.66789618995927 12.838997599958343 14.134246884267831
Fe 11.590499368780678 12.1625979055194 11.668591698186159
Fe 11.070580792279069 9.515213450182783 14.520735237778617
Fe 9.95703450092972 12.407222204791736 7.419143300678138
Fe 10.170322408966143 13.221762678588327 9.88792426963201
Fe 9.731618166419052 13.420799818338702 12.203053674176015
Fe 12.518572011226938 7.8177959663244145 12.19940174558573
Fe 11.815686455391686 11.622569351389615 9.250798692077728
Fe 11.676123180126451 9.44447268965717 10.288531916561592
Fe 11.307940225554775 12.215375801564907 14.100016880087603
Fe 12.155552295336522 9.345795345971208 7.766091688937517
Fe 13.03946164666322 7.71512561309308 9.523702890298315
Fe 12.333687147718978 10.156018750633717 12.642369743658465
Fe 11.749734972139489 13.818599530477421 8.193577338534283
Fe 12.77999661849007 13.69859553791812 10.33431730636464
Fe 12.12571265409115 11.540665751207985 6.968269708317309
Fe 14.141597352469073 9.082398201479416 11.094741697071873
Fe 13.950136455756196 10.213732243590542 8.957235492444054
Fe 13.736013414260345 11.441708391239398 10.942120882506043
Fe 13.845845427010488 12.57140530522212 8.503840401442597
