37
Energy = -254.2049888 eV
Fe 7.045783539429826 13.355143984883828 10.326670955739555
Fe 11.686940612487481 13.137475106670827 9.462238395154502
Fe 10.850717458684722 12.141341190672462 11.422571854066474
Fe 7.507185146212298 10.721465424760193 13.287822381355468
Fe 9.261947148389815 13.376881428721289 9.850134484598788
Fe 8.874115625143007 13.27049046430984 12.272540767445342
Fe 9.973720798729698 10.87743559696787 13.253181369221181
Fe 8.45119378393441 11.246163982188216 11.193496244270097
Fe 6.716332299265908 9.024356386998994 11.770270793797419
Fe 8.883307602364008 9.13792839991195 14.478379810022076
Fe 6.581877281634104 12.759454665745546 12.49436177392532
Fe 8.886666236600561 8.826299385007207 12.236744940582122
Fe 13.211419039316695 11.774538536798284 10.686761487714882
Fe 12.110285590393996 11.06074262294139 8.589081551121074
Fe 6.127516731007162 11.105910328851095 10.862469954090308
Fe 10.711657756515548 9.868855161359686 11.017884721830958
Fe 13.745668297949669 12.70007615181358 8.372188369398799
Fe 9.841774947733912 11.237810543276938 9.000528096273703
Fe 7.5593245429063405 11.536661324549696 8.872639705336715
Fe 8.403067192281595 9.224358318476021 9.889130133143848
Fe 10.92792104519048 10.363414277707216 6.745646169976412
Fe 10.88551030017533 8.523235992278176 13.181699208684844
Fe 8.136672148133396 7.047686761650788 11.093031563395822
Fe 10.819743077245326 8.92595749876442 8.85819331677792
Fe 14.5602212279213 10.423482429935055 8.69136930009158
Fe 12.4758671888063 10.429144476606401 12.47174595401402
Fe 8.91281073276266 7.318896449507801 8.659403947695369
Fe 13.022698084492138 9.439813176840154 10.137822494221224
Fe 12.861262177630724 8.768924378056022 7.700391625403372
Fe 13.429153171906762 10.86869810255861 6.7000800911861855
Fe 8.744512705517485 9.578918674734892 7.516162099463919
Fe 12.708514477005789 7.983963898936732 11.860164091332011
Fe 10.50838247705668 7.4568075077697475 10.744959434030237
Fe 10.442753599589619 8.049986041077485 6.678784131300619
Fe 11.081475310058186 6.50844966181395 8.390305531184989
Fe 12.83761161114586 7.209975046775751 9.641314505304146
Fe 10.92777811856284 14.432645704264061 11.30321783102999
