46
Energy = -320.61517708 eV
Fe 9.556672525131736 10.996863429768847 13.38348897919852
Fe 10.599116867099891 12.267106446141534 11.35989689237436
Fe 11.917108978152486 14.442685247287994 10.670597211899358
Fe 13.186315692452323 10.183435451345606 14.905278641462223
Fe 9.88117949655638 9.597482831949245 10.241565905313363
Fe 14.240822484355613 14.24951305988324 10.09087412303943
Fe 7.807236652196754 12.86947779187385 10.120362272054194
Fe 9.736571803567026 10.13378205728639 7.649001555881541
Fe 11.77071095212342 10.355796935662191 11.989117072093565
Fe 7.652323694788844 8.575364116419887 10.740715964002115
Fe 11.219213938683739 9.189045132219043 14.062625919269673
Fe 11.000497744060475 8.00912979882638 8.61130616734592
Fe 10.935108692018321 13.903536857215187 8.477162288276801
Fe 11.437977249483469 7.348400866998691 12.514108211009903
Fe 13.36404142232937 13.532608595771508 7.898617820980677
Fe 15.07158410350257 12.286292887730555 11.126262551001588
Fe 12.53487233189495 12.41712858239246 9.736358799303758
Fe 9.790637057876303 11.961467196219107 9.235655845900778
Fe 9.474964430379966 8.752264777453178 12.45375067795906
Fe 11.738609089893307 10.356539042961764 9.234034159309056
Fe 14.053821579108517 10.999660294860172 12.968048591573941
Fe 11.799967017880423 11.940074391323268 13.858191622504505
Fe 11.512396126251147 11.865840723411178 7.35325181079634
Fe 12.604320806312082 15.466772770937162 8.966511385069
Fe 13.690647817082295 10.942714466596204 8.089315531647882
Fe 12.94919723616988 12.863332036359054 12.013901804529967
Fe 10.791088934614077 10.85543547361452 15.720444576406008
Fe 9.815653041160154 7.19370954452202 10.622539575600234
Fe 9.703136162152443 13.025674080041663 14.652363583860895
Fe 8.554644472883385 11.431650177866397 15.854479654160748
Fe 7.725821784746339 10.448081442740405 9.077745416472244
Fe 8.60171149785609 8.171081669843973 8.581622266048482
Fe 15.232787820145706 12.4357204954898 8.901066862771364
Fe 12.01698292501983 9.444457300312505 6.839819866209815
Fe 7.275973565394506 9.450422076885006 13.0060113250601
Fe 9.638366998709087 14.332932577313697 10.515163631749063
Fe 13.367607080226932 8.650892154668044 8.563044617891915
Fe 13.821408395964848 10.30241287875819 10.448182192965962
Fe 12.249536174085165 8.449483608380632 10.62273161891435
Fe 7.368740761172683 11.631881987090734 13.8202023728354
Fe 10.00404159550385 8.088171580811084 6.533592223692127
Fe 8.684299365005756 13.160484057271962 12.426870608302906
Fe 8.803244067419529 9.318300982609534 14.867925537218564
Fe 13.367016602934127 8.80571570651062 12.788957089640016
Fe 10.952377938177314 14.112686643600941 12.806740473477795
Fe 8.258231797502633 10.943076542800961 11.359081472950674
