41
Energy = -287.34038638 eV
Fe 9.576961499550853 11.435822211023945 13.986269594590413
Fe 8.065702979485154 10.495916573800622 12.373522609276256
Fe 7.368070092280718 8.078508559897001 12.8048893219558
Fe 9.419183991977862 8.956290801355326 13.57893015048388
Fe 9.341005506591618 12.477597608172598 11.785522214901373
Fe 6.85539904181008 12.180349209118084 10.97300713441434
Fe 6.468157693406263 9.3464199490911 11.084343562667833
Fe 11.222022619647591 13.668930625986771 10.701303375502683
Fe 11.67052084434734 12.180627398600867 12.891157885086393
Fe 11.485603888181615 10.022868255899875 14.105496047702584
Fe 8.412173764690946 10.882747429831209 9.88618809716876
Fe 9.282299341105059 6.6817708328652685 12.495076720629577
Fe 10.542396006458576 10.47987415157694 11.762456562085694
Fe 9.169433507066728 8.677019736001432 10.907536841866047
Fe 8.830522237680043 13.477356398608649 9.711092282998711
Fe 5.911104264443738 10.669466181935572 9.220743934010816
Fe 11.267264737303117 8.15474307674176 12.3271470978272
Fe 6.931897818259172 12.6507787250446 8.529899699499687
Fe 7.687293030629085 6.880852214870478 10.689771211973593
Fe 10.77952801253357 11.64745411409585 9.561273721818848
Fe 13.00958048134743 9.741721610746659 12.31656201244847
Fe 12.82174469673884 11.58875025398422 10.84043871243086
Fe 10.700298221784687 13.83824153216242 8.252476692496554
Fe 12.829657660505152 13.141780375723267 8.978680907322213
Fe 9.133437159755552 11.999894067814411 7.772956942706581
Fe 7.444019868055728 10.468470597578994 7.363363119676074
Fe 7.446790321619054 8.726297805225245 9.03913543029941
Fe 10.614117744340613 6.727002701307411 10.487450478276193
Fe 11.61697060009469 9.315595235607015 9.928411483612937
Fe 11.441575502602586 11.709192037796967 7.202653757113985
Fe 14.308809785125025 9.672151706720989 10.365377281303934
Fe 9.864633380279628 9.479693518816353 8.490039187165362
Fe 13.015582428095147 7.527572124010923 10.733340959920652
Fe 13.187492006489322 10.804182202516573 8.603585374309304
Fe 9.681369560140029 10.193216554177683 6.113403422292376
Fe 9.14751396655976 7.077023407325326 8.61548693263271
Fe 8.068424140426563 8.268774998864112 6.789793732442231
Fe 11.547786807734232 7.3470261040432385 8.44617264601924
Fe 11.995104825562304 9.362399001793376 7.112635557262845
Fe 13.670981592364209 8.307621666280536 8.616947100166694
Fe 10.299689196325645 7.920096905613064 6.439853664400595
