48
Energy = -338.3916292 eV
Fe 7.777059774859081 9.76366094803972 5.517494402416967
Fe 10.222063850399554 9.132287245793664 5.53599427045733
Fe 6.345591882919396 7.784444979740187 5.588433725891112
Fe 8.631581920373938 7.4312187169160815 6.435293583018742
Fe 10.795491346997514 6.610665581078408 5.924408660567114
Fe 7.0465529133558045 12.12820086190191 5.717279002992587
Fe 5.486057425477833 10.089368548455331 6.328004607829301
Fe 11.2391669189478 10.52036264405188 7.540780217265256
Fe 12.446043597155551 8.621642648428013 6.407881838892761
Fe 9.428353611820189 11.662660406576455 6.446936749985149
Fe 9.02930445651369 9.593937295758378 7.560691337817426
Fe 9.659358822503988 5.77745651325892 8.09738399046418
Fe 6.934420311335973 8.696352004144018 7.729214023312604
Fe 10.754663840085218 7.98300194660117 7.69698526435802
Fe 4.768821599222119 8.0319886072073 7.415765367472706
Fe 6.888090204253568 6.28640060500322 7.675318869236671
Fe 12.467960880395895 6.500020198687597 8.164157668651104
Fe 12.657047690286559 8.921480965024662 8.916270266483753
Fe 8.200947499108072 13.249382524971296 7.772146602185591
Fe 11.80959411945245 11.111006833374994 9.875913991710204
Fe 7.207097228006841 11.095451910874184 7.679091501760566
Fe 10.19702824680035 9.301565416251552 9.474056466758723
Fe 10.685321257445631 12.986354289265362 8.399567654294039
Fe 9.236625642913149 11.462681956812178 9.153945590356942
Fe 5.338268545435646 10.087832795167074 8.947501707887085
Fe 8.53345537967571 7.488337187077702 9.086868372257527
Fe 8.58968685911552 13.7336787685218 10.009799781457838
Fe 5.918183044425536 7.762270478009258 9.645310228885826
Fe 10.944017012439991 6.949558779076044 9.844058442294774
Fe 7.213567615678585 5.737528909916329 9.979786561742813
Fe 7.798116214780794 9.696379144920035 9.965365340268162
Fe 10.493176049447202 12.786932272680154 10.935504739027639
Fe 13.159412959507234 7.2674651606784355 10.70262323215598
Fe 5.967696270197719 9.921775636991189 11.2418420910031
Fe 13.74554420597201 9.928505400780644 10.963838137122147
Fe 11.699237512673964 8.915077641461224 11.171422313450813
Fe 7.995860349187648 11.821017829976965 11.447806090638531
Fe 6.655198575596106 12.126867240756166 9.626501120821985
Fe 9.410889912184365 8.248879965321748 11.354221966433572
Fe 7.176475242078924 7.589027451115107 11.521270844435156
Fe 9.933041490713215 10.591213659840493 11.550404915712422
Fe 9.246364242275993 5.890518494407554 11.104210939263856
Fe 8.061019785922378 9.623503906741284 12.697567093448814
Fe 12.858878937561238 8.6251502974366 13.134042961832025
Fe 12.137772229786364 10.915532661475591 12.444087544316723
Fe 11.24996389503073 6.8398225786288025 12.414292741258793
Fe 10.521915441783738 9.145528112039893 13.456407167477186
Fe 9.05695249261974 7.184941283484891 13.321189317348894
