40
Energy = -280.05761897 eV
Fe 14.023215197912762 9.406913766462463 9.72571299831819
Fe 11.128087333831628 9.512913778951699 7.120242120322781
Fe 11.390538908999986 11.36520989597603 11.090217630366423
Fe 6.77823888426849 12.33710365200981 10.366802633328863
Fe 8.224118748151833 7.9695006804246225 12.401765589635316
Fe 12.575523900724296 6.843906976832984 11.129665920606556
Fe 8.785940894817852 14.280578013351933 10.095211370499804
Fe 12.040052020926861 12.439207621103119 13.290327735918476
Fe 14.333847626469892 12.79490488036546 13.058215566223817
Fe 11.26154113995729 15.152429425842564 10.196586003139775
Fe 13.005318687766358 13.502260017713187 11.143025592822463
Fe 9.526303110687536 7.83322173716242 8.132199258999
Fe 7.863015827071382 10.542046005861431 9.065817264890129
Fe 9.219650690556742 11.945994384914538 10.378128053848602
Fe 7.534344863248064 10.508843735520106 11.772343387593207
Fe 14.411782003503083 8.996414862367333 12.088977555072423
Fe 10.450469960410256 13.606024395102583 11.757748023351809
Fe 9.687142172596545 9.649545721904932 11.587219616531529
Fe 7.892407135865701 12.938460523222188 8.32161657004592
Fe 11.972011287290593 8.015378763533429 8.80267560238906
Fe 12.252081759170188 10.604452845689513 8.880732867591954
Fe 10.09463947770525 9.66146472338273 9.30916698482602
Fe 9.674529042612434 11.633325289287152 13.054741034069655
Fe 12.056005167132177 9.024301887453532 10.932802003450947
Fe 10.105654651596838 7.37301743306462 10.423891186326783
Fe 10.017269336697668 13.97212435207145 7.93433221713524
Fe 9.876060514456071 11.529854593846887 7.803154397508735
Fe 7.91500633874402 8.40465572923231 10.14881585635216
Fe 10.62779437078989 7.636361552081918 12.769792474119082
Fe 11.119948952168839 11.08441574084923 14.989779584799587
Fe 13.657041222405265 11.13124167808716 11.548748658775176
Fe 11.431975016898145 12.997894460406712 9.378215927873528
Fe 12.030291426429235 12.176352946707107 7.242402539764745
Fe 12.897147538164498 7.8590214339673325 13.310469017073903
Fe 7.988963011427698 13.13093849149231 12.159657654242988
Fe 13.76240155693398 12.069468412856212 9.337909373074268
Fe 9.40159515379975 9.434716728384593 13.98002759541077
Fe 13.701499334681147 10.578165472949832 13.995868104202644
Fe 12.236002235740829 14.788092114278069 12.82846355771999
Fe 11.703420983489062 9.922152761388249 13.099407957876439
