49
Energy = -341.93901471 eV
Fe 7.473655166448347 10.517142283768171 5.841701964829489
Fe 8.44062486868924 8.867347354181195 7.199900971111814
Fe 9.852429687604682 11.006347574905408 6.832739617868107
Fe 12.358727582721837 10.61256552051147 7.269232708789536
Fe 7.9367401147558825 12.689014182919145 6.462974938808483
Fe 5.798774442125935 11.76392271965688 7.311966970099662
Fe 10.750459665468187 8.784952756919692 7.62296963506072
Fe 11.350804851698618 12.795141524160352 7.146213310389192
Fe 13.138404719545266 8.248014221299059 8.055491216354572
Fe 6.002113400766205 9.493737054262061 7.413248783159735
Fe 11.342873883467073 6.351129123695547 8.086333231184469
Fe 9.194584183679503 7.242499681418859 9.005620973251638
Fe 14.439165974154617 10.064715463692355 8.676794534684127
Fe 6.849859152800279 13.231665495521712 8.759446227747544
Fe 9.167370891128671 13.422435698424989 8.39186374090026
Fe 7.997224131576763 11.000295285801165 8.29484255077733
Fe 12.977026825557235 12.21596013709345 8.877481905774683
Fe 7.131618408598495 8.64472702645882 9.250928658784252
Fe 9.569958815210137 9.570012998064227 9.480513851056035
Fe 12.148047983903256 10.057297245177326 9.624980936461581
Fe 10.520240571520375 11.752337114228727 9.088525054425348
Fe 6.147151874975181 10.914132906276679 9.713766181101658
Fe 13.173470277909761 6.196255750586454 9.533396195287127
Fe 11.465178039597825 7.923001848050511 9.743098927221299
Fe 14.005199134704533 10.912238059540242 10.870831469667026
Fe 8.333570312195524 11.94701525806065 10.520642729778576
Fe 13.934933051619632 8.32553823363622 10.550963810648037
Fe 8.027196818792376 14.526875795938276 10.444299274554613
Fe 6.08870106853613 13.125009670905188 10.97588916611656
Fe 10.046467449308931 8.146868353547156 11.630098772260917
Fe 10.11518434335247 13.525401738629121 10.740366352889385
Fe 12.19081128177744 6.705463323095331 11.649924597763688
Fe 10.347886215946295 10.624415920779157 11.360893833342956
Fe 7.93119222927901 9.602903756022172 11.246539432696911
Fe 6.375905147318479 11.165511670797159 12.149462173874912
Fe 11.986834420973162 12.131233922725487 11.058237974974785
Fe 8.035072006470683 7.142568520257279 11.062880272313496
Fe 12.267564962827553 9.245646956906361 11.974433964564462
Fe 14.667840999518853 9.639361488465994 12.67826290349244
Fe 8.039121756937398 13.236372976949456 12.502505905671043
Fe 10.388651313413371 5.808986089919874 10.347207739655701
Fe 13.781593611621469 7.547320372681391 13.097298218916588
Fe 8.618519754803097 8.513326953737527 13.346736179592762
Fe 10.330132352458099 12.430325178107871 12.864068673382583
Fe 8.488953046209513 10.925935982014352 13.136199434245702
Fe 11.252869041022974 7.684085207710406 13.694866580984757
Fe 12.785395086731809 11.2705953092377 13.132117015908303
Fe 10.66819922513385 10.003280864048698 13.683213473634225
Fe 12.921702445229311 9.305070019299363 14.45402955402557
