42
Energy = -278.73998169 eV
Fe 8.746896286907212 10.437955840716896 5.364489501686799
Fe 10.792795681343236 9.382283718096753 6.369160204850086
Fe 6.628116105964308 9.817660715478713 6.552761655675366
Fe 8.522539293909613 5.697475343037459 5.918391552509006
Fe 7.674737510507152 12.197720227052436 6.542800231885949
Fe 8.590780938770079 8.108610965955355 6.2701974007301295
Fe 6.52572604758545 6.693617299808635 6.846199510916928
Fe 10.331729607261247 11.955783399822815 6.939215002027455
Fe 11.277766536306231 10.264477902488471 8.755535563140159
Fe 12.423153433998337 8.264588137868223 7.840334775552138
Fe 8.809873720966584 10.321645079768762 7.642702366600266
Fe 7.332738013307406 4.609065190287589 7.7923046914041425
Fe 9.998700566742786 4.603463170516141 7.774399306272839
Fe 10.712117045177907 6.794968585149227 6.787143356198821
Fe 12.578610293022518 10.859497003964272 6.996146413776874
Fe 6.811804807551308 11.268593626664593 8.599348134334106
Fe 7.312421115884577 8.43130520827438 8.261730693172025
Fe 8.612243666469361 6.408416423092766 8.089661266178808
Fe 8.723208561896621 13.1214142524438 8.450746403064496
Fe 9.893202680350978 8.386204698967608 8.451083896010868
Fe 11.491530785781245 12.593874291790016 8.93956624917741
Fe 5.35936287361677 9.144465589984337 8.991512060798007
Fe 9.424250586027908 11.365744447474128 9.650526869188935
Fe 13.428445830790013 10.204977286488704 9.3525617988742
Fe 10.893138392079745 6.44262595922098 9.22078782868872
Fe 8.96911150210831 5.135153494354897 10.069344970633574
Fe 6.571531221114506 6.424129942260948 9.42904648058232
Fe 12.202707129205592 8.37282349648693 10.255250892410817
Fe 8.52449374731865 7.4376303824106165 10.234430280077078
Fe 10.108781143181192 9.189167613563892 10.666229628242135
Fe 5.553245754986512 10.811324359032719 10.672343993018758
Fe 7.75864508185606 9.75737716142344 10.252880680915318
Fe 7.532572945196979 12.215763223742407 10.869103355393088
Fe 10.026166055875763 13.073947637586075 10.936481114253368
Fe 11.541887294676963 11.003054146982977 11.02496081657118
Fe 10.321694841112206 6.95785636051234 11.568141837038334
Fe 6.2492237193864 8.264682774923285 11.143563052828823
Fe 7.551526794861087 6.299351263946146 11.865666733601724
Fe 9.195379449430273 10.972165391276597 12.122281932992832
Fe 10.869048273567103 9.212414828499988 12.74497454509102
Fe 8.50737569468092 8.524134925455469 12.45663917423248
Fe 6.9032027535127565 10.255072417419186 12.571837563694901
