46
Energy = -322.36130078 eV
Fe 12.509945062388333 11.261457139970982 12.601587750429617
Fe 14.648607927075881 12.56529410464506 12.703709936100536
Fe 15.418823405045416 8.70940078630858 10.645144299303455
Fe 13.362557846010557 7.86881891895397 11.895550146010917
Fe 14.646924670874373 9.960685456775323 12.703632542657875
Fe 13.315659013580866 10.010178623747944 10.55725289180513
Fe 15.498184500338557 11.263736751080065 10.658155343683616
Fe 13.41029031050987 7.888998436289959 9.379032655059019
Fe 14.749428327155606 9.993976884111065 8.605204418302177
Fe 15.416215776553605 13.816770823468733 10.646167742849748
Fe 13.364058434656178 14.656805297793138 11.892648997941048
Fe 13.32110098417261 12.52246526517628 10.551688674863316
Fe 14.7477978064193 12.532163400223086 8.607462172378428
Fe 11.261804139457777 15.40737389201596 10.565650369961766
Fe 11.263494086105135 13.359335167567188 9.14135712955073
Fe 9.923587453707993 11.26333386639374 8.390790892554737
Fe 9.117027928022722 7.895255897755176 9.38243951279551
Fe 11.257684946074601 11.263845078675214 10.431923007321698
Fe 11.263783553131683 9.169681313354141 9.138501921200195
Fe 12.603792632714061 11.262977004593756 8.395249921007371
Fe 11.263758689911365 7.1200939241036805 10.569072302359437
Fe 13.408169751140443 14.634257943159025 9.379488513337304
Fe 11.262918750949515 7.14378697905616 13.10606067251343
Fe 9.20051480302035 10.00173600722689 10.553231416412084
Fe 11.263656857801566 9.218594367242824 11.788172221377895
Fe 9.162908007172328 7.871035198663516 11.896309348933691
Fe 7.778609407762266 9.996434089428199 8.611555637341883
Fe 7.876699821365874 9.962170532896224 12.706409059300658
Fe 7.113712115483002 8.714996465832783 10.645664509490837
Fe 7.779524455661385 12.53041673856415 8.610862692862671
Fe 11.263570467655631 11.26189962954264 14.768358008951186
Fe 9.16268065421701 14.654884633355294 11.892901189264256
Fe 9.982312758736894 13.359403139781861 13.961882180125944
Fe 13.7792918848404 11.261904007979131 14.703613844488617
Fe 12.541897019383187 13.357693385734365 13.962503240459284
Fe 8.74621499707575 11.26154998687282 14.699876204463374
Fe 12.540649529780975 9.166308642603306 13.961091042800495
Fe 10.015059450751899 11.262170626215651 12.603098503285267
Fe 9.11889057117402 14.633309081360434 9.38321674614203
Fe 9.201048769245157 12.526961438361518 10.552145751217632
Fe 9.98444045448562 9.165798565653644 13.961463443239376
Fe 7.115917592938045 13.81101834686039 10.646241335983209
Fe 7.03875338754956 11.262220602716999 10.660453682699554
Fe 7.878148634386814 12.564802100118026 12.704729621938606
Fe 11.262908458715215 15.383922995118255 13.10065588625903
Fe 11.26254069252804 13.305643674924644 11.783359725110618
