43
Energy = -296.71299613 eV
Fe 13.619860108461662 10.342851159601446 7.729934708970397
Fe 13.592540384831768 12.673218787414918 7.226192478485723
Fe 13.614319156946111 8.970604460077665 5.8885533360277025
Fe 12.193860018800772 10.92692291688841 5.928896940452596
Fe 12.371626172197297 14.023582721364061 9.169881170464805
Fe 13.398522918509036 11.875363825472192 9.533012705724984
Fe 13.34847415471796 9.53756068685704 10.172483414717753
Fe 13.387531650384602 8.011868868136858 8.219049970094497
Fe 13.040294522288068 13.350945360559878 11.382992567342523
Fe 11.37965253238389 10.007877564376933 8.675093502753095
Fe 11.536074818191702 8.551251175803932 6.784828319369566
Fe 11.4711651283662 12.22690453866035 7.805126648949345
Fe 9.935018095163171 10.38569061854212 6.505178416936682
Fe 10.01231112163295 13.80664052943816 8.994386339750482
Fe 13.042945751799076 11.064811338969985 12.007269058039501
Fe 11.150024643559089 11.807675272487476 10.37919879113226
Fe 13.259134901594598 7.245582244512437 10.727131895413171
Fe 11.234713989143009 9.319282270335316 11.227349581847477
Fe 13.014196690859697 8.655447536011037 12.64523720607047
Fe 11.408929720419735 7.698397925166399 9.427349404123808
Fe 11.352864414751055 12.51792365084572 12.97220628732418
Fe 10.734087174722884 14.018663995371673 11.268327520853383
Fe 11.22253316684351 8.000259235773374 14.286180251341627
Fe 11.310741047650533 7.0371383143161585 12.005571451960085
Fe 9.262966502824835 11.582404963163954 8.416224067724656
Fe 9.402023682422454 8.682221973192052 8.285504963571812
Fe 9.095385309778283 10.133171397777787 10.155550031611208
Fe 8.82340531321295 12.617298526811425 10.623993262843253
Fe 9.326224838672598 7.759283597702564 10.652898443334559
Fe 9.016667615116598 13.040096313061051 12.967201690577086
Fe 9.729485384883255 11.450290375711495 14.727680982824568
Fe 9.64079762652554 10.909265541363759 12.281744710353493
Fe 11.376595682058536 10.138092973713782 13.606971826645388
Fe 7.621492046339291 10.011338870050677 7.711540655165218
Fe 9.605512131773944 8.54562892976389 12.851328154554356
Fe 6.976283494939971 11.171911297276504 9.72503067856964
Fe 7.089356917951115 8.64791947342671 9.57265788492069
Fe 7.266614052877935 11.468734505262384 12.096409866230324
Fe 7.563054831607735 9.144588680172681 11.805777301137732
Fe 7.350932722746093 12.011337801791372 14.413077287539677
Fe 8.18057570601069 9.903364005552913 14.131587079670702
Fe 5.452094581981435 9.921249631019741 10.994291902950197
Fe 5.89975282911821 10.115979701262507 13.329740796689316
