48
Energy = -338.16276706 eV
Fe 6.821964698026308 10.3209582528663 7.41393015841494
Fe 6.120103902957596 10.130344306895887 9.793152093735065
Fe 8.231972696767855 11.949636095429058 8.588444539014517
Fe 6.373216247503915 8.120066584671433 8.38434501518961
Fe 9.475433565448174 10.573771202424666 6.997136581893097
Fe 8.225595353803971 8.447603917188278 6.9718996645148525
Fe 10.508099306707798 12.93481769813623 7.614589220375275
Fe 9.214861740623988 13.756580728898747 9.668818875656443
Fe 8.277631303189747 9.697924222139438 9.207374976800455
Fe 7.516005721990848 12.017645465495075 10.836697127749936
Fe 11.207188032943677 14.93501513010501 8.59114921005945
Fe 7.119079425358616 7.656668150467298 10.557396342254997
Fe 12.0249805636101 10.751119612521833 7.203728916701701
Fe 10.578372087723883 11.101346005621975 8.941922784380356
Fe 8.701020419620578 7.1771917884646435 8.833176893713627
Fe 10.71679688706137 15.132657806120616 11.018267582780592
Fe 10.424746367099745 8.796860303054618 8.282522649198295
Fe 12.901662112340949 12.909473287208623 8.364724210586889
Fe 9.659325971346103 13.072970028737133 11.973852323349766
Fe 7.602366323044145 9.655164240375647 11.736487223157846
Fe 11.378791977332328 12.957405783930836 10.174530287250292
Fe 8.370399174751212 11.44515690299541 13.250705824217095
Fe 9.542170499882845 11.031678620911439 10.896454611449967
Fe 9.437297974653214 8.367271468320414 10.73775035793231
Fe 12.963623743724447 14.839148175461911 10.144974555212507
Fe 9.446525423670483 6.117827586804472 10.885237288560749
Fe 12.003809083119267 13.851951695264566 12.53487680190671
Fe 9.39381187315547 10.40686294491581 15.262948034336187
Fe 10.023497813575998 9.68268823145017 12.830967449095164
Fe 11.429785300232073 9.375477302379872 10.596847291250532
Fe 8.636133669681362 7.492762540354839 12.768857462914422
Fe 11.65521901206146 11.446890878146936 11.951082704211972
Fe 12.949652854529086 10.98927896572704 9.794451981573605
Fe 10.678180345583723 12.02959865044018 14.01028377453228
Fe 14.305601664852794 10.803427741714112 7.582019942192717
Fe 11.336921112239821 7.167420737523129 9.817794671124963
Fe 7.716810605361445 9.209390661721523 14.059165958217779
Fe 12.857902161138492 8.90771361063907 8.47499487373484
Fe 13.701961580304454 12.892596092508901 11.207253009864564
Fe 11.12983501627636 7.576226593469048 12.386695674267798
Fe 15.070811694050109 12.164825291097165 9.428619975658227
Fe 11.693441287080311 9.948276773634143 14.573234609171312
Fe 13.210205348499743 11.806918648386585 13.53431673552948
Fe 12.68001796976202 9.463458785124546 12.562830931690588
Fe 10.059010368963708 8.116154715244448 14.595913182181365
Fe 13.52937084849937 8.319222762792782 10.650591127553396
Fe 14.44311712393 10.686633048884385 11.623044492615676
Fe 15.080557539040404 9.699676443948677 9.526329775149282
