41
Energy = -282.15509784 eV
Fe 13.951724741014107 8.084119676222864 9.487658850844898
Fe 14.455260832079047 11.892034384286973 10.692992149599064
Fe 13.355934351571063 6.8838701513047935 11.33618972791177
Fe 13.857539370697213 10.537987762050383 8.881549285088001
Fe 13.435257630425419 8.330461112510807 13.134498832714835
Fe 12.017086906095422 6.7464327544072615 9.204937143749117
Fe 11.876437119630209 9.149750062838164 8.921192104001774
Fe 13.800280741429331 10.857403797960632 12.91696915712009
Fe 11.074260108848707 8.019787429004163 10.90650429825165
Fe 11.735560480808845 11.410648801131742 7.848420104656638
Fe 11.398850062495674 5.619923521616374 11.208360016475133
Fe 11.34208304635768 7.049578620602895 13.116884319089944
Fe 13.373223915398148 14.245669756660037 10.137306489228665
Fe 12.139202283596969 11.87669389808845 10.196401164863653
Fe 9.940873790160015 10.064187963601753 8.918925679133968
Fe 13.345353160949372 13.418245637018167 12.338358221854323
Fe 13.695076693750114 12.807358192787422 8.338745914823686
Fe 13.08052936713475 9.622848637427285 11.119223198149468
Fe 12.354654979478779 15.510707033845865 12.17431353265902
Fe 10.610308571349687 10.30454117599318 11.177694611187587
Fe 11.321382561867676 13.59973777187364 8.559039131230213
Fe 9.30230849894619 6.510714991617726 11.643354785286503
Fe 8.910312801996593 8.3431436935403 10.077438056225697
Fe 11.4728428033014 9.505522859723001 13.291274768173123
Fe 9.24366643544406 11.996990878820268 7.4082283625990355
Fe 11.724631716996699 11.822445688946333 12.633366458562524
Fe 9.415207629532661 10.81278940330506 13.335298919054535
Fe 9.619261243524521 12.275909327241733 9.645785571386865
Fe 10.854365248619196 14.069885671404396 13.397782736842755
Fe 9.078098358546127 14.230120772601943 7.9408189966515765
Fe 9.4737137708779 12.682253531675562 12.026740024518373
Fe 11.174579396717874 13.99057631500179 10.974801267111626
Fe 9.220095904975889 8.62769031440326 12.568565234656369
Fe 7.633723577871755 10.769997178600555 8.853984421426276
Fe 10.779820246318549 11.966319528688215 14.71919508256848
Fe 7.242051444702552 13.034655088855562 8.683626620685192
Fe 8.281829432544782 10.455057230745409 11.085469067103165
Fe 8.403621034600853 12.604081517403149 14.059253475979036
Fe 8.8221285312659 14.364798936487022 10.29139508974595
Fe 7.3169061945443925 12.56459977697517 10.982301081897415
Fe 7.181741555655624 10.652245694854091 13.076942589016744
