49
Energy = -339.5689887 eV
Fe 12.863193852962342 12.011605598173599 8.396339434586977
Fe 10.242337776376504 11.626476585273178 8.923929670076454
Fe 14.404186752085225 11.02003599269662 9.940988136805888
Fe 16.476693224082847 11.940763619404411 9.544460289627706
Fe 12.813040020113286 14.528813058760216 9.21099522651003
Fe 14.23106336859466 8.673056257984321 9.799881577859244
Fe 12.108742283706405 16.695951432481607 10.262866597264926
Fe 14.867420192591279 13.276679634852242 8.429406725418037
Fe 9.074043326102764 13.277979704360662 10.35095340106629
Fe 12.139866065177772 10.159394784359481 9.848822903102839
Fe 11.711489373302392 12.66750170815055 10.274974757411758
Fe 10.834302475059486 14.881428796934918 10.873058800763918
Fe 10.069907309468732 10.894604342450899 11.095725115189087
Fe 14.066513288475312 13.16671935530459 10.719388596562798
Fe 8.212392313253606 11.837386644723107 12.247114835743034
Fe 13.779214178399016 15.475104862895364 11.227305169409119
Fe 16.47996489853703 12.288206766600613 11.780799690222617
Fe 11.864876036320938 15.849031592871977 12.732060308497573
Fe 13.575142650844382 9.549186019426312 11.671884699366007
Fe 16.06884181090032 14.301859518894421 10.242363275403804
Fe 15.446474856894316 14.203142136108216 12.646752484912843
Fe 12.32087373745782 11.372662722104835 12.064643034211645
Fe 8.700008858219055 15.71865395302815 10.863425886054792
Fe 15.836823482930381 9.897866540860273 11.704667021636057
Fe 14.496734585772234 11.778756659522815 12.842495742770659
Fe 14.565859097038842 7.8744511522797325 12.727618112260727
Fe 9.644143379004282 16.378119512901073 12.931965152477737
Fe 14.092406556230705 15.945762965049479 13.722996351019102
Fe 8.662665692075059 14.268202555518709 12.677693338413283
Fe 10.44568793806862 12.885455367839388 12.345710337900403
Fe 14.679688067274045 9.731193258471025 14.040058554118346
Fe 10.5942006032087 10.907340275078662 13.570672551583584
Fe 12.84031687830784 13.773416851951334 12.745094871249597
Fe 14.372704743494104 13.679909087600683 14.621098291038615
Fe 12.355537052313698 9.188264820674762 13.571016372603399
Fe 11.007205123350502 13.690909014012112 14.466013531874188
Fe 12.623436256650058 11.820683431996871 14.388173049011751
Fe 16.270962827078037 12.174433487738726 14.311935186755214
Fe 9.196544150074548 15.044848637917056 14.945914154644719
Fe 14.551468222530612 11.57739667462576 15.714144224901407
Fe 14.317054976696783 15.21616908288512 16.248309162308615
Fe 8.903079989748303 12.50886494604829 14.468144072884993
Fe 12.710662678858402 9.962241294327848 15.718957563277295
Fe 14.935446718205096 9.332655223296218 16.29412960545651
Fe 10.913652964950572 11.853586360445398 16.020103258858708
Fe 12.279289582814977 15.522875635909495 15.192503959911695
Fe 12.830936446439933 13.320462150091297 16.424500589284815
Fe 10.676081247175393 14.189098420474775 16.722654369820678
Fe 12.911966396521443 11.125935810381305 17.500434263609176
