41
Energy = -285.10249391 eV
Fe 14.94339729850586 10.894605253120266 11.230776220822758
Fe 13.673548210112957 12.238686456628741 12.755973715889203
Fe 12.819529026732663 10.771272546565712 14.427938191524527
Fe 14.534332638022534 10.896614900210071 8.585721889207083
Fe 13.831695470053132 9.422955055651961 12.76044175902021
Fe 13.409678019873592 12.212008507377384 10.119444844836723
Fe 11.15061551290822 12.102739080245186 13.482556353127801
Fe 11.716366076854719 13.438845708988492 11.505677931800031
Fe 10.279188749297868 10.533092727216973 15.072707956741429
Fe 13.477233761622646 9.392782566042374 10.149780594094114
Fe 12.17657286383877 10.832536906454592 11.70617625338324
Fe 11.29215747194051 9.262047563355281 13.411548181872803
Fe 12.750105789188503 12.023336459758799 7.415989265723973
Fe 11.525911478585119 13.235520246005077 9.109677198827574
Fe 8.6133732472259 11.974065639619733 14.187588949160013
Fe 12.271280919593185 7.933241663788665 11.631185481717829
Fe 13.03489469936579 9.366917641989398 7.544644795546107
Fe 9.44169224199495 13.315082419737134 12.243872713165377
Fe 9.721479193011557 14.327705961268354 10.123841711626277
Fe 11.807879189208908 10.685327297091488 9.076703545501726
Fe 9.566510568522595 10.634169826725113 12.422718189459523
Fe 6.992676282006593 13.253339512731099 12.866034685612119
Fe 10.196513220105814 11.92420890071653 10.460491737797875
Fe 9.689024572193073 7.852192464819445 12.205541740152029
Fe 8.591214604751631 9.209067678878563 14.009539092471014
Fe 11.802454485590083 7.90732919544278 9.063760762321786
Fe 11.223037960563286 10.509459090241322 6.379191563379512
Fe 10.60547435268637 9.317977198146059 10.636530337381547
Fe 7.438338194547002 14.311479219649984 10.825414932634978
Fe 11.397853165901502 7.85500774437791 6.668623255054408
Fe 9.725224677297271 14.051646375738196 7.743227222024128
Fe 10.68924061225003 6.422068885364654 10.44468260927994
Fe 9.975966825361965 11.768685786990192 7.941060798180187
Fe 7.789831209394289 9.228781202234691 11.520642279518066
Fe 6.921442012818961 10.74141462286964 13.170873177541722
Fe 7.790005642165549 11.852284385578201 11.238005003493257
Fe 10.028648897044947 9.22789974306359 7.955347368584086
Fe 8.141733570823936 12.87036524659614 9.05569094018468
Fe 10.032903286778863 6.603737911798149 8.033392341595238
Fe 9.00687208300905 7.860944902521879 9.698228587834942
Fe 8.611926656809112 10.390193710064688 9.547130345227984
