47
Energy = -330.61976335 eV
Fe 10.881125676292367 8.967311140246721 6.141007688960827
Fe 9.208035815991725 7.161276867788733 6.135264785836513
Fe 8.368557815201472 9.468258230559833 6.0010842335509444
Fe 10.040707240745393 5.040465615869294 7.274147068515946
Fe 5.961645282597561 9.954731953919529 6.658343854793324
Fe 11.678445298087594 6.3770511620462065 5.819598062825391
Fe 9.054689979541484 11.731898529682127 8.816039732952996
Fe 10.804893200789973 11.13382605281583 7.387596148383746
Fe 7.542214836110285 5.448151477935363 7.040394086089455
Fe 12.19004158770213 9.172725774931589 8.433470715240713
Fe 8.171641091805652 11.662586503491696 6.673279806352429
Fe 9.407062603445645 9.173022743119093 8.072372997846717
Fe 6.908347996498372 12.837008844333964 8.400628796768858
Fe 13.380461896525984 7.23414137618272 7.578669518146693
Fe 8.872071081777356 6.728731607762214 8.537446465709724
Fe 12.327514678171639 5.175588132165548 8.083411917693281
Fe 7.059121967811726 7.886303240746356 7.341910173967679
Fe 7.235166203109974 10.235295153608183 8.4914499403179
Fe 5.38254961079717 8.534450223574245 8.98078798644249
Fe 8.463660437162039 4.463605865403451 9.213026248868028
Fe 9.283671846091744 13.68153031213733 7.726292429769787
Fe 5.194648954013932 11.05267910066932 9.061185429062547
Fe 11.071019253177008 7.237940400768896 7.855368845934861
Fe 7.619997434835246 8.147252867421823 9.812594771130648
Fe 10.637121216318123 5.568252915811722 9.78641021847427
Fe 11.039640735508616 12.955251887684206 9.398060689022092
Fe 6.564751197577404 6.077901033050036 9.1904572923011
Fe 10.226821048282806 8.101449861818402 10.113246122726101
Fe 12.9687192714986 11.311157343212244 9.353625992967926
Fe 10.874414180869287 10.528717644488369 9.802511963244232
Fe 12.576885781186764 7.043576817590155 9.880427806662713
Fe 8.689148458215659 13.926132394770791 9.980353594309626
Fe 8.622686829328394 10.031231192397806 10.507298673643426
Fe 7.1431688075648365 12.045635381767324 10.576140413453931
Fe 6.120737805348442 7.338173639384247 11.309828904439758
Fe 8.511206198956963 6.150079060735904 10.981105854733483
Fe 6.187259424283475 9.84352906478384 10.90583688097276
Fe 9.598742959132458 12.033073078609856 11.145500170721977
Fe 12.500105552136509 9.201277819280596 10.958974672229848
Fe 8.480495194401799 8.272170121039656 12.16115686691645
Fe 11.073146547764896 7.2523972892020545 11.999319432452932
Fe 12.025588966568886 11.783492188255341 11.584784063526042
Fe 10.721875372392336 13.838997468203313 11.778502621102989
Fe 10.454077298925826 9.773641286035431 12.189085709608152
Fe 8.222157292505333 13.366847357790402 12.465850708684835
Fe 8.11918925017903 10.817495570660164 12.687934012265718
Fe 10.215095061603021 11.914012645081419 13.38854186921183
