45
Energy = -316.91207694 eV
Fe 11.911574026015066 12.810707068028824 13.434160144374989
Fe 12.821442324661811 10.738359972859826 12.738514267268183
Fe 11.738853267714967 10.710412266641221 14.865363234419029
Fe 13.959792542061484 10.81564597221508 10.631667715220699
Fe 10.153187980760011 12.428360381214622 15.126867684005683
Fe 13.257205086531107 8.36255116973327 12.345953404817388
Fe 13.521869337856835 13.134166242823216 11.429693427100155
Fe 11.62867434436582 14.545723969908888 11.940789032504231
Fe 14.049705656529836 8.622928845330923 9.950841124649903
Fe 9.581183608194568 13.739333914513656 13.261175460055826
Fe 11.661173457645887 11.915215785108067 10.826656540170033
Fe 10.191469350642793 11.231685105469529 12.746524514368602
Fe 11.056190580614127 9.028276114406516 13.359284001460058
Fe 12.517742476460874 6.820036341655549 10.622510484138534
Fe 9.349533362604104 9.989180287406086 14.733313395185064
Fe 14.393052061237519 10.284249872867214 8.130023244942384
Fe 13.202220777889199 12.586036398834828 8.923711638932032
Fe 10.78943323674137 6.985242181535535 12.267895773270263
Fe 8.074986874526575 11.917640428443859 14.225131691305611
Fe 11.719387399944189 9.26418881932575 10.92543795762355
Fe 11.722112768682328 14.262866326321774 9.583017140161745
Fe 9.774473915830841 13.464854262745662 10.871210304039208
Fe 12.72888182897645 11.712334204678287 6.789483674110629
Fe 8.76627079255749 7.827108074714627 13.414069098787072
Fe 7.862190832282811 12.558623713429924 12.021297408259423
Fe 12.26781074942537 10.358935475012853 8.791842211481516
Fe 8.638298632480263 6.512231823602543 11.221375924393477
Fe 12.30722088871176 8.00640931395001 8.463976480157266
Fe 11.398591914614036 13.674596803442945 7.255991070300146
Fe 9.400525848929822 8.973423433774178 11.398656822419808
Fe 10.343724914014338 7.259154340366224 9.761969111500942
Fe 10.459788493378609 12.149536964780411 8.749192266526917
Fe 9.400252326712215 14.388069598231809 8.682540785635103
Fe 7.904088960339683 10.094499569391676 12.642798880031584
Fe 12.582277948103851 9.353695793115628 6.553640183687213
Fe 10.101971112475391 9.569581678151165 9.12515034388537
Fe 9.1008049424812 11.171518992679992 10.57587624023715
Fe 10.529648437752241 10.651545250121929 6.865610777834612
Fe 7.054935730276726 8.062455991088456 11.672976776604557
Fe 10.269194933649258 8.271226230557861 7.296570983462146
Fe 7.88439791639685 12.632716307026682 9.248986616560135
Fe 8.140707717802941 8.154101805497202 9.355744038695892
Fe 9.11484910800034 12.6905269263634 6.941469742269804
Fe 7.123510525578668 10.066359533759934 10.2362237542506
Fe 8.326039468407512 10.674089511651486 8.037182222317353
