48
Energy = -335.31307885 eV
Fe 9.484404958315476 7.550918428316243 12.495819915362608
Fe 10.939947269697445 8.753898356241994 14.439630547524626
Fe 8.016874646776953 11.954925147935755 14.632967065155057
Fe 8.834325746480587 9.710678547373737 13.585012493683664
Fe 13.272402578139362 8.85979916922965 13.80650894553348
Fe 6.837165478903961 11.031595654702897 12.832589194947131
Fe 10.214865534289103 11.270147639239628 15.008454590262032
Fe 11.608143988715561 6.184664460508178 10.879711732213568
Fe 8.67215533635095 7.63886892896983 10.090188592862354
Fe 7.38786421893412 8.873738927726754 11.73760027903672
Fe 9.592041488149194 13.698127691485222 14.161090451900995
Fe 11.65039845374304 8.194294415047063 12.082254128488033
Fe 9.638815104034249 9.576276527224497 11.275234647856161
Fe 7.795891594945193 13.348816526645168 12.571064918786421
Fe 12.47182602720016 10.68884648515188 15.179542673275087
Fe 9.551941042478685 11.796128789717242 12.604852917027651
Fe 6.054403593595841 12.710161874939622 11.206174236675386
Fe 11.47002127976542 10.42802098332158 12.92240731342676
Fe 12.829770979836715 7.218848376942379 8.986193372654654
Fe 13.756094122069596 11.593117683832764 13.450587452266634
Fe 10.909465495024595 7.922420042327176 9.751804697129483
Fe 13.683967822227176 7.721781627986989 11.159986350532584
Fe 7.427648038833389 9.557675264909667 9.205038082268208
Fe 5.7753542218865865 10.281496814695004 10.815173130633173
Fe 8.035071840318304 11.299649186095495 10.69781243663687
Fe 13.788694197959577 9.948342389796327 11.84307547116117
Fe 11.939342275496312 9.94853243152686 10.35096401484147
Fe 6.315614186318349 11.87596060402001 8.989460094259899
Fe 9.723915640368002 9.851691646249032 8.866016679167533
Fe 14.007632992686464 9.400472830598865 9.42130077405683
Fe 11.691340024992533 12.788202626182567 13.81507081790073
Fe 11.89492176269235 9.26059096868781 7.916305449745859
Fe 10.347840287433089 11.907536558575128 10.151155592262096
Fe 10.29928190464396 13.779156525852496 11.64625546357578
Fe 8.589634349008207 11.932531830864066 8.387370938153671
Fe 8.122744340733664 13.629294622424982 10.161920633054063
Fe 12.304429149283427 12.169421855019081 11.53597605335766
Fe 14.042452202396408 8.928215505507518 7.182719385662426
Fe 12.489195966139965 11.67964908317105 8.763850803750099
Fe 14.30263485640704 11.841793179691228 10.28255462818065
Fe 10.666757966614362 11.531954315684025 7.2942262003399
Fe 10.262847476482325 13.688936374728057 8.694948015167624
Fe 12.308391788107715 13.90227167934548 9.922680578688652
Fe 14.907123230264322 11.097363233498369 7.99351641786662
Fe 12.833799454189888 10.86091478693126 6.402997534666286
Fe 12.200370600595058 13.527781700237913 7.240941040135121
Fe 14.257265600802704 13.549501344297168 8.585134485113544
Fe 14.243107180084609 12.705452846766203 6.467539000153106
