44
Energy = -308.02930614 eV
Fe 8.01260572882492 9.269351474792892 7.58565138737159
Fe 6.420308265466164 10.22670865616027 9.288082837693125
Fe 8.226740483213847 14.664489898430936 10.269036511123286
Fe 7.051394540721979 12.711905726715045 9.73498673059523
Fe 10.617511947546753 14.641272942572867 10.704997819490945
Fe 8.56437272904124 11.115055858089073 8.88764868267672
Fe 10.211363213565601 9.326868783672065 8.359853648847176
Fe 9.540266337849161 13.459726075384916 8.443737662979354
Fe 9.68323715866066 11.188361728936197 6.757203295134276
Fe 11.904321260221643 13.798752594130022 8.821717245658629
Fe 12.329547450762941 9.667971574841173 9.60556793217022
Fe 13.352674444434143 10.85692107698924 11.397680813267785
Fe 7.25561997658265 12.963565340530582 12.17520848187809
Fe 8.681730049597418 12.982605147334143 14.483618801553504
Fe 9.417781483199152 7.21506321460534 8.342613557258979
Fe 7.672648652174069 10.770795825848072 11.245942367853978
Fe 8.202732671151809 8.793856978430219 9.957086914691983
Fe 8.98208114882827 14.460541472763358 12.598009909878387
Fe 9.28793543462441 11.575900637436535 12.846355260382646
Fe 9.400687809869188 9.02357048412658 12.515773236524614
Fe 9.380618204984426 12.646123592983724 10.709618892008095
Fe 10.399429784315087 7.919215350085973 10.327211618619376
Fe 10.213580838270932 10.356218104308743 10.80949228179066
Fe 9.546884525340431 7.635895318063587 14.529011447511001
Fe 10.973911699713529 13.332075119371488 12.92805184690414
Fe 11.991507666463212 10.066594971442903 7.008322387685742
Fe 11.902087853764701 7.71541718625903 8.160131593934945
Fe 10.808854790759625 12.129760220158653 14.962820496110321
Fe 11.518411700341538 12.617100822457008 6.7691773627225444
Fe 10.942423109422586 11.577153996758568 8.869889349115837
Fe 9.605129814398753 10.135663185809811 14.679066308268004
Fe 10.964451288709363 7.05468426589827 12.612751746577285
Fe 13.249064903956514 11.617146744626487 8.289176191344065
Fe 11.572394237469085 8.806965267029625 14.187335031233507
Fe 11.820241021478008 12.42569945657569 10.915251814032194
Fe 11.9453689544694 8.93025429623387 11.825514751561974
Fe 11.607853759758791 10.90293906881321 13.121733464408551
Fe 13.992644530291955 8.920561109468187 8.223729729644594
Fe 13.837869502442256 12.899372992655083 10.264067949414223
Fe 12.697656543954745 7.129641562801135 10.350500355908165
Fe 14.845562110173738 10.586003032622957 9.650357206248103
Fe 13.368869853488762 7.329336857086188 12.836996785861034
Fe 13.80032910663696 9.582643085356576 13.35029687893408
Fe 14.358017700174754 8.645656305814441 10.968885195033105
