40
Energy = -277.01540992 eV
Fe 10.621388207512203 9.708415315797332 5.517251626487509
Fe 8.923730649487425 7.67094183258954 5.931778128042257
Fe 7.503625143905408 10.201263993163039 6.328702601335422
Fe 13.22740625777543 9.406807231245486 6.372384516424576
Fe 11.434681571780601 7.873414809183328 6.821047971758938
Fe 9.27217454371526 11.76408465929846 7.184878834541051
Fe 6.72030635652199 12.193037930658777 7.71696531764602
Fe 9.384942672099587 9.294240782348858 7.389657424929938
Fe 11.624282617172746 10.49089174976035 7.567806459793215
Fe 7.172297684921206 8.06671257940061 7.836796534825533
Fe 5.201493620986567 7.37268375072946 9.432764731772746
Fe 13.726169509803274 11.063538272494382 8.652594772950424
Fe 9.45482088668703 6.779120153295685 8.14078087701773
Fe 7.622726870949704 10.36827479406392 8.637697992764023
Fe 13.319487019352305 8.644865562041778 8.628272274604967
Fe 7.444339177894076 6.608026027321435 10.018583389599108
Fe 11.851738233315137 6.446392681194035 8.900315878026552
Fe 10.99695205330153 8.535357426348027 9.08202000826344
Fe 11.482565870736396 12.50024984183367 9.112634695815549
Fe 9.874008398124982 10.838841798192195 9.289266327316678
Fe 8.25539829501163 12.572246654740258 9.47503843843138
Fe 6.557353077901001 8.988536427566109 10.157623043931808
Fe 5.987485020948442 11.403403162662903 10.093244306747655
Fe 5.875503938084052 7.374169860560686 11.783337437831014
Fe 4.47477211850868 9.499047917935084 10.710703762757605
Fe 10.080621663254004 6.8474964585303955 10.728291037383178
Fe 10.457982120407928 11.821108876926937 11.455032120479984
Fe 14.0317805113856 9.800623117511787 11.104758154009554
Fe 8.745875041491166 8.520407573877678 9.618249587667759
Fe 12.11453036923194 10.343739839456518 10.07184845082646
Fe 5.449423098614724 9.716757497114031 8.16060213831506
Fe 12.926518683056061 12.147117138408552 11.139243639598961
Fe 12.368726591434893 7.9580779993263295 11.035596207583593
Fe 10.233314047458503 9.380907304434995 11.256546184958184
Fe 8.165399325446925 10.630912593699575 11.001231006323394
Fe 8.197468114290734 8.193871081415645 12.006995356334784
Fe 6.267044255063608 9.787737464495711 12.309533428825645
Fe 9.274787574453287 10.229144128164165 13.103190458393355
Fe 12.100041610973008 10.183778697721802 12.567543693667195
Fe 10.84663664932675 8.04355446687608 12.92899063440355
