42
Energy = -295.53998359 eV
Fe 10.45628558231375 11.044944802332905 5.474473665884237
Fe 9.276934202828386 6.324481429956458 5.768369214231653
Fe 5.710428990469458 9.567797408124642 6.208454886799527
Fe 9.995147838444707 8.744548623444746 6.201434596561764
Fe 8.105500489611076 10.559775542028827 6.42748877963472
Fe 7.573210447802697 7.990190868214543 6.553963421684833
Fe 12.29789117562223 9.676331418919906 6.644541795723192
Fe 11.601938401873221 6.900867413656761 6.86433883106645
Fe 9.109128849902607 12.659807529589616 7.084442337009372
Fe 7.484926842439843 5.6055927758647215 7.463004476878752
Fe 12.146697557142046 12.06859908885019 7.304630108135666
Fe 6.224486400640968 11.868041095739413 7.639548828268276
Fe 5.345655085855683 7.527155262029733 7.660908389869044
Fe 9.958524121035783 4.7949810923722005 7.782863177321934
Fe 10.317279347656026 10.829963707920019 7.75435078361837
Fe 9.474703105440161 6.983199950293636 7.985751028567169
Fe 6.590146584621016 9.673702933273269 8.307319715979686
Fe 4.360436242219388 9.766389549748208 8.409542270504046
Fe 8.831205106251725 9.192240062425642 8.388949781257967
Fe 13.257448180579813 8.082334206305333 8.328332471453605
Fe 11.093108660894554 8.654402586249512 8.538122569434476
Fe 7.358492332192966 7.4768796097651915 9.026714271292471
Fe 10.168991268231602 10.21236194119129 10.255280578462282
Fe 11.384984460560231 6.268947618425989 9.369316128768164
Fe 8.184607492144066 11.506325181220301 8.939523324243849
Fe 5.369671460116538 8.352939150571752 10.145551519345036
Fe 8.781630134228495 5.547444576343271 9.873874965210412
Fe 7.724112544156909 9.511770210681005 10.574892020777007
Fe 10.503186521837414 12.426530190590263 9.508389322738164
Fe 12.152817353801334 8.359620055345793 10.622644015087207
Fe 5.933316720245664 5.756115341744395 9.351551600846642
Fe 12.41013251392828 10.59004062591027 9.175237617536904
Fe 5.9785358593963265 10.965250559702143 10.210998799911271
Fe 8.393113943030558 11.948292236135412 11.209831203282388
Fe 9.504502935098762 7.790755279846466 10.396276409662237
Fe 10.877319881962153 9.120302347930897 12.409485603689204
Fe 10.694322149631125 11.57777964711043 11.993071212348694
Fe 6.345020279216554 9.055433996562666 12.325087580714337
Fe 10.87336214187756 6.589293429196845 11.714207485006936
Fe 8.752487735718494 10.164590759468075 12.62075373390315
Fe 7.102118648880361 6.994773931416934 11.291012378921046
Fe 8.795076231594777 7.768091784994498 12.69435491986355
