46
Energy = -322.62465061 eV
Fe 13.468399556762826 13.209652817509932 7.19226880725096
Fe 13.884613121846828 10.878339310864225 7.637347035191388
Fe 11.73553490101022 11.527504877957574 6.530292217180722
Fe 14.339701479622809 12.840475584199398 9.260013507378208
Fe 12.462101669926563 14.40916256375639 9.285070208285296
Fe 11.241953682938528 13.91399979541295 7.23023744633815
Fe 13.69516512095903 10.487681483836289 9.86299951968661
Fe 11.699272565453548 9.977448783953792 8.226524345351683
Fe 11.787022728666502 7.803011531650667 7.17569984662169
Fe 13.349425591682376 8.250433663547717 8.837758860814887
Fe 11.9678857542546 12.201382413587076 8.976201230627892
Fe 9.877869430489078 9.206010174316871 7.136181581884777
Fe 11.486576608444022 10.479019617986514 10.569591897990676
Fe 9.843066848970645 14.101584303136727 9.096290711945873
Fe 10.95540312216548 14.14660153391599 11.40305471285427
Fe 9.900337084043288 6.600903812706876 7.808312431479574
Fe 9.81212173084397 11.945187311109551 7.804528619434265
Fe 12.725712711063721 12.444095280814453 11.118565952077915
Fe 11.73814063357973 6.306898584033821 9.391875785701677
Fe 9.302534159726479 10.22548922019933 9.37035864712957
Fe 13.029588171726306 10.316175867989262 12.298032922059498
Fe 10.629932700310812 8.22946365243505 9.558230745883952
Fe 10.017832741073859 12.30729754474385 10.450568439287071
Fe 12.54997770487716 8.330927373864455 10.98559819508159
Fe 7.802728448648428 12.210276123065386 9.220747655026749
Fe 8.20817545205002 8.181170104747459 8.482903189923615
Fe 7.880923356180091 10.5005579149986 7.467945523373717
Fe 11.033628049954118 11.652720292235703 12.63901613645552
Fe 8.958887550447724 6.2428025673256355 9.991024540538564
Fe 8.512401453146781 10.902891482002394 11.60523039139798
Fe 10.412244032566921 9.236733243945375 12.229707785033941
Fe 12.184234024670669 7.748461777199522 13.226778058718404
Fe 8.55246921251197 8.504311080193162 10.958866008963449
Fe 9.336209924831476 13.084623965254671 13.058350957652596
Fe 11.531056265799844 9.76257264756809 14.257697294278984
Fe 8.052257039758278 13.476329576236088 11.18480747366768
Fe 6.8970920554441895 9.968944733255611 9.651973615675303
Fe 10.586618347365162 6.869184373982249 11.612743969073112
Fe 6.70400576393529 7.440921425967214 10.235889863373275
Fe 6.244590330468805 11.844249602402176 11.145509511952758
Fe 9.37813964232708 10.79877674596525 14.10494954038899
Fe 9.924857444386916 7.81905427766644 14.034705918462851
Fe 8.158787058777031 6.824228567032011 12.40969927574827
Fe 7.232054268729905 11.704173476669 13.303638980865925
Fe 6.353632547376336 9.460745104626026 11.825367899844823
Fe 8.006243466338846 9.088424150141078 13.415859455742106
