42
Energy = -293.07529145 eV
Fe 11.453891930039854 12.743946719275899 6.2865114106139925
Fe 12.901951727222201 14.030518069877749 13.259208196204938
Fe 12.283178093206548 14.252351930758541 10.932117289025834
Fe 8.459683499102567 13.285510705004626 11.475635943900665
Fe 9.758972676351702 13.370731364468492 8.004126248173288
Fe 10.437748117000057 12.75192590517122 10.164793276287659
Fe 11.977128526274916 13.707959841864616 8.426251705057984
Fe 8.32240372087398 11.952145403220854 9.24886591030037
Fe 6.717445785848948 11.636136701552667 10.97983900274859
Fe 10.53138291839122 14.208603926496206 12.50923270462789
Fe 10.94444753314858 10.526517751715549 5.574404897510657
Fe 11.45012696335045 12.963717197174223 14.647850698947657
Fe 9.667513856400458 12.150697991900532 13.379573280843061
Fe 11.406461129887521 11.228876641797537 8.195876400305817
Fe 12.950993500659125 12.195524871786878 10.00650129862029
Fe 13.619998027374605 12.246379973135403 7.644243032148135
Fe 14.171319139461739 12.671451823695357 11.96026650627761
Fe 9.303119873549823 11.235406539087608 7.074465524393373
Fe 7.358347758504863 11.794370623165657 13.205543016600512
Fe 9.177279958324181 10.96583410698793 11.417079148699804
Fe 11.693296569029123 12.064333282231404 12.129426642436702
Fe 13.516478889617316 10.39181874667399 11.655664495664675
Fe 13.122450625225401 11.333925293073369 13.908360542158459
Fe 10.780629882163467 10.69166414026476 15.091832831912354
Fe 13.802191524654477 10.235021678897779 9.129882238784072
Fe 12.951481374161572 10.165606392358132 6.697088033900628
Fe 11.18498446588336 9.732271892143887 12.824064517134921
Fe 8.884923474181084 9.882228364627068 13.753249913992857
Fe 11.42453450548862 10.190882717873682 10.411815333956092
Fe 7.351844142680654 9.621234910491127 9.988149040693829
Fe 7.123433436056052 9.490110616472828 12.310421473554468
Fe 10.496336404173586 8.934525889257252 7.142532250484277
Fe 9.225966983315905 8.632560625988395 11.236910476493884
Fe 12.724731639537547 9.482252701467578 15.281356312553799
Fe 9.516022619730839 9.900045646024246 9.072756294774956
Fe 12.38104832871531 8.562798570482583 8.455808764675407
Fe 13.238611169899418 8.535203700313776 13.23535288856726
Fe 12.937453429143906 8.226748028249027 10.8040621326771
Fe 10.899059977198785 8.169347690883205 14.557407598890816
Fe 11.181837025856144 7.390777464928911 12.068371883348444
Fe 9.012239520936319 7.595192996766449 13.249760993490007
Fe 10.600851207922496 7.706104012685483 9.630596134882422
