43
Energy = -298.77275674 eV
Fe 9.797448387152214 8.28555510758751 5.001934913196068
Fe 9.62689715932007 6.070962509466925 6.083320279118855
Fe 11.77389129487392 7.07730717902909 6.123800030952345
Fe 11.530685523706497 9.477206255572845 6.144991482686562
Fe 7.709360982653886 8.026838764939507 6.321419761683003
Fe 8.920078056957221 10.22468289059423 6.462169900221488
Fe 8.262839152878815 12.69039691271778 6.734678123580811
Fe 9.831982545737825 8.06990286597495 7.297059188805971
Fe 10.604474283881567 12.144604851055048 6.990477693143345
Fe 10.836185014119758 6.007557226374383 8.295160302601156
Fe 8.30877291916158 6.448881348090445 8.128207434714845
Fe 13.021131475663424 10.320788976960454 8.451438369163851
Fe 6.633103710397441 10.763774576998328 7.892006264151303
Fe 12.08498690974259 8.01108938703571 8.35670978227677
Fe 6.1259739441530545 7.851272422232384 8.098030598476608
Fe 10.626908749872959 10.01963835794879 8.221488588877811
Fe 8.032900401502761 9.120165108714582 8.659711201954918
Fe 8.85507819030012 11.547777639757992 8.527422683324504
Fe 9.867742966838273 13.801788445941341 8.650641784878555
Fe 7.478070635300303 13.33453445286567 8.924545561709266
Fe 9.81003535266936 7.917820183883493 9.767621798021402
Fe 13.737037862180443 8.6708957017552 10.133173503090685
Fe 13.193095137447587 11.29325289850146 10.803007160589683
Fe 11.459255623441058 13.565706149951017 11.017341552517387
Fe 11.665391892647758 7.113967442753769 10.844037251158689
Fe 7.293813662920917 6.968981632654364 10.112845628956718
Fe 7.229035652068113 11.262624351695539 10.25630741357759
Fe 11.31613079262471 11.951214256128573 9.414346921633244
Fe 9.551000105617682 10.433235906779384 10.390797177230253
Fe 9.492135660677816 5.5684747351629 10.183165311541375
Fe 7.973047162550318 8.984291255743683 11.202649099698883
Fe 9.245123754531775 12.812596780208429 10.76763882864129
Fe 11.66079345506643 9.537648333904908 10.30737973247336
Fe 5.920700847624965 9.221041739328498 10.018592962271955
Fe 12.760522273494685 9.275081431040181 12.283256186783845
Fe 8.993234771287838 6.95256109485921 12.010459370924996
Fe 11.121907739019857 11.411975312334592 11.994743945282886
Fe 8.572107918586333 11.007112872853826 12.561236105398756
Fe 6.241169103501094 10.269349100650356 12.332389248865404
Fe 6.333680108300822 7.812942680307667 12.313127734614048
Fe 8.256890695617576 8.799653941786605 13.599073502687581
Fe 10.310287578689634 8.966420067974799 12.199089557940933
Fe 6.059002299418233 9.032338604082867 14.246417814778328
