44
Energy = -307.78686842 eV
Fe 15.141843225281454 10.565293299255977 10.166142689025758
Fe 14.680330831260207 9.121204598595126 8.13977816651203
Fe 14.021398479883628 11.395186600207188 8.229386991285168
Fe 14.608688338090612 8.154204881017554 10.25849818367272
Fe 13.371364168838147 12.1143250410554 10.90608140544056
Fe 13.757379238887511 9.699971540724098 11.946243171472009
Fe 12.396008941393287 13.082336428856182 9.059045050521195
Fe 12.590616349216713 9.3663132959354 7.081729279112329
Fe 12.76128187298948 10.002967185471263 9.711040378940625
Fe 11.549532974761055 11.440128767430084 7.572132593824853
Fe 12.623112732455919 7.76600064132221 8.873391496537492
Fe 11.800098658495784 11.004481691285918 12.232877485479184
Fe 12.624549012028748 7.516651832288834 11.376623855606462
Fe 10.757343343849058 11.276433018323155 9.892842987461298
Fe 10.019385455933467 13.42147434034297 8.57868108446693
Fe 12.116865396931848 8.797259233859249 13.465598115070344
Fe 10.775926475035657 13.31705318690573 11.005706023217972
Fe 10.676666922506456 7.504701423546142 7.147012008762897
Fe 10.623032549504577 9.242277728182415 8.570936836543627
Fe 10.225897957698589 9.768015330065172 6.271276990766248
Fe 10.842469078009993 9.014107850377496 11.130989745759663
Fe 10.61951626828283 6.865501700980729 9.878695967093263
Fe 9.142830420035533 11.30498642268362 7.906888268486479
Fe 10.378681779394716 7.210350923796957 12.485756021723208
Fe 11.105307313438061 13.002031837051156 13.323034776843155
Fe 11.305288889453509 11.015030903205831 14.57869398720267
Fe 8.55293641883839 12.200142111814442 10.2638498716716
Fe 8.572677797014949 14.539335635198702 10.123796315990756
Fe 8.195504355106452 9.222449669649574 7.501149476986134
Fe 8.70854783868492 7.2305756837837745 8.495194646688399
Fe 8.773927897799169 9.742186475762455 9.912792141589565
Fe 8.506766228832838 7.009857720581474 10.870147549119633
Fe 7.598521867729158 13.187268227988612 8.246201936724313
Fe 9.417824849086266 11.158769267665365 12.173353158855015
Fe 8.86288984833856 13.717922259502746 12.391657395435413
Fe 9.918023699335032 9.45754360834525 13.704997710156364
Fe 8.340831858350837 8.846015171215008 12.105979316708734
Fe 6.8736667551122075 11.002052304971022 8.90611789495064
Fe 9.090539842080295 12.086259140268368 14.371816568233774
Fe 6.514591744008898 13.032348874397812 10.49043019069838
Fe 6.911228716902377 8.472311359566604 9.663116860008751
Fe 6.943252648508136 10.426090964358242 11.342622264624845
Fe 7.5948080481719 10.30858278393187 13.80266385546926
Fe 7.087399500789299 12.32176471121582 12.788602843649086
