43
Energy = -299.90924959 eV
Fe 6.672381706771904 11.140512561475754 8.5396344688993
Fe 7.888659035535604 12.463892126814411 10.227930753546215
Fe 7.857777619833568 13.098960388226521 7.903900508898157
Fe 8.07851433549062 10.63128851169302 12.075058419211777
Fe 9.827563858456621 13.996105197946399 11.217812529514868
Fe 7.920989030731913 11.072197123313673 6.4125882678056065
Fe 7.953170986440774 9.801733218778724 9.903156158219705
Fe 9.172234398924124 12.491470954879636 12.946762593234524
Fe 6.436918544994182 8.835361147143987 11.192028960130756
Fe 7.8474499459037075 9.053420903142632 7.646168744121541
Fe 6.9917448320447875 8.93694237861979 13.493027536400572
Fe 10.035159727247974 11.81204046321523 10.672987964284658
Fe 8.899121352155555 9.9218124498413 14.29513181858223
Fe 10.03120276083701 13.27364033215816 8.808935472352998
Fe 9.242201752627398 10.992654524203797 8.491285842321707
Fe 11.615029723458509 12.658380753718731 12.511707834516146
Fe 7.015769516164218 6.81874086163912 12.211828215178397
Fe 9.872455144368136 12.436455622334472 6.591869978100279
Fe 10.533978196486268 10.477225932014626 12.65257291919811
Fe 9.994390732394226 9.864379122027158 6.409721395188688
Fe 11.95141073120056 13.228422254407054 10.142660451199587
Fe 8.24329566032427 7.449294377656228 9.97694543557199
Fe 10.227533158348821 9.54690656543714 10.334600715226884
Fe 12.251069287858249 10.85355453820948 10.777701597746589
Fe 9.142943296068921 8.392774945874832 12.073182725160956
Fe 12.14723495582761 13.084037763863678 7.638814536391458
Fe 11.788248464973528 11.297840164873948 5.9721302554565
Fe 13.883081269966821 12.324280524451119 11.740729194530013
Fe 8.9391748538981 5.764765157250149 11.652894044743473
Fe 11.588540817413694 11.022205400170076 8.465319177993274
Fe 10.092187777411299 8.508686136195312 8.324005834741776
Fe 12.880176398572132 10.501964717224604 13.139761119163852
Fe 10.608780271640942 7.062421319449974 10.387827598827858
Fe 8.662127261860874 7.216610956503217 13.965138369306695
Fe 11.903981784559486 8.540899456808756 11.91453954597767
Fe 10.81040497670747 8.561453843754471 14.093693345588951
Fe 13.861519681817072 12.035543203464186 9.37674417350186
Fe 13.871150749533806 11.355416443546476 7.011061523247378
Fe 10.770030749971525 6.560994131877156 12.81202816827823
Fe 14.187870010891046 9.800233105323894 11.201386656108847
Fe 12.303972051316354 8.572240915248495 9.514539895642551
Fe 12.350785887962385 9.18082041753102 7.122355015663757
Fe 14.008291662594045 9.840424218149124 8.760328928064347
