45
Energy = -312.9805042 eV
Fe 11.607762989225218 13.387174701008714 10.389409622700159
Fe 13.749396752860063 12.355087359835089 10.351464928130108
Fe 13.416282092304293 13.12951015468016 12.639277490824458
Fe 11.226411818132222 11.85806238719539 6.473566140326883
Fe 12.151148275057833 11.874011274619939 8.631346340210726
Fe 14.00344705511068 10.549683536549717 11.742157247849391
Fe 11.260222424854323 14.325479872508934 12.487680865207047
Fe 12.761205911939296 9.995839713214975 7.0824350719741025
Fe 9.713349137493793 12.835713209437666 8.416948087906745
Fe 13.892585526242526 10.12399543167482 9.238681276786957
Fe 9.389626351684955 14.187655752724027 11.027519342891045
Fe 11.751786843644085 11.675706887800683 12.13998618329328
Fe 11.37239540138635 12.885355970469302 14.291998271848636
Fe 10.552795110688104 9.233356034758826 6.285417863845229
Fe 13.13052052754309 11.24896568322533 14.06828964622074
Fe 9.970750170251582 11.577646453676516 10.352613525406527
Fe 14.098646840126593 8.042485560847362 8.25429657221105
Fe 11.79933114411861 10.009078666190565 10.35027148562562
Fe 8.953635616461554 11.209896861637388 6.642992988854498
Fe 10.469466793997944 10.385051447691685 8.25260517948663
Fe 9.232627108972853 14.200919062168762 13.861640073040798
Fe 12.37480123685292 7.668548881215226 6.535784241253028
Fe 7.790036688641027 12.611275922231334 10.36258935537007
Fe 12.435095203211443 9.221428457449445 12.78294433853658
Fe 7.417150703298319 14.031542553476177 12.386921871853461
Fe 9.29444647042075 12.21610268576923 12.626266354987072
Fe 11.732512964291244 8.378095061216753 8.629619972429271
Fe 12.473798104898707 6.17593910319958 8.673471289751076
Fe 8.158223149501257 10.745741512034467 8.849870792790467
Fe 10.760125166474575 10.49139854752478 14.252287964926134
Fe 10.072465406800738 9.838268003784918 12.131427723547331
Fe 13.228405735742705 8.094858111471519 10.55826982546026
Fe 10.12683771083993 7.040288759473441 7.563525486895304
Fe 9.777855555253426 8.847797134295387 9.865184265283412
Fe 9.460582464361762 12.114261665858727 15.34515601301591
Fe 6.6265117212772005 11.803008855294928 12.299834199010704
Fe 7.426379657077418 12.519790927066106 14.380589700869907
Fe 8.548369465675457 8.73771190525879 7.623939142574283
Fe 7.975704410328538 10.225250541614175 11.251020675979998
Fe 11.03116654904448 7.820333377948527 11.720637355345291
Fe 10.697477726288682 6.55098718235474 9.946223688507343
Fe 8.276738568970615 10.371910112257025 13.738920713076922
Fe 7.1099946090902435 8.67650521540656 9.65748080985156
Fe 8.504306862868633 7.843937837117143 11.592184260392463
Fe 8.407875421113843 6.826173047955721 9.388442650573543
