45
Energy = -313.75574391 eV
Fe 6.491666722012677 4.955274116239251 9.749243404650228
Fe 12.603086705661278 5.62635588837473 9.746928711592618
Fe 8.463199739351468 5.718428526450094 10.409021479243235
Fe 7.506361915465001 11.920155369132225 8.24791171767461
Fe 4.146405530683393 10.165005051894278 6.594036855104269
Fe 10.305006028955653 4.901700475480775 8.680098349500225
Fe 10.713165448428214 5.260776188896867 11.247872543553058
Fe 7.824381173253223 9.087918905621589 11.477130003024964
Fe 10.6400769431648 9.155874761061142 10.93717210138451
Fe 7.003746866852833 11.50768712986796 10.696129062498331
Fe 9.078265797981961 12.82280221251165 9.965075235971609
Fe 9.767445204106876 7.596548084404378 7.180990160796637
Fe 5.228235203388963 8.745633339236218 10.677418312019174
Fe 12.733322641012807 8.067678326096527 9.424471125075273
Fe 8.680592308230949 8.13897408562587 9.43710989428478
Fe 10.059754741685973 11.821162338881196 7.8941839072331295
Fe 5.028121263480325 11.126251109200641 8.579607508105157
Fe 8.166772900710285 5.829620838608856 8.05327590002307
Fe 10.253249849366492 7.745609137359144 4.922644172761182
Fe 11.175306717996577 11.363512123743776 9.997800724743268
Fe 9.009834507673556 10.490945552084897 9.748741708060647
Fe 9.98513825100706 5.4405127588033215 6.235227456494222
Fe 9.52374781172499 10.081898112268046 3.984597976067609
Fe 6.922311784787994 6.886002651779398 11.834373428171297
Fe 10.41431079237391 10.024619710535308 6.05940597041101
Fe 8.349362109276065 11.4159536745843 5.817664110204275
Fe 7.847079638450519 6.408467431120893 5.711696916997487
Fe 5.697410145471009 6.039603476663345 7.459364796619384
Fe 6.760556789324551 9.667910097903764 9.199564070136049
Fe 6.526785765304509 7.2008582623425195 9.637760783927781
Fe 9.186204246998406 11.147545724998327 11.893628311536764
Fe 8.66846163649002 9.814194199250913 7.58180572436453
Fe 4.861853868843279 8.489301908243588 8.111649517994003
Fe 9.482105959529267 7.321965784135781 11.87720902488433
Fe 10.559982287164237 6.971106045240813 9.606888569520347
Fe 8.154357773434523 8.825356210175025 5.370662481053176
Fe 12.144529301917316 8.553977743633732 6.505168841943471
Fe 4.378328433176259 6.58351493696395 9.42482230753292
Fe 5.7835698388816805 12.268351904784613 6.636100928129953
Fe 6.425078859666046 10.094335604468922 6.702768113449224
Fe 12.062911074572 7.202727551431139 11.562998141688963
Fe 10.948177849361711 9.343282507394443 8.496347161386879
Fe 7.235417010878163 7.935531737395805 7.452520580607598
Fe 5.601048930395892 7.946705914496631 5.805487261443785
Fe 11.848533257536813 6.533624116642503 7.610686274164467
