46
Energy = -324.69239098 eV
Fe 10.44141254915381 10.690348509271494 5.279816112209214
Fe 8.814509760921691 8.404583231101833 5.778779837021716
Fe 8.031065617797111 10.93091122027707 6.078303843579528
Fe 11.346678854837672 7.885592939802937 6.826896632621891
Fe 7.2440290276115755 6.8528240400158795 7.165854337638191
Fe 9.420926199752072 6.177847948143186 6.220830341522716
Fe 9.902881476458203 12.424054678055906 6.9040711681018205
Fe 12.125239125160903 10.852467047059998 7.26963251814866
Fe 9.86995489201891 9.813094082710139 7.247867830147708
Fe 7.251280912677071 13.394279214593004 7.951103485001441
Fe 7.488862906417453 9.046559389860725 7.7710491105944834
Fe 13.611180827997833 8.94504819317751 8.65487061070071
Fe 8.298197695797196 5.244426558277805 8.414062151481613
Fe 12.046348132145946 6.839089297759616 9.310048744648803
Fe 9.592575128123531 7.440383572814011 8.224721546912937
Fe 5.893516548002244 10.877398944525163 8.133789538369651
Fe 8.162216187343436 11.367647905287004 8.385330518258941
Fe 5.7097808256056135 8.155849706748308 9.020678012873372
Fe 11.812568472286218 13.076043187039708 8.333255593633508
Fe 11.486459284273796 9.138762009303028 8.91822678805594
Fe 10.781697631035634 5.290603456762377 8.013255837640687
Fe 10.562467834392983 11.423682054118109 9.05433245843091
Fe 9.287279493706263 13.472010078958075 9.321699856910366
Fe 9.142060269145022 9.483174948117869 9.475936629899001
Fe 12.821426952072715 10.876492844222561 9.841387896474005
Fe 11.882338671256441 4.700693639876513 10.14689430187215
Fe 7.786443173609154 7.368806324805472 9.908292190667538
Fe 8.768042883750523 11.439768163367681 10.7899390121664
Fe 7.436134390838711 14.69452420388451 10.070123829411488
Fe 6.7057142610979845 12.493250927693284 10.143235222444565
Fe 10.963847333873787 12.564566596765157 11.122183978536341
Fe 9.705512236017645 5.595512200052304 10.246100424813752
Fe 6.77523792446036 9.927790125733983 10.13374860930327
Fe 10.848146254567993 10.129962039497528 11.086330190756017
Fe 10.275596485777292 7.802919839957939 10.631532522312826
Fe 12.676035507504483 8.584185753040192 11.123994882806622
Fe 8.626288353652692 9.219252972149807 11.735426261520967
Fe 12.343783038075001 10.577805180260436 12.587340001046556
Fe 11.534198889143132 6.3625556720772405 11.874546341411419
Fe 8.52086572643922 13.406209606360575 11.775193353202193
Fe 9.757085130509843 11.059123215841815 12.959803465670404
Fe 6.604185458314352 8.13998952789477 11.883039785690952
Fe 7.101876105380595 10.884034947738613 12.394345356648074
Fe 8.865360707508604 6.916109186118232 12.399918422664372
Fe 10.770263026889333 8.631084249268183 12.99618912331786
Fe 8.412706380899733 8.902959113913301 13.90029986715945
