47
Energy = -330.5060742 eV
Fe 13.537643003851315 8.899641616858192 8.91822096713785
Fe 12.768520981662109 11.631747449942965 8.714642161101592
Fe 11.192699862218623 9.808420859498145 9.210048873760005
Fe 11.471582029377995 9.444880747844016 12.041330247871551
Fe 9.506734922341485 10.40587672163556 10.841700336592973
Fe 10.231154299786745 12.1448741306772 8.83043177137812
Fe 8.495627528292486 10.424984981867553 8.733476119564104
Fe 11.791084067736685 7.808053065973707 10.369617217497488
Fe 9.470959408663655 8.259849223845935 9.38798198539963
Fe 7.3924455918358944 11.529758143720642 11.106904563452755
Fe 7.550572113262235 13.997559739976804 11.31862512926095
Fe 7.987123981576584 12.822248385399917 9.212223643562195
Fe 8.341400800019818 10.014103909967474 12.897323135108934
Fe 9.575496106608849 8.118390279890267 11.809283818112759
Fe 9.085682171067893 11.088031173204486 14.938055715965497
Fe 7.543133642819275 9.16106280905444 10.607779961709866
Fe 9.641315864465362 12.886015188459401 11.125487731854326
Fe 11.552301716466813 11.539245032109566 10.905486890792378
Fe 11.880960930606358 13.679692701457077 9.866216834712088
Fe 9.479500098955269 14.711602644640248 12.657928431494325
Fe 11.648235393291284 15.738241466327986 9.009321044460627
Fe 9.54188326088132 14.768685235567492 9.849482760280885
Fe 8.223653113143717 12.582506599115481 13.21668360909148
Fe 13.71205899918431 12.569417603538037 11.092412552289082
Fe 11.625943974159066 13.293623435539482 12.443665720958952
Fe 13.632359465801686 14.63896732240423 12.711653870303468
Fe 13.665948918931191 15.272516627843023 10.386473558619395
Fe 11.586451860190943 15.30239078795955 13.794420915283032
Fe 10.401452807171008 13.18248715789 14.412457467666636
Fe 11.42756852226284 15.521791687818817 11.384049183406672
Fe 10.398775045622772 11.390261112775253 12.947707426850423
Fe 12.768398821947857 11.272049899876556 12.905491276185538
Fe 11.607055282427016 11.038395788989307 15.092533057854082
Fe 14.515065598115944 13.43394595554442 9.151902738140146
Fe 13.411436485766675 10.09190219382447 10.803907811708491
Fe 12.839410511165608 9.106286680752241 14.000371129077987
Fe 14.933496015936646 12.519325735145397 13.396906089688507
Fe 14.031533730651894 10.961867555102017 15.04241551201923
Fe 15.580144143263768 13.927645591010888 11.43743967768846
Fe 14.975473799226679 10.994382402989798 9.094317313580747
Fe 12.901028309965284 13.130604879425583 14.51782906924065
Fe 14.85029937264764 9.904520386848288 12.94421308899328
Fe 15.769642576623113 11.403646579345258 11.259857764523554
Fe 13.697229672795794 7.939990863162355 11.837027942554387
Fe 15.490095765114889 9.058396852595866 10.593121473542144
Fe 10.39318485248203 9.121363217921465 14.107643462242688
Fe 11.6802169734772 7.262730074662998 12.87791155355601
