48
Energy = -339.26545147 eV
Fe 7.532735269524405 4.5012373748502075 9.064287266393684
Fe 6.918444422019952 5.289912098827852 6.609863964633568
Fe 9.295935488551567 6.137895973737621 9.931161612322645
Fe 4.935513025742898 6.635848494662284 11.685067005391375
Fe 12.466950606554958 10.991582849050076 6.962230331827345
Fe 8.838211199024443 6.534505816975429 5.168296128956253
Fe 11.458838166906046 6.803306550581084 8.779574048422962
Fe 13.23310025755698 11.04862292541664 9.388661194242342
Fe 7.196006936205755 10.579529050107773 10.306226114260134
Fe 5.666494811216931 8.55810715633721 10.681950589619957
Fe 5.113039803152284 7.158551805311302 6.8510132861210975
Fe 12.616776128652855 13.077566663463543 7.907181859292981
Fe 9.19232895048289 7.237373814501096 12.298143789369577
Fe 7.224346194854837 6.250352206545958 11.222873715263452
Fe 9.119801122605995 12.061576437679015 10.914923628233936
Fe 6.237198089393293 11.451334914644685 7.890831320418749
Fe 10.09416514068493 10.401756743302878 7.306847382115629
Fe 11.284837610831099 8.574249896662115 12.686068493332572
Fe 6.362280400714068 9.714905554291258 6.056149995699014
Fe 6.899251213767391 6.735179452024446 8.828564712092518
Fe 10.686968322060553 10.619875652013823 5.038600055032935
Fe 7.37741020050956 7.609199447293875 6.648959744675355
Fe 8.574175672099537 12.144628901481825 8.482521914252702
Fe 10.544913247381475 8.050544914905691 4.35409795986313
Fe 12.841702127987986 8.61678592837025 10.682839393383276
Fe 5.7222202770671435 8.928021702356094 8.371722319447976
Fe 8.913940194347484 9.090549337982477 5.592122802477207
Fe 6.662041933312714 12.742348688706876 9.867709020248093
Fe 11.610722507517016 8.670992137230002 6.369795338698245
Fe 10.524022344287465 8.229050226429205 10.503227847297138
Fe 4.419412895690372 6.93225626091189 9.315707582580249
Fe 9.181453712501535 9.785348662144742 11.979383957321632
Fe 8.198158079509383 11.445028801211262 6.091240931360703
Fe 11.768222818205983 9.333973894121334 8.714433346678128
Fe 7.178978165476949 8.542838609793876 12.475302229283189
Fe 8.065934074891816 8.326974895662321 10.174137564612826
Fe 9.060154885897452 5.685699010089628 7.562795799578425
Fe 5.533540903600352 4.792205598164265 10.318315913176384
Fe 9.55100808883257 10.135216067255776 9.592310658662976
Fe 11.019852042394968 11.923443820204609 9.054636961751644
Fe 5.112626619777785 5.029896473539569 8.065810526786317
Fe 9.589409100397576 8.003284113052606 8.035593489036104
Fe 4.902580469960981 10.794535139782681 9.733281900404467
Fe 11.360039864933212 6.331585875331904 11.284756395475721
Fe 10.496682176407433 12.603410130433272 6.687209635196929
Fe 11.458271437577766 10.566413760955754 11.094907942011943
Fe 7.8836611255267615 9.717376508703897 7.906357971184103
Fe 10.933223831885082 6.4627016213785815 6.319886319994124
