48
Energy = -335.92879853 eV
Fe 9.832624851343002 7.005334486593734 5.895696902437193
Fe 11.803396965801332 8.327279964449625 5.550369587138609
Fe 12.274586737032624 6.275927300752468 6.7131356854434845
Fe 9.971141915454014 9.673704651162259 6.332450748926005
Fe 7.897974929442529 8.255114022975262 6.550019853667563
Fe 5.542276601080042 8.671626273433755 6.590415715901217
Fe 10.164858109623701 5.365024604615302 7.6099119690647985
Fe 13.133717379307418 8.278845224135479 7.722297924430713
Fe 8.39159781275906 13.228034107591778 7.227759600802782
Fe 5.113602268054942 10.88288100496979 7.326917685333066
Fe 10.667686255113972 12.04744552338563 6.562030628687599
Fe 10.742590703869702 7.832481231676555 7.876809731720522
Fe 8.445557876434133 6.8524892633593515 8.293712941684525
Fe 7.578068955896436 10.690684601255715 6.7826616366677905
Fe 9.03325848336752 9.147206197232228 8.442303776592961
Fe 12.0375184561333 6.063074724828582 9.101015918336756
Fe 12.472880365396158 10.387840524161573 6.576492850788572
Fe 4.20148248908722 8.81016593748148 8.532720162666209
Fe 7.638617111455323 4.777297201077855 8.087923918729945
Fe 6.072970829539482 6.956545396424314 8.351888746755854
Fe 6.723149085657664 12.060814044153283 8.611427409487355
Fe 9.338683344063488 11.484746193229508 8.326389486732621
Fe 6.68513167324846 9.283161093785848 8.50152445867041
Fe 10.259705456289902 13.792167248992627 8.605701788514907
Fe 11.351846085808884 10.081432332543715 8.526453851739905
Fe 12.027393412553359 12.252350349411309 8.540721211019013
Fe 7.928168384766309 10.642882315452614 10.135486996799902
Fe 9.550894358119153 4.9509648185935875 9.914742485946498
Fe 8.367749323435916 13.180580040613988 9.97788391117275
Fe 5.145428659088558 10.572491944631867 9.846131046028297
Fe 6.368896287342062 12.2865677219926 11.085890264916978
Fe 10.024116043923172 7.176323126172572 10.046910378083505
Fe 10.020467599956241 9.633044614677203 10.54198556493187
Fe 5.4531058418214355 8.001792918507803 10.422660589935306
Fe 7.784219580403964 8.156912375239182 10.39187138781501
Fe 7.385048027314694 5.909554645271718 10.294600479608848
Fe 12.101170517460547 8.268731626101703 9.832681997439625
Fe 12.44236226400088 10.406117428942425 10.768002528956787
Fe 10.46706841432729 12.005197879868406 10.45688633844448
Fe 6.485222353150522 9.900599331148202 11.797868982293933
Fe 9.084931844539847 6.58143258847937 12.009551633438063
Fe 8.61012317719158 11.563075752418658 12.096839186763717
Fe 8.754628271136365 9.003377099381094 12.513617743049183
Fe 11.17953188814065 8.078908778743124 12.077462678768347
Fe 6.894923646006588 7.55602026710301 12.470765175051936
Fe 12.94180966112405 9.770071288822336 12.801465776661592
Fe 13.560242888470766 7.962244656921667 11.359055802659173
Fe 10.679855710043416 10.541718172815349 12.551167754871164
