48
Energy = -338.7228357 eV
Fe 11.4279135497505 12.68095400944121 12.745849331692161
Fe 9.429477207191866 13.939773178641918 13.121802943929685
Fe 9.173579973417048 14.96163478934951 10.848933234319466
Fe 8.033329023579318 11.805734696821146 13.46957526235786
Fe 10.473641940369244 14.143888233743299 8.335206414219837
Fe 11.113865596483478 13.60106135706274 10.45388054918018
Fe 11.270674811826536 15.88835403990513 9.991552890741348
Fe 11.367592402792397 15.236163105762044 12.3896833305118
Fe 11.34063018759504 14.286070841194007 14.656461181697935
Fe 13.36331819776523 12.655974122054328 11.19415546540007
Fe 13.43407738503255 15.028502210514487 11.058562265216336
Fe 13.4456346299939 14.005120857532557 13.341013945052897
Fe 15.403749502401434 13.594745843439762 11.685376535963284
Fe 14.789783039225892 12.796044389432048 9.359639327843846
Fe 12.894646805684317 14.332087898005911 8.860890178457547
Fe 12.64851836003453 12.171953814792932 14.738221307875268
Fe 11.404036016669503 9.94429113595924 14.75153596285893
Fe 10.131463285715856 12.106883864630127 14.753491985283965
Fe 13.913904320349443 10.141779230912574 14.73345629690338
Fe 14.687248149835622 11.874665222278205 13.250902159154432
Fe 9.218711213174993 12.31189298988998 11.356191126779462
Fe 7.335986008845699 13.630507704472452 11.822521976573045
Fe 7.134619570021477 11.301988690752017 10.943068141036358
Fe 10.062669449324245 11.721508968505907 8.774781878848337
Fe 8.162591701111806 9.569951703220694 12.369015277540019
Fe 7.868280433018345 10.685317204247873 8.750586960456163
Fe 9.458667825798669 10.069145688117459 10.448049237966504
Fe 9.28573846818728 7.681859085159143 10.877708023888447
Fe 7.252790497831519 8.90421428311241 10.226041703312282
Fe 8.33989400066618 13.256617464739726 9.411528094432002
Fe 9.367699101436816 8.582629084504205 8.714912690314575
Fe 11.54286800085783 9.71042421830564 9.049678903981867
Fe 11.428883667368675 8.906814872659057 11.408598261571273
Fe 8.942181911584653 9.885213741656067 14.738660190904863
Fe 11.388187568323534 11.311769170690791 10.824979851737305
Fe 12.484662114676311 12.043344271824177 8.777881689330895
Fe 13.471733434530044 8.297601067612938 8.799617690144935
Fe 13.452757888043768 10.219293179455999 10.487831230184732
Fe 11.351126396874273 7.355564515607566 9.612229646542213
Fe 15.466380128428387 8.83502852487806 10.116126592165495
Fe 14.422914537850406 10.505889975872094 8.47375839523946
Fe 10.113603636344534 8.32280670000937 13.281893338885467
Fe 12.64581475849815 10.646412082590054 12.67612960848612
Fe 13.4336266867661 7.802066617122721 11.056497923389122
Fe 12.573076964502336 8.382805107457685 13.50207887319617
Fe 14.635237369180114 9.431716604511571 12.488786055889385
Fe 15.529095713741608 11.164240102643287 10.908642557639446
Fe 10.285692461162531 10.670269645043017 12.76458940476669
