45
Energy = -317.19320151 eV
Fe 9.68289669844137 10.667066754267678 7.335588880559918
Fe 8.56496817517415 9.988125106123055 9.698669404488822
Fe 11.3881793702644 10.417658387566174 13.103690956841087
Fe 7.445740140984248 9.419936178681168 7.751326390488498
Fe 14.230416170526334 11.933314733064979 7.8940175020012795
Fe 13.518018943041783 12.819720913385847 10.324521381323631
Fe 8.856622418026907 13.993720508656569 9.007733546057427
Fe 9.323246862412642 10.950840005038033 11.959341073923882
Fe 10.764662967562357 7.063083130471404 9.49224480819631
Fe 13.138030742657143 9.758305770294736 7.571702315044009
Fe 9.979061918241742 11.863682895618428 9.669663817425173
Fe 7.921175786545267 12.021923224391536 7.9720315100965085
Fe 7.67552365598285 12.35370139516212 10.386615075282897
Fe 11.03106390736437 9.65547801384924 8.893732560213124
Fe 11.969405728916136 11.41123086494496 6.370013548904458
Fe 12.11319301611512 6.741456247396848 11.462881951865967
Fe 13.717507245633756 11.438713305373785 12.311713185692772
Fe 11.378918580518633 13.81588790172182 9.665285643910225
Fe 10.107179260650655 13.068691140099029 13.594516192711906
Fe 11.781705451301569 7.945190550880899 13.441550144286422
Fe 12.017189085358067 7.616670793278281 7.515525708132971
Fe 13.199964904164464 9.004890291829598 11.949141109615725
Fe 9.520414805633346 8.168938294797002 7.68789135689461
Fe 8.102515681561767 8.64366738363175 11.789239703696975
Fe 7.604349887713551 10.188715984976676 13.749603043623972
Fe 6.424097686611537 8.676960359859558 9.92182127389827
Fe 13.40400094286648 9.972065965160217 14.17231484839835
Fe 6.732242588076673 10.547025398909458 11.539033753288182
Fe 10.339192784288889 12.950616767822662 7.467526140539714
Fe 6.147996574287489 10.934776728168277 9.18123351387921
Fe 9.36141438412866 13.69836090876185 11.357300943347107
Fe 12.16697626298745 11.826617783406903 8.663098513632251
Fe 11.42803731074013 12.632835342710564 11.74935589175538
Fe 12.294366712993504 12.20413702279536 14.283908362768406
Fe 7.824645796543962 12.435553960887052 12.97857235666535
Fe 9.655859424326371 11.053593325761126 14.615353373582131
Fe 13.970697587085475 10.41658459043451 9.857886609078479
Fe 11.928480111508389 10.691903462397805 10.740668941742312
Fe 12.809154650640364 8.287253010611245 9.694353656145013
Fe 9.757665807781347 6.8161938517040985 11.98699723878007
Fe 8.469130067776494 7.4771005472459215 9.728499427080642
Fe 10.607706129243747 8.839042679180746 11.214654769323761
Fe 11.056379204953927 9.240042123854959 6.1149721497578895
Fe 9.575445755663845 8.781544427662643 13.664707120722792
Fe 13.171304056468223 13.723927210929734 12.62624554810264
