43
Energy = -298.93930383 eV
Fe 14.207169528265908 10.793725697868098 11.199678621509067
Fe 12.719662520184931 12.585137017330316 10.225257555909389
Fe 12.790841329216104 12.87816190632601 7.652822130558619
Fe 13.092664128164047 9.751221457139538 13.120872759117466
Fe 11.678835534990894 14.452586891858028 9.304080399985237
Fe 11.986314184128144 11.76517838981618 12.419035183434293
Fe 13.864406670544703 11.003409250358981 8.739648854157048
Fe 10.814321686030203 13.758266762790107 11.536603550216418
Fe 11.97026949788788 8.715360366537563 14.866668703341176
Fe 13.236773095558146 8.226142549188417 11.286615633253357
Fe 10.915034465453216 10.756332536709547 14.340834870815213
Fe 10.314300024640138 13.428002223882642 7.691906147226591
Fe 14.486824461760223 9.003762954094388 9.419736075100024
Fe 11.555002805890524 11.071809984982782 8.308759873568796
Fe 12.05304262888117 10.189811571719131 10.56210383115311
Fe 12.996172220808653 9.839471446524469 6.835219842931062
Fe 9.78763940822611 12.8950969717431 13.549794249041847
Fe 9.380174997432556 14.685890627719116 9.781139167041283
Fe 9.615382029489886 11.185822220022265 11.854064357210888
Fe 8.81748338927369 14.76818010374051 12.388645637481309
Fe 11.202725114722256 11.503197740678443 6.0927326163293465
Fe 10.241072749974196 12.230202578881228 9.794163265958522
Fe 12.250297900986457 8.638437313404928 8.74281228725382
Fe 10.89775471365433 9.217671678192207 12.45496594525787
Fe 9.745670464480364 8.262853008499022 14.288291117477478
Fe 11.955854548761923 7.19295590938729 13.074637369285211
Fe 8.611415894612234 10.366815161624553 13.807985490450871
Fe 7.5251574417021025 12.511223348507919 13.297167352601896
Fe 8.207462633929621 12.966764577717127 11.137035310546816
Fe 10.521794335291222 9.338733644990274 6.97808837102723
Fe 9.90783682756811 9.530192409819637 9.588729208361187
Fe 11.062798101028061 7.603575061367107 10.648850288631625
Fe 8.029482616861337 13.134186757346885 8.66295126274781
Fe 9.169955334442916 11.28095489581462 7.64276446259107
Fe 8.623981732227762 8.819908783959782 11.81509990528878
Fe 9.683711636058147 6.745205777916667 12.448556085418984
Fe 7.028794314965187 10.629681884839068 11.898421895846619
Fe 9.982762694030932 7.346113081467489 8.322639387568936
Fe 8.008166460614227 10.916410728064733 9.783327993132335
Fe 8.256531684796874 9.115075860328254 7.816627735011917
Fe 8.803915304795455 7.087546716961807 10.242610248234099
Fe 7.223880824533868 8.702056659443768 9.84582158572661
Fe 7.777611186458069 6.781263628738088 8.266436682380021
