49
Energy = -345.76466066 eV
Fe 10.114437162103437 10.689864809450066 5.443712487668422
Fe 7.689405189860249 9.6058478030967 4.822558973750091
Fe 9.723159280239479 8.175410352860135 5.216871163599523
Fe 7.3695644774961835 7.54244629187735 6.297505467462718
Fe 9.142945640456848 5.798458977361434 5.947729056857587
Fe 7.985716791719761 11.744564159555535 6.0649713381273
Fe 11.170801655809827 9.214212791109146 7.438020112492551
Fe 6.206300265264479 9.75736611283727 6.79628063035087
Fe 11.388055749639994 6.83853373751933 6.343962901103153
Fe 10.25072622084305 13.125135297348603 6.387568731353202
Fe 8.671348901172799 9.491633726290875 6.890546090730601
Fe 7.3157658037669355 8.25394577392296 8.820798535002224
Fe 9.546476668839567 7.469499549901534 7.623402518209547
Fe 7.830702198519093 5.8645299792791485 8.07284793836459
Fe 5.987950705426036 12.12953071711982 7.5236372461972385
Fe 12.993108831295269 9.489638673207077 9.09905013628085
Fe 10.402472580203678 5.2635884227293745 8.033648566778245
Fe 8.300816027806786 13.21690058867327 8.03849144242934
Fe 7.606707707956022 10.896540272938667 8.396743572122125
Fe 12.233855935758086 11.51700884182916 7.472729705231682
Fe 11.76722984314427 7.396243363262681 8.721035869076257
Fe 10.953450305852982 13.224791805102347 8.90490249128191
Fe 9.898486949758897 11.390707493979663 7.736030432362868
Fe 9.351362614937004 9.393694074231767 9.214748451348823
Fe 11.137111137203254 10.780225773065077 9.645286461069295
Fe 11.39148481412859 5.556385312667254 10.31503604959727
Fe 13.09557113646124 12.031732533208261 9.595672361294119
Fe 5.486531685686923 10.193346067922885 9.241704794602157
Fe 9.53535554031594 6.79182441083363 9.860182179305665
Fe 9.093521740090345 12.050281908308058 10.09063729418082
Fe 6.661771130962585 12.443935638705824 9.954946373101345
Fe 6.002817266648246 8.490659148033 11.021796819105205
Fe 8.837211071470064 4.60857970840848 9.85935492937947
Fe 7.601754466170361 10.199004564223115 10.594698206022525
Fe 13.008735782748854 7.799990249404075 11.09279235685008
Fe 7.109391241913308 6.376141297098765 10.437165172072843
Fe 8.620690723932775 8.200818241837064 11.398732836230552
Fe 11.000588593431777 8.603115718041838 10.626197196882691
Fe 11.142363264082416 12.511602192822412 11.242269560897231
Fe 12.519158839771153 10.345974921765984 11.52180309424482
Fe 5.667173473819274 10.869407428374261 11.688179638205865
Fe 10.935900051347408 6.908058015639422 12.224818428347586
Fe 8.865444681817543 5.797042143147577 12.064348687454174
Fe 7.84613821927598 11.987682942631807 12.18308739225859
Fe 7.00152925619928 7.19712884471244 12.831470773178973
Fe 9.779725605330055 10.36909087564241 11.856800435977862
Fe 11.424100456381801 8.976069731493476 13.070355465018432
Fe 7.422981993970288 9.668739717375873 12.9441126965093
Fe 9.178415567236645 8.019384247419751 13.59707218829825
