42
Energy = -293.26402322 eV
Fe 11.544325597475755 7.085640965431593 12.365547005205057
Fe 13.736854305699875 8.074569818278913 12.55557737122241
Fe 15.772765967260456 9.365669517189012 12.590945024061755
Fe 9.554397472024704 8.423467512239469 13.562746955112878
Fe 7.587094777371977 7.763774225231079 11.897707069922307
Fe 12.089395276802048 8.754111231835324 10.704657904087014
Fe 11.674195791840521 9.361781991015834 13.124580419420754
Fe 14.481868597555767 9.34046935138825 10.647432919454554
Fe 13.838984694266395 10.425208220851685 13.19293164992583
Fe 9.822906977404447 10.80392284588723 14.100729729994347
Fe 9.784346905373125 8.169430633562392 11.290533230814312
Fe 13.051051925933086 9.208580548489897 8.488856218826552
Fe 10.422332327100564 8.662315293771988 8.971740290731226
Fe 8.024819104016974 10.010719013301312 12.558718010288148
Fe 11.284260219122586 9.784527683159723 6.935167781942947
Fe 10.208533708151675 10.52216742496226 11.451626952500897
Fe 15.217932784596572 11.519560087191985 11.548858098238036
Fe 12.203560117829012 11.094805401817599 14.957159489592804
Fe 6.237299622279452 9.405711146881682 11.049535525249324
Fe 12.669034892528817 10.884025833597809 11.29518475546603
Fe 11.685469903234143 12.060480027717299 13.00983208625936
Fe 8.30175259206498 9.542990172685462 10.011186352038264
Fe 14.126617332050944 12.711993933677677 13.490618906786379
Fe 12.532461940517107 13.455172763729722 15.020575754613626
Fe 9.123143972617548 10.433177589528924 7.8350096974200465
Fe 11.429708788333174 10.809305908084983 9.184409906254016
Fe 13.83245946097804 11.38777290801311 9.395658093839584
Fe 9.045766002478821 12.371396091565641 12.345243266799583
Fe 7.373221973854044 11.586187276001791 10.789946201820625
Fe 10.282494798316458 13.265318922678887 14.350523195914134
Fe 11.259619535239882 12.79037787460267 10.79820189634852
Fe 13.00875624021276 11.350007728544474 7.1451102790575565
Fe 9.305161688876119 12.007871272622856 9.580863975070665
Fe 13.548827106893508 13.261706437716429 11.093750285909271
Fe 12.420353821278187 14.43817894326978 12.875579753961146
Fe 10.63687986701697 12.20348008602891 7.351312594731988
Fe 12.316977084184092 13.161358086706175 8.73956201650694
Fe 10.21180859130861 14.457000822065586 12.130882122973182
Fe 8.268713655619587 14.015244323752203 10.6718360888147
Fe 10.105402551576068 14.286184646404237 9.168848596961691
Fe 11.955491135074725 15.186585706386111 10.529733179552645
Fe 9.663810901620586 16.06470311457624 10.58118451542511
