44
Energy = -307.09214252 eV
Fe 8.464706725649519 8.102887956801307 5.041386531073836
Fe 8.781562638561706 5.643918333004532 6.126426031432494
Fe 10.960971106145319 4.746273564648894 6.493505960190294
Fe 10.812090671452737 7.201076201370114 5.711591528156296
Fe 6.427793905952181 9.44212492411367 4.907468155254543
Fe 9.05905845824727 10.369718809434737 4.963726989433362
Fe 6.347689018820351 7.5656472745931485 6.361823918850355
Fe 10.099348842903877 9.19969716864884 6.7885283825716725
Fe 12.252806646528537 8.60024294948581 7.617726357492343
Fe 8.528834457931476 7.5253640096617795 7.348442231228463
Fe 11.527188788988187 10.68589099587213 5.940219220471371
Fe 7.612623756604192 9.848964586108362 6.7624312579977675
Fe 12.797150886935473 6.352008720811644 7.154358475349206
Fe 10.59488720801155 6.6173195063380295 7.9572990334497335
Fe 7.001955215579585 12.042562263255343 7.485924977848711
Fe 6.826006133622353 5.900413423099183 8.272059639208916
Fe 10.308414302996818 8.513391599757046 9.236218724128184
Fe 5.298731445512892 9.70536973396624 7.40151877148176
Fe 9.398669483137045 11.73681578447653 6.933526755856045
Fe 4.846004134801509 7.3772546977135685 8.323173043223798
Fe 8.863106815754255 10.30973537014276 8.745430699844134
Fe 6.8685813898695045 8.415356197386936 8.721994695776926
Fe 11.19325794615607 10.819490319273912 8.464130966586348
Fe 4.602129629360833 11.539203761580914 9.011684143617902
Fe 6.623833022622291 13.01284712749135 9.808665669006027
Fe 8.644339100823606 6.855752585742322 9.72784429091641
Fe 8.873778626531045 12.51168351102277 9.343593358961812
Fe 4.912779809771557 9.338389177182563 9.947692116253602
Fe 11.787528207288124 4.702461528983829 8.727471241929507
Fe 6.6748101259928605 10.719378880556931 9.370664790742179
Fe 12.361604325696824 9.394768083654036 10.057421401049625
Fe 9.132790449667452 4.800645567093628 8.361127350988896
Fe 6.199069758718527 7.097776734729914 10.54029101644184
Fe 8.161713800763698 9.01020971122578 10.67429584438155
Fe 7.521347621534425 5.033795230674406 10.399350863609401
Fe 12.364854459690587 7.030137759701975 9.648078175753882
Fe 10.450201762307874 8.046268754014054 11.485851101708798
Fe 5.536765120464606 11.423225743034237 11.338901144349421
Fe 10.486191568153489 5.739745913974846 10.417847097240102
Fe 10.217532379757616 10.460190392097534 10.821766779340177
Fe 7.96053197389552 11.350969505752865 11.32865665228449
Fe 8.10288548207182 7.130853392059924 12.095631646523898
Fe 6.3868041930847745 9.260597298855302 12.053309792247923
Fe 8.836316728389681 9.528823077354803 12.790191302495415
