48
Energy = -336.42573382 eV
Fe 12.216810096743515 10.137214482890148 5.9524631878143754
Fe 10.728497544331937 12.008435270925773 6.421348962931686
Fe 10.380156930899679 9.242071802627459 7.147942223962867
Fe 13.13135443181193 12.463198720244984 6.44354640868416
Fe 12.428052220704668 8.68178583613287 8.174407789127024
Fe 10.649284441919608 7.559862912057066 9.493127353397941
Fe 8.909168397666305 11.085398930477877 7.638025724297724
Fe 14.06657893382437 10.365245580311136 7.427248027852478
Fe 11.984732490876109 11.117230497228956 8.16973888583936
Fe 11.722130123720104 13.766247403610118 7.913314074479878
Fe 9.025808031774078 13.655079483674134 7.631042266315927
Fe 9.403558225593086 8.83446945471564 11.434891850124334
Fe 12.861707096432822 7.384555415975554 10.29630848051588
Fe 14.329887820550193 8.714345883518238 11.83559010941326
Fe 8.311541903106411 9.375036489440948 9.257860889988882
Fe 8.83574133557519 7.765046022824897 13.405595075722797
Fe 13.78552614359567 12.454153791171281 8.800017846513612
Fe 11.783844215592257 9.155459527107809 11.145800331480668
Fe 10.548590152613889 9.906075463641242 9.406651159826549
Fe 10.181160642365318 12.527761696341589 9.118224560572605
Fe 9.414487004676225 11.084778594358655 10.889203283735734
Fe 13.569438485416454 10.021046033284595 9.908489162877954
Fe 7.65436031859908 11.831590929199177 9.4491140041047
Fe 10.724873217036993 7.0053226703167235 11.933281124886628
Fe 8.640292214342226 10.32224942846612 13.189236497120213
Fe 10.931441770681277 7.253872827919254 14.57231253337397
Fe 11.897237950586868 11.622247910982326 10.593903531955041
Fe 11.006960478060195 9.207956532995913 13.442024972388749
Fe 14.209648460846008 12.182626916471289 11.126544109763687
Fe 12.801373300952692 7.339375562493099 12.868581103154217
Fe 8.200028690757529 14.109746322716777 9.89901221088746
Fe 13.101636486320523 10.555840248207735 12.49786799463606
Fe 7.636293130904361 12.460138248390402 11.732383758679132
Fe 7.204836494049418 10.020137304001281 11.26111515596468
Fe 10.167402822518262 13.285818317232847 11.472259102536336
Fe 9.150354612369807 9.059178096282787 15.282107950500139
Fe 12.410841399858308 13.890601328223912 10.292940260824864
Fe 10.337649355119355 15.038288729777111 9.723103421957926
Fe 10.754026412246358 11.420110793363515 12.753980324091511
Fe 13.305633064909523 9.06682097107251 14.364555373692877
Fe 12.580142289255855 13.063387115842263 12.599099305367904
Fe 11.458002480704232 9.278138870161076 15.836483264697842
Fe 8.643905210547562 12.755064904695178 13.785831300800021
Fe 11.198726093015948 15.218112470260174 12.08909840220463
Fe 8.751332852881852 14.792657153976673 12.251908895130882
Fe 12.376830044870061 11.402627114852754 14.608490845330847
Fe 10.097825787989084 11.210033059904347 15.06027943519665
Fe 10.751730037068649 13.654104493355522 13.972602342294493
