47
Energy = -330.33055273 eV
Fe 8.58368702267855 8.821708263623904 7.933324674540852
Fe 13.698133834457456 11.743874366144484 9.124203094039439
Fe 10.439025303466492 10.087808037439942 9.414654358412628
Fe 8.645253506392127 6.47198948031867 9.152087736064335
Fe 12.502435212858646 8.329835500241565 6.531681324703248
Fe 7.297019992770547 11.802368831915716 11.310483085149311
Fe 11.546918667780979 12.007440352395 8.322160328786627
Fe 5.818391085671036 7.378577654273744 11.963246964925023
Fe 10.598261664395318 6.375043977628024 10.792680991897777
Fe 8.837044736848918 4.642842897428196 10.776822553363274
Fe 10.85054174653491 9.848539089281777 7.163028753050672
Fe 8.372685859098198 12.877597041179095 6.294132243030634
Fe 12.02361891949835 11.237880290319561 10.774748521834889
Fe 12.923801300988778 10.804090863628401 6.694171885792153
Fe 11.733844761645607 13.475246550445345 10.082157191502025
Fe 9.60115821363767 5.5988943760425105 12.923763394409303
Fe 6.654252775311763 6.917776288494891 7.879592068809308
Fe 7.7866833782575915 7.249344828050994 13.70002975424252
Fe 10.037915944374944 8.217679392900303 5.776708251147609
Fe 7.067060861058621 8.107990807631003 9.886606106052769
Fe 9.74378722864928 10.482960123204162 11.75226605867261
Fe 8.873091820266072 6.444352678526319 6.864654220871859
Fe 5.6395282994146365 9.712209637514247 10.783077943943303
Fe 7.886696671547652 10.403653693881104 9.691699192617461
Fe 7.687509425457786 9.214553096788707 12.032640802593304
Fe 10.440774836100712 5.225807185163242 8.570058647852896
Fe 9.639157269473957 12.29646102302492 10.231191084435276
Fe 7.327860815608202 8.552125846056873 6.043082616073872
Fe 11.647023846106045 8.714252426659716 10.97949026319952
Fe 9.216558680050952 11.409192785525185 7.892989667940041
Fe 9.358598179172738 8.415576067527716 10.43165529027708
Fe 11.214579687522304 10.068343205931086 4.991535439217026
Fe 6.959275156814986 5.1153275379076995 12.409039708846617
Fe 6.994643724132116 10.99750475245966 7.155235307363376
Fe 10.675048632819632 12.11761036955394 5.991396035197775
Fe 12.722085585252708 9.6074475027126 8.781364161165914
Fe 8.144654251415805 6.842766651817375 11.565168919131633
Fe 10.84626711499222 7.76903909427768 8.479425082739507
Fe 8.847313549583621 10.388587367140381 5.636853656783227
Fe 9.818066455675162 13.719520542030036 8.14931835151601
Fe 4.878063855754209 7.481174468111927 9.754789512030818
Fe 5.643988214119251 11.448980222440866 9.236509749199287
Fe 5.945949896741756 9.247778959676749 8.152627041237254
Fe 11.223487635410878 6.232254066484591 6.624757609640734
Fe 6.5117017392613965 5.632486048257029 10.079545994513936
Fe 9.949736735096662 8.05459351385601 12.743751673942937
Fe 7.561056924371733 12.82315326262678 8.89383370578283
