43
Energy = -300.8343304 eV
Fe 14.04205787032531 12.12373757763437 12.417749665495926
Fe 13.626844726812372 12.738675659625342 10.109317229864736
Fe 14.267763458942886 10.418268969218401 10.803740334331609
Fe 13.31299523049729 9.980589534867702 13.283480724143331
Fe 11.99502823826971 13.473248295925648 11.74299319976769
Fe 11.900314973062557 12.033727705203216 13.582391544977126
Fe 12.949121272534192 10.946876479632117 8.684651847783929
Fe 12.21838800146002 10.865986571573329 11.272820698691284
Fe 11.25824241252137 12.545408320543459 9.663708447986389
Fe 12.977301461669306 8.718770345675253 9.64962134619538
Fe 13.954806602170896 8.326242970106799 11.774180219137522
Fe 10.9142948109786 9.925791217863733 13.249646120513882
Fe 10.081271559470949 11.874960103448316 11.969385646640982
Fe 10.752111880971782 11.384343169526502 7.5907953390080385
Fe 9.479105997031851 13.721782681108849 10.744519393803722
Fe 11.373736553641166 9.020315328100962 7.6482419320672825
Fe 10.773052975672194 10.097873217738863 9.611711614807444
Fe 12.589121057620511 6.5118846393116705 11.244262517489299
Fe 11.411179041956977 8.58506424499421 11.385304130434395
Fe 9.130098865119711 11.956320508871007 6.149533510789905
Fe 9.41197114780169 13.36795084542861 8.25044493282527
Fe 11.92577710836724 7.742663071575873 13.428504203753477
Fe 9.5078952417904 8.086049339755048 9.596249079159053
Fe 9.746757261749261 9.630459875490052 5.848834811691855
Fe 8.805594423149646 9.847531417615762 8.04706012560021
Fe 11.448499245431302 6.945631256068438 9.20967104680495
Fe 8.860055508834796 11.547235770823717 9.780604542659717
Fe 9.30379140654057 9.72929994077078 11.448771858581926
Fe 7.270292243537598 10.574498545501294 5.9864749784981255
Fe 7.289901999561901 13.363555103383309 9.845427766315652
Fe 10.206943290075998 6.607398576335725 11.462191114827574
Fe 8.755451316658458 10.762510051542296 13.65505068285516
Fe 7.431649298957986 11.949566683605532 7.923996581009294
Fe 7.4802587869137955 11.516645106295734 11.678880641584163
Fe 9.654225087720937 7.437097293424775 7.311199190024711
Fe 9.320620990296364 8.086204729636986 13.228305136869057
Fe 7.780483941355012 8.332321868218576 6.2487297201457235
Fe 7.408137133951616 7.638651696299062 8.495727699002357
Fe 7.385602032512906 9.42688118074709 10.12748243464674
Fe 6.271392161471292 9.619282428489308 7.894718368036096
Fe 6.112319914114323 11.265425432635634 9.686993554403182
Fe 7.883085003289926 7.433978057908507 11.268156719125171
Fe 7.1988869446871115 9.29320686140054 12.665535157346147
