40
Energy = -278.04044531 eV
Fe 12.732975201037101 10.626443163651965 9.484837831299863
Fe 13.989723885078487 11.78336488034087 11.186789627689393
Fe 12.892541782145294 9.456295220322403 7.462459509706328
Fe 13.171252427484982 8.294712851523851 9.763432405434468
Fe 13.259222802667473 13.040705828032673 9.373579156836389
Fe 13.161241529731504 9.625089365100715 11.763214258134967
Fe 12.324782073193438 11.827968972516226 7.394314473173435
Fe 12.926646079098502 11.762874353777821 13.23135820969076
Fe 11.852048149420009 7.572471933871089 12.057082725653581
Fe 12.11603625221124 13.515293617117436 11.542873400619719
Fe 10.40353779017903 10.591287836033112 8.806880386083389
Fe 11.050926069044229 8.232227916080003 8.309133117999075
Fe 11.738731057026285 6.506895237099557 9.905205262655294
Fe 11.29839877593559 11.367392977217701 11.26866183878813
Fe 10.89542148306131 10.117797963031995 6.420625400453954
Fe 10.835939783660919 9.05860238274329 10.674885799897586
Fe 11.004061196915618 12.853972878292696 9.314071186583611
Fe 11.42379610742395 9.879812802782578 13.298984954969823
Fe 10.794916791752721 12.689347070923391 13.379515579223819
Fe 10.105731340025628 12.446061729793328 7.029293631204042
Fe 9.584793032891458 7.038443409050215 10.590650131097364
Fe 9.61951892519132 6.293391223853948 8.358819383417813
Fe 9.452447522334765 8.49460836421076 12.585532433488604
Fe 9.415943699966313 10.89017730941724 12.940870509050818
Fe 9.279210297292375 8.16767604288229 6.6187932498521045
Fe 8.63915027408832 8.62799450272309 8.931604906582415
Fe 8.635467993079862 10.519008607876358 7.20254127390996
Fe 7.455595529400149 6.360729055998701 9.744614666970765
Fe 8.698868980994446 12.277761490243604 8.920600775651268
Fe 9.400072245960303 12.924437214359893 11.305875688942495
Fe 8.801811118667775 10.564593596571662 10.712226801845839
Fe 7.5378553899607885 8.465342053843093 11.02398157127908
Fe 7.474589258308021 6.771953228565161 7.4709415520397755
Fe 7.366000829204753 9.710166498041962 13.112968174295668
Fe 6.909194634381198 8.961521285389853 7.023933573069759
Fe 7.435182049550516 12.016442329186 12.590266310988067
Fe 7.008393544799042 10.476404888387506 9.047551834871706
Fe 6.104540266840186 8.20889687065199 9.133309042371572
Fe 6.96450585273272 12.550895326464797 10.41264933447637
Fe 6.113245491409103 10.37231232088147 11.167617595409961
