44
Energy = -309.92829048 eV
Fe 8.93709984369103 5.861698366280055 10.064004471349666
Fe 7.824621537285028 7.824134436900599 10.603386306794981
Fe 8.143498822722837 8.763935745930219 14.161548913575597
Fe 8.334566527196023 7.111701531815484 8.0839739646341
Fe 6.9906343145484025 9.418640628488617 12.156167576492592
Fe 8.464815987839454 6.980171244520674 12.665758021496009
Fe 8.319505354359542 11.051640228701032 13.080260317096734
Fe 9.972555336771817 10.149227194883895 14.669092351912402
Fe 6.9662316619930635 11.793498913020482 11.001241037123185
Fe 10.735723656443737 6.453670855233875 8.576076730151492
Fe 7.742761854186644 11.714197012632765 8.269308141321615
Fe 10.534016119079245 7.973708766450453 13.80653785079508
Fe 10.48187663270493 7.138239530302777 11.312837169737884
Fe 7.099820788111621 9.132191632444744 8.714000302137256
Fe 9.787198035018148 8.41322486343438 9.375018949342676
Fe 9.560114073481833 9.205760941776905 12.070851411868192
Fe 9.97616727371039 11.580913241790231 11.37286110889927
Fe 10.273241491096886 7.942801684658788 6.613358289379191
Fe 10.183035514030585 12.48554961766209 13.732728879635685
Fe 8.208956132012077 13.29229023818482 12.301274150643748
Fe 12.418804778485809 8.422549126973497 12.246352654978875
Fe 8.459902805867092 10.281953906462805 10.17971322438364
Fe 12.414800532343389 7.416630736546247 9.970548011319691
Fe 11.44247950109813 9.732458831101798 10.529694874308255
Fe 9.032424798754626 9.691558492535796 7.518833210010795
Fe 8.753657508925828 13.079609633564887 9.95499479006668
Fe 11.484224249158126 10.508930137543686 12.965068663380855
Fe 10.562329221668287 13.858737592242916 11.78240531008783
Fe 10.26397700287557 11.28425545990674 8.807475227410668
Fe 11.804788588981728 8.939088838520844 8.175927135726953
Fe 9.322584722409344 13.66274609635034 7.76251821474539
Fe 9.216599714220862 11.820177909220442 6.397219515349367
Fe 13.695565470733714 9.512974142806312 9.958896078561482
Fe 12.48842041226713 12.787817072984502 13.033250305863604
Fe 12.331338476143262 11.93369586128492 10.811007716230913
Fe 11.153097644862564 10.472023221624184 6.499629109521966
Fe 13.794199751701855 10.601761046503668 12.095739232006805
Fe 11.161520969838586 13.476159320896278 9.433238220217572
Fe 12.750069156830175 14.488624611663097 11.198495346132024
Fe 12.69244795416816 11.207299220411452 8.492656644143562
Fe 11.499201644514299 12.789063290021604 7.140750504678675
Fe 14.798050294810265 11.536554400141402 9.847078793771233
Fe 14.466749713747678 12.95022797448228 11.644287557361649
Fe 13.543023023397405 13.423536907387561 9.178287620156132
