46
Energy = -325.39744144 eV
Fe 11.916761575576643 6.420399755362757 9.50898759051047
Fe 12.83392090341676 8.238532444622477 8.214430311563694
Fe 10.16932485298113 8.032781880477446 8.589843854302462
Fe 12.391494126557077 6.780614138448249 11.951129249366703
Fe 7.946745720580614 7.543926992885615 10.171900376262377
Fe 11.273139777148641 9.35194175185549 6.726617266874264
Fe 10.049909562188928 6.9663745583583685 10.990488736282899
Fe 7.5993698079636065 9.278070322069064 8.740716226255678
Fe 11.92149461679065 8.523477191958184 10.505079048797846
Fe 13.35992095595168 10.493879814629507 7.287425368680105
Fe 8.287641702795998 8.43763533840089 12.419445390075309
Fe 14.67053152552043 10.18600079236106 11.855159540494407
Fe 14.107028361623676 7.870015478538203 10.615983156894478
Fe 13.32070717895581 11.398966384240433 13.5444495444206
Fe 11.530059342094926 10.228155373611289 8.963728431746429
Fe 9.43782868545354 10.496752121429033 7.939829642347579
Fe 9.598247923112389 9.462235424321774 10.346006427369806
Fe 7.0464563810993415 9.802535388606326 11.081528909277646
Fe 10.597007684171901 8.66583562511271 12.635878597255
Fe 9.072741711452124 9.738886985792744 14.364911407370899
Fe 12.946450817685578 8.961471824819526 12.9036777259341
Fe 13.827632733110816 10.134718288118387 9.664789684122722
Fe 11.21373099560473 11.968803653542217 7.285125317195747
Fe 12.883276538529346 12.253014273579169 8.925109685434455
Fe 13.659559294419834 12.234775893045677 11.252362580860513
Fe 11.840658860003417 10.657822077342825 11.4302934827342
Fe 7.294794368201838 10.958207867833183 13.328450418038456
Fe 11.236737884387349 12.736965353755014 12.405053831358297
Fe 10.416368167381147 12.173067122861326 10.00869457894158
Fe 15.2868692246902 12.623944392132348 12.84609320507545
Fe 11.176268407434089 10.610783737773694 13.873585923698867
Fe 11.601968174068565 12.750595649208602 14.908080614941644
Fe 8.149059987471622 11.483524348832542 9.741165717516532
Fe 8.98911418146934 12.862529281969087 7.795484722565169
Fe 9.324787201478294 10.92690208531012 12.1289714297453
Fe 12.30741315260701 13.908787843470314 10.439649638499487
Fe 9.343204107455534 12.23832596234114 14.249921997479609
Fe 13.191888039330337 13.855393185863225 13.460728709897268
Fe 10.19505788200198 14.588953515532332 11.005978059490872
Fe 14.460997239767943 14.371335022896139 11.498358626958307
Fe 10.749423925412753 14.089865510751192 8.634700124029118
Fe 6.715038414718651 12.227756235929618 11.410133889953496
Fe 10.442052158586622 14.49837139383955 13.653639445917431
Fe 8.316079961414143 13.841305175921393 9.83637041506068
Fe 8.685707372771663 13.216030366969267 12.161382053985598
Fe 12.125018924195563 15.419222582916158 12.20814945405162
