48
Energy = -329.95434207 eV
Fe 13.145287614486524 10.51884964834747 8.25902935795206
Fe 8.91318649422272 9.218488647517773 7.083684463984116
Fe 11.286734256919996 9.688554137277539 7.046298314238009
Fe 13.73931381733459 6.924082409124842 9.916153279574294
Fe 12.537851770422728 8.12957555648896 8.501391576647453
Fe 14.30166414725604 9.322715063597142 9.93556680617022
Fe 7.802266611181723 9.529537964503787 9.040998345215414
Fe 11.944358691562 12.59283312338165 7.974469554182676
Fe 7.936927606336145 11.412349651381469 7.394972537843997
Fe 10.094449494886431 8.348079066616249 9.007510337637688
Fe 6.2052554752420095 11.440834669567336 9.114745238574033
Fe 15.258562205327635 11.37985240301863 10.583370068463557
Fe 11.355071661481695 7.189050850296946 10.753206708477745
Fe 10.09968776659449 10.972633575775685 8.509982682489902
Fe 15.441935248305617 9.165343207995925 12.004426067881967
Fe 9.700250671157582 13.115518492103485 7.3653732941565195
Fe 9.634630079015377 9.811572235694294 10.63621038212473
Fe 7.815874164868544 13.108187947712757 8.779603630156819
Fe 14.132289412334814 12.739363620132703 9.078359754170709
Fe 9.391089836085806 7.966146872041057 11.931583501798434
Fe 11.347021618739355 7.49566934189813 13.375000983692845
Fe 13.186543742880804 8.14114610167645 11.792223299146798
Fe 8.238697241036881 11.459766867849732 10.314894083171037
Fe 11.805690425198662 9.541375802872084 10.123744604532588
Fe 13.51814563729472 10.537856676562804 12.080368792766572
Fe 12.293724810728278 11.759163755555635 10.274300008310528
Fe 8.284372240175616 10.371625271353674 12.51106232530043
Fe 15.522811694699369 11.51997399539474 13.016305406725866
Fe 7.904012634459392 14.426462829898602 10.741326982374774
Fe 11.160125230532561 9.822670029110814 12.45794359790792
Fe 10.113647765280918 13.09711664034393 9.732510640364671
Fe 13.14555888163584 9.04652857893966 13.92621477130463
Fe 12.423466307264176 14.123984122076006 10.089740088987599
Fe 6.642406550212479 12.431047391160359 11.461903099186369
Fe 8.971913096752537 12.808340372838178 12.033723399386034
Fe 13.895165156900141 13.044196537123453 11.811722192659657
Fe 9.471396611616434 8.802103150104099 14.12886654814937
Fe 13.899849071793048 11.221764186148324 14.89370549519831
Fe 11.348039011000774 9.910359735653858 15.035832578275567
Fe 14.812033890479526 13.39392930216661 14.043898570141769
Fe 10.1935226083761 15.065315002545308 10.98838360450402
Fe 8.984338587954442 14.873144264062313 13.042449008447644
Fe 12.646252102113781 14.202522204881085 13.597117512746081
Fe 12.244016186052448 11.862445516429773 13.641211051492952
Fe 9.901551548893224 11.28996191885961 13.816374236919414
Fe 11.252578961096466 13.264989343234763 12.034552846451184
Fe 8.000238704609156 12.732972418057226 14.05427041785064
Fe 10.372179976874717 13.495986820301558 14.37940527193854
