49
Energy = -345.28960341 eV
Fe 15.299935759430129 11.445762817929358 15.439755860676337
Fe 13.495059321863456 7.810163434180967 13.881335221007014
Fe 12.847472664845146 16.28626346263515 11.108912954850204
Fe 13.06799487542676 9.104777785988468 9.894823544624527
Fe 13.301250255009816 10.546783879003822 14.158309582518186
Fe 11.480751715718258 9.000391554963976 13.930558869644699
Fe 14.13253725272695 14.883905482672708 12.75479335467797
Fe 10.402355865478327 14.662012223281412 14.701292828347999
Fe 9.044805847298981 13.525946986489947 10.391944225838817
Fe 11.588266597128923 10.34195772549514 11.98230825421992
Fe 11.675751116414347 10.455471697005255 7.947073456713444
Fe 13.64981025768149 13.030063339990331 14.354805703602596
Fe 15.852362199721393 13.602267965475843 14.122927023059727
Fe 15.424331924053467 13.3443569040325 11.571505323791941
Fe 9.571070118687247 10.48838696132684 13.779523399322478
Fe 15.414658440380313 11.433392043824963 13.023480149163506
Fe 12.425857642375648 11.474615166730972 9.856205859408092
Fe 11.175048092900164 13.287441108501204 8.813737689976028
Fe 9.249111962311996 10.997219027743766 11.400946900431999
Fe 9.306525246538849 13.009920981030652 13.037717693388048
Fe 14.386206437891282 13.6714690851741 16.388998004417726
Fe 11.897585337090856 16.239664527917927 13.316100442090166
Fe 11.142901790135952 10.430991061277235 15.883609855084178
Fe 13.046969734158882 13.764575010596504 10.679976387518396
Fe 12.910347119509176 12.549010337612883 7.449228024478498
Fe 10.54172790759009 17.241103018016098 11.477012750447642
Fe 9.789075925100992 14.99717628242533 12.30857521159217
Fe 14.788441242284918 11.13564028369847 10.562462796623457
Fe 10.686397370715058 9.343903786702047 9.93612602745435
Fe 12.913780479086867 15.0624263898825 8.72072858656834
Fe 11.698282412852112 13.355553756538177 16.271354396802995
Fe 13.952210839433011 9.458178251410502 12.161280313873954
Fe 15.294112655817292 9.279372588565268 14.285623093944547
Fe 11.98902236583775 7.934031577123115 11.70442403615755
Fe 9.652751745731205 16.85122455890305 13.588983301135361
Fe 13.1189072561287 11.57223469809188 16.36898900396321
Fe 14.098868776421197 10.622527121596953 8.29144142743822
Fe 14.543803223326886 13.051760327986502 9.027752951299409
Fe 13.360162075716259 9.123272646189111 15.940553670439051
Fe 9.72503201164689 8.690831020101726 12.093588913611558
Fe 9.716933572448754 11.496634971465413 9.170301552049379
Fe 10.932545612215987 12.673483695759451 11.287427775164755
Fe 11.89416533270527 14.089405557492977 12.853049448831078
Fe 13.216932910221137 12.03909399833684 12.226298379341774
Fe 11.361327369849239 12.008563721679968 14.012768192812098
Fe 10.999664726648335 15.1697727764746 10.338025545124989
Fe 9.606765977988191 12.397889655200741 15.480278383472765
Fe 12.819989926606247 15.071940479887628 15.124897649713978
Fe 14.854107239457159 15.29114836787247 10.242162513892737
