47
Energy = -329.44040205 eV
Fe 11.34583897040621 8.875161847351015 7.5697731147044065
Fe 10.775286065057477 11.099504243845175 6.5757104342585055
Fe 13.147105664899305 8.480328457411558 9.069549472187328
Fe 10.191180729556999 13.163420364709928 5.828312916079618
Fe 8.779737419502696 12.10738409657968 7.485090385301903
Fe 10.60940826476733 7.810805463597327 9.547548839018786
Fe 14.75300626933085 8.267326551644858 10.876529949856886
Fe 12.07387320104089 13.207905126035977 7.158576744454629
Fe 12.44462733116404 10.902383762907796 8.209265267376436
Fe 9.67337761334973 10.171590628236071 8.614657968654196
Fe 7.464434029936149 10.888896920639104 9.194625733256414
Fe 8.68237923322534 8.99588372227431 10.514392346719415
Fe 8.558820844146547 13.072521379110773 9.555565999061919
Fe 12.374742092921453 7.534686580861831 11.205993787356636
Fe 9.936326963482616 14.301077495915274 7.850201823828884
Fe 13.663736706754285 12.927512722223897 9.04243167007817
Fe 14.145462050853887 10.55381963607082 9.895621479439185
Fe 8.563969728610058 9.905147719981711 13.029301668228754
Fe 11.427536488841508 9.901004660037819 10.182629962988866
Fe 6.785939447187678 10.141558990452063 11.391767795224363
Fe 10.53276305769515 8.77177991721779 12.110415703972741
Fe 10.753228449213967 12.360484955126578 9.121210024220625
Fe 6.5424575196081465 12.487942443734976 10.699619616646382
Fe 13.120383918491068 9.78874219151399 11.996207466039294
Fe 9.670526095137458 7.8670219763432705 14.072388864599843
Fe 11.880932237531388 14.456205896190914 9.431825913159981
Fe 7.107103570602405 11.904042311692844 12.943886863682364
Fe 11.632737076827004 6.748186527146481 13.320263641550047
Fe 12.414329357724874 11.991005398638345 10.835769455943684
Fe 8.115780073958714 13.801622581560249 11.812082058527547
Fe 9.226517208239285 11.288375607057699 11.080481910385068
Fe 14.001369808085046 7.649108956052174 12.9924142590027
Fe 9.680552629369895 15.046895277654615 10.172792636599958
Fe 15.464933894588981 10.291449127770715 11.793152787411112
Fe 10.279791602808567 10.068735930717537 14.67794284351732
Fe 11.202768850932937 11.050138055759504 12.737310866216857
Fe 10.597755367497152 13.40618781706472 11.399847928197183
Fe 15.019104370195699 12.597711351967884 10.993203669917289
Fe 12.207329883831054 8.864479957049198 13.995781550351001
Fe 14.403592850339171 9.871316363131175 13.973578627393739
Fe 8.285845621622139 11.273397411359095 15.023858470216588
Fe 9.402159375476774 12.498455736293943 13.319196412742464
Fe 13.21372886016137 14.104351833773213 11.437696089043039
Fe 13.738849421694807 11.895751551869797 12.855330195663964
Fe 10.648381812944962 12.41308670098558 15.261195109833467
Fe 11.893146738851668 13.245562585542737 13.345166569474603
Fe 12.587059370982395 11.21472686100732 14.860932242155869
