49
Energy = -345.33775962 eV
Fe 9.120317236571049 7.184908762369875 13.60844871174869
Fe 11.55501598938895 6.673213916077943 13.002858630305422
Fe 7.985166188533214 7.011667457502861 11.184754180363035
Fe 10.06642976633612 5.972015426398774 11.272940261357489
Fe 7.6151040483055095 9.104601085325687 12.351802880908792
Fe 11.049215715993329 8.847030930409904 14.199508355058672
Fe 8.915535297986422 9.710911402057963 14.192610273162018
Fe 13.397651908327228 8.169980245082133 14.113058418885455
Fe 9.940320982192643 8.305090250316935 11.88335957701544
Fe 13.96030277961517 7.043807702381072 11.855063742690579
Fe 9.608650034204128 7.829570053553806 9.331526855585453
Fe 11.901447109920804 7.045571657412072 10.45298486090906
Fe 12.389490945902343 8.725624769855187 12.160003783913886
Fe 8.978095281327938 10.264263119935237 10.682287923175364
Fe 8.358444404283047 11.564798706886 12.762456166506405
Fe 7.395169685610094 8.893956651415785 9.899728480642455
Fe 12.776906373275208 10.617810626297294 13.75478887824767
Fe 10.708106197759857 10.614694575068881 12.377337501275758
Fe 10.158539162089314 8.686863541829547 6.632122747344083
Fe 14.60761475059807 9.495126926997466 12.238763302733311
Fe 6.762299991247167 11.149765634949368 11.03980505724781
Fe 8.03983181838472 8.92013674552047 7.560224592355911
Fe 11.265148136286456 9.44794484963232 10.310065623135653
Fe 11.843595360058591 8.426743309438754 8.26188564138907
Fe 13.689083245223834 8.791203980401145 9.9851176149286
Fe 10.554542707332152 11.628202466844563 14.332236282147912
Fe 7.6954172720109515 11.027211401348087 8.584054297897163
Fe 9.964943639880735 10.129121019914813 8.553261593356943
Fe 6.177671853276666 12.71983500269759 9.385235298302767
Fe 9.001560329133738 10.888020503435145 6.392280996216475
Fe 12.994262840125762 10.943205557411536 11.245457435829158
Fe 7.175000331020025 13.49078031264339 11.705967897678992
Fe 10.81622878032701 11.81313485166541 10.25203716371185
Fe 12.094653352795262 12.751103393490336 12.38744066765504
Fe 9.881718213979902 13.05860042760982 12.05027491806864
Fe 13.913699608168287 9.518033993393365 7.604353051280162
Fe 12.419106474003332 10.871966146651065 8.814895140375512
Fe 11.57202527270649 10.6754765088355 6.6989404786148405
Fe 8.697173570820247 12.680443822524277 10.075904839891932
Fe 14.825960965598112 10.813960896101849 9.677498078968698
Fe 7.775742700739092 13.304400208809108 7.651422418372129
Fe 9.864004343412242 12.323686001075588 7.968663186379739
Fe 7.286640466177948 14.777795525209307 9.605255336356597
Fe 13.32467876488115 12.940906824274503 10.009149358914685
Fe 9.01145853692599 15.009575697608845 11.125157395004097
Fe 11.976847109799209 13.183116674037306 8.03848230412883
Fe 11.130895394051077 14.17495974125712 10.192468449136665
Fe 14.10546307455382 11.942645404576847 7.718125689871932
Fe 9.520473566628064 14.660437721604602 8.622998796915159
