41
Energy = -287.04039403 eV
Fe 7.675273616340768 8.508205169016799 4.580462627507752
Fe 8.354254424834952 10.746641817459192 5.308789172389183
Fe 10.82015013784337 10.001719408282607 5.6340618625878465
Fe 6.388725440111601 9.751766109882212 6.336150701583873
Fe 9.24032988860078 6.850040160760044 5.712898221918486
Fe 6.791000684527747 7.2167401537293285 6.3300525938804135
Fe 8.905377766674656 8.933164368323226 6.552413550911343
Fe 10.887217495625734 7.834416089173344 7.539844528979641
Fe 10.531299867735429 10.349616148054848 7.831342852733199
Fe 8.163622651131726 10.972579575773793 7.916383258728607
Fe 12.704232548358574 9.62348743519179 7.786129103586097
Fe 9.221320679123464 8.806147914079798 8.91982890305366
Fe 10.047995421113825 12.186372477782276 6.445537594717415
Fe 4.817802766562178 8.38686961075064 7.904060530984531
Fe 8.623988620707358 6.641115836408185 7.924135220435128
Fe 10.622684304318911 5.5376546316328135 8.030231542113507
Fe 5.680526345411419 10.495394190877976 8.797233479399434
Fe 6.188071688077921 6.416487871819764 8.723270579791095
Fe 9.687878922807542 10.882144028484957 9.987965306870896
Fe 12.250530048419103 11.924941041928475 7.302717929338452
Fe 7.097168709651819 8.572371308053462 8.203316578284133
Fe 10.215428200512042 12.750012945623912 8.742194057920724
Fe 10.20946987753975 6.975680335132715 9.792676970584607
Fe 12.065235977578286 11.466324200412787 9.698101387572288
Fe 12.489066302090256 6.97661217236392 9.719712597985547
Fe 11.554885369314972 9.122910863032354 9.83480074552616
Fe 5.512794240077631 8.44084128414041 10.26213583342194
Fe 8.760217754621815 5.194435273773254 9.94962906053272
Fe 7.788101248088384 12.225189688707935 10.310456103253195
Fe 11.139068105327901 10.410023284645774 12.017661008064184
Fe 7.689436546212006 7.276911393994179 10.295671693547186
Fe 7.489128690067179 9.915907711019077 10.1719885830533
Fe 5.844328550557303 10.799002340168608 11.41748201117672
Fe 9.428472267584704 8.807719189846832 11.267517061868391
Fe 10.18373783936355 12.543653113075841 11.42723383749579
Fe 11.478467892674411 7.742904263238025 11.921856336839456
Fe 11.012928877124708 5.436954628273972 11.242844147747961
Fe 7.219102332874707 8.740373521927 12.291747988128384
Fe 9.174698940311584 6.623969919769367 12.15885120441667
Fe 8.481884523676351 10.938430380210542 12.293574040778166
Fe 9.612177254108706 9.022350960863287 13.465122007978353
