47
Energy = -327.77850406 eV
Fe 7.179680421475777 11.920909394226719 9.992510925308366
Fe 10.453416233526609 15.155578338464753 11.237276003326414
Fe 7.622404032826761 12.348856944997479 12.348763542252104
Fe 11.237292035842794 12.391806211879873 13.941140953230137
Fe 8.00857762500938 13.237152406946874 8.00511275066815
Fe 8.844429305008426 13.55633962651581 10.538288540602652
Fe 9.505613941935746 13.689908845494921 12.942579603405662
Fe 9.55635624611318 14.965929115658202 8.689133956870556
Fe 8.792767827334348 14.847551274890078 6.514751644269678
Fe 12.231641121534874 14.010000457861679 12.305889645545207
Fe 6.959721184862572 9.572326642928875 9.803711649184244
Fe 11.410730950097422 10.014483297041533 14.407576012558634
Fe 11.494818145179073 13.905312446092903 9.54468449163364
Fe 7.360014630044782 9.903473904280652 12.173566855797167
Fe 9.29141437675889 8.764947685040557 14.146098480001934
Fe 10.909002661589438 12.49920000391991 11.3467077134459
Fe 8.19203104951118 10.62401634940266 8.023928474419268
Fe 13.172754531834583 11.662409552865228 12.91289328844183
Fe 9.338208762336407 11.082523272096982 13.305198328317195
Fe 7.471591675674625 7.7019100123338005 13.159922146287398
Fe 9.23015533131389 10.923654225937895 10.83955474632314
Fe 9.8603714060235 12.13038264407019 8.882169264563517
Fe 10.501051596955323 13.37183371479598 7.064349122123957
Fe 7.823419406956744 7.7613831593890605 8.369963299857982
Fe 9.4129436915081 8.808569316354985 11.859436826768773
Fe 11.287475704832826 10.33197504093352 12.01833264843574
Fe 9.247179075355817 8.770224898608216 6.775320362747664
Fe 7.690585323952316 7.570022908172713 10.844153684493888
Fe 10.639567336931785 10.64740088789194 7.227400661112855
Fe 13.122522619781332 12.342686493970218 10.525811867015177
Fe 12.505999083344635 12.249651722790817 8.02109041589811
Fe 11.730246647769313 10.565984390363681 9.496850799317523
Fe 9.45071263279474 9.129556167440404 9.314741255606394
Fe 11.606663167970952 8.454511178002862 10.699529392835945
Fe 9.417379783542579 6.52568261739052 12.515609875283214
Fe 13.61572273535015 10.034700959233186 11.030511256485102
Fe 13.293373191408847 9.2375502888987 13.209060578618997
Fe 11.394573210589224 7.847037268112823 13.092356941353016
Fe 9.868937783257467 6.863403121411145 10.071303222700806
Fe 9.879148861510934 6.667682633881443 7.774772396013024
Fe 13.602128932735768 7.493709973181723 11.318413430777966
Fe 11.35960408883611 8.477603252822995 8.113092892350407
Fe 12.962853358454065 10.077444320278643 7.194356823250554
Fe 14.369543094177764 10.963521088359407 8.975314527910049
Fe 13.576978834221071 8.617468085803406 9.078458433549445
Fe 12.18007312559962 6.513316958214712 9.305040898830207
Fe 11.721591737080137 6.0418202211846825 11.576146564255088
