41
Energy = -285.334859 eV
Fe 13.75450278323916 10.892467738626195 8.553563959522744
Fe 13.790920421388645 10.35250264042056 10.95681369770003
Fe 13.920973062716433 8.193365014391107 11.551454640329963
Fe 14.260446409761093 8.194427354506908 9.076668994872245
Fe 12.991635222547156 8.942733316830441 7.051229434769903
Fe 11.89881505255391 11.37814997619186 10.009515237536844
Fe 12.207048519312746 13.048494423010673 8.375381051984295
Fe 12.72150047289716 9.523733754685214 13.40856271640321
Fe 11.54814485354195 10.82043661180534 7.5731589419999725
Fe 12.233251368477756 11.605883142876303 12.362870713420005
Fe 12.302541418025328 6.863057203631507 10.534139670967138
Fe 12.24359097266456 9.097071979884024 9.294787503296014
Fe 12.150920890048095 7.176744425672411 12.925179944006448
Fe 10.831600145439573 13.567612925970824 10.591391687585906
Fe 12.260157095191586 6.931369431410059 8.150171128393065
Fe 11.496348201552872 9.223319571867007 11.51231734112663
Fe 10.650625504956473 12.885194698803767 6.589344115320812
Fe 9.273547987252975 10.795743088391657 6.7963575570227395
Fe 10.313074869686124 14.53173071000305 8.513276480379211
Fe 9.876091202623378 12.127774363666529 8.855394273741904
Fe 10.313498871758219 8.451889415227173 13.779409660656892
Fe 9.18317704805786 9.06670329859833 11.616480763026527
Fe 10.545856143847212 8.586099562000863 7.326885974258775
Fe 10.323509535428869 10.743281169386576 13.497567505803334
Fe 8.490344041728395 13.45443728200369 7.40201095934604
Fe 9.874717951485106 9.847308569870775 9.33871864908284
Fe 9.87949759928666 11.505387410948016 11.377999758442112
Fe 10.084898953498543 6.807751161771873 11.829128214358175
Fe 10.235197112017092 7.5772000730018005 9.549246874179394
Fe 8.340113671596532 13.419526687854896 9.97135365655319
Fe 7.497061499140099 11.453870221242449 8.227526552456975
Fe 7.810856347647942 10.733619860073128 10.500087868820533
Fe 7.844153499963931 7.832095174854817 10.15997970153128
Fe 8.092532037593404 7.625015198740839 13.017416397580586
Fe 8.010655175745011 9.046603482848266 8.120584280048709
Fe 7.825949506530032 12.536245552730733 12.13142189686797
Fe 7.899479883598346 10.292215354167457 13.093859119310487
Fe 6.179528435045793 12.28432862643517 10.028478774044693
Fe 6.022198252559617 9.750045703562822 9.423264091315824
Fe 6.5162492420513995 8.937281006142717 11.71477846211635
Fe 5.7593855683106625 11.154656021370702 12.075349892272127
