45
Energy = -313.98231862 eV
Fe 13.405841758780852 9.298022502001302 9.896302439615532
Fe 11.264633802967232 12.929623702380676 8.786812605004753
Fe 7.190284826266805 12.043298048803196 9.861568795774172
Fe 13.164534165027462 15.69527169424317 11.1518518062307
Fe 13.526098302444968 11.563324371209836 13.828200478972361
Fe 9.43373429106437 9.281053149597764 9.975658961926529
Fe 7.299335461402021 9.980490601823208 10.965175922867571
Fe 9.28911293799393 15.634919668664232 11.379910939636085
Fe 11.40083952293192 8.500492449651267 8.75495757506838
Fe 11.166460518364476 14.857375533467863 10.156548704450387
Fe 9.319786571892 13.627978627823108 12.634316184427842
Fe 13.28723715447547 9.256358132956654 7.560463260338019
Fe 11.487881039570478 10.738730396760753 15.278355182723228
Fe 11.32106993522477 12.722855173858369 11.303553669704389
Fe 9.319839149421885 9.025644825712739 12.46350583658484
Fe 9.408450228806428 11.331518062371497 8.945467671591773
Fe 7.289090989735348 14.379833916277754 11.145317789317943
Fe 11.4007066250067 12.722264997109615 13.633247445111575
Fe 15.499443483104642 10.11526329447115 10.764798351205421
Fe 13.343452166285065 13.518891491306938 10.142168309566932
Fe 15.380882863007278 12.382362576508745 12.030555107977458
Fe 11.407621367213949 10.40557596739105 12.854179309964232
Fe 9.328591845083286 11.206959390098152 11.480191908375247
Fe 13.353373148394574 11.301019229507387 11.412183596885157
Fe 11.346165725526673 15.071353901976378 12.623281434475027
Fe 11.414257063389107 8.639508513122372 11.265655364605987
Fe 9.174370146435422 13.404490849323818 10.225551788081084
Fe 7.339653491360283 12.30879721669866 12.240578296862717
Fe 13.422268939551872 9.363047197115701 14.710958923402515
Fe 13.386826178558112 13.712578118969015 12.546703319270454
Fe 11.35030803268094 10.683083373969726 10.077336395180149
Fe 13.581366462119364 9.06088491601102 12.336913384535451
Fe 15.25927000053096 14.51949591823712 11.01460574014549
Fe 11.311923955649434 10.630279080979573 7.670628183511552
Fe 13.192029916347439 11.472692753794828 8.886102968151102
Fe 9.306760995415658 11.501704152645578 13.910804323954055
Fe 9.447302843098882 9.185689279909532 7.555426320066648
Fe 7.461946722245637 10.034029510720048 8.571239806606243
Fe 15.222692175487001 10.28266431118718 8.378885533701858
Fe 15.39170822058759 12.276770685685754 9.666047603697669
Fe 11.509328783984227 8.189604782145468 13.765512683200159
Fe 15.375011651189189 10.26965997627806 13.189926128313576
Fe 7.505659920933443 10.149665124302059 13.392277123332248
Fe 9.598489904012732 9.328529398620132 14.807675910473186
Fe 11.592664172462147 8.540452940526594 16.0474056954935
