45
Energy = -312.66857945 eV
Fe 10.711395852656487 7.701300322424224 11.516807487327803
Fe 13.073080177098891 7.949241717694097 8.629715459395925
Fe 10.77941111430727 8.108097677119419 9.207519095203859
Fe 13.175407181073412 7.9357960242283045 11.054096951931179
Fe 8.608785424991737 7.327542794554277 11.956555520813462
Fe 13.782654360518356 9.850631388904633 7.521193146349738
Fe 8.574186251594808 8.755412618724604 10.033911793525455
Fe 11.486943076890036 9.635828901235392 7.461254463170908
Fe 11.95080346877276 9.370177712529557 12.679214199187102
Fe 9.83730319975349 10.450690488227092 9.044911327139339
Fe 14.635784204447038 9.603986489525607 9.804297969495535
Fe 12.229386655728032 9.848807094583766 10.045123050266504
Fe 7.827968302993535 9.608846824822264 12.227774810610267
Fe 14.09748781051189 10.050048964641812 12.051733542858203
Fe 9.596561143720498 8.897034795773518 13.56313076609917
Fe 12.518217807322026 11.778821822052755 8.268550510508692
Fe 7.756214154248024 11.05460411356057 10.371096386566103
Fe 14.998493747434821 11.639598547395744 8.54051150544951
Fe 10.38538765449812 12.0240943007966 7.39988315343394
Fe 10.196227472792906 9.988239502275395 11.423570997137741
Fe 8.974606552471618 12.784495312906762 9.329320495009403
Fe 13.692780945039932 11.904767937940674 10.532965911681785
Fe 15.927975643660554 11.479064834296388 11.194499092570226
Fe 14.405474270408144 12.162875892708556 12.967980470953764
Fe 13.23925434409418 10.591695144433446 14.271709715987233
Fe 8.172281455121903 10.87118010114738 14.168614145394994
Fe 6.718790041398256 11.893592485056827 12.57628816568933
Fe 15.855684911676917 13.370111977659727 9.77647603476711
Fe 10.591485587943946 10.963531528186175 13.904448264864888
Fe 11.117498499598174 13.911945843899069 8.835156206592393
Fe 13.562333395731812 13.838855899087749 9.14650124973584
Fe 7.358965207735072 13.498695529528717 10.986486183040496
Fe 9.280676727314201 12.073487512340662 12.04547190233961
Fe 12.149557357916509 11.853833693775577 12.405790517417207
Fe 14.588977623293726 13.961102989354664 11.554709382234774
Fe 11.125390134797685 12.10068992922383 10.22653395542534
Fe 14.335209690006163 12.760255760613036 15.049431931811174
Fe 12.158860542404833 13.933875163743894 11.22912128172371
Fe 8.101196309956624 13.723421756119851 13.310105260895037
Fe 11.99689729658206 12.548138009988554 14.904625406933349
Fe 9.391800774838178 12.681586113947581 15.01871705267634
Fe 9.690677510666248 14.267835305055415 11.104783634736643
Fe 12.977655266538768 14.07599078439907 13.467716567200737
Fe 10.633600332384704 13.667903707361507 13.238939767270814
Fe 6.800336896367352 12.571931065456928 15.02242164588008
