43
Energy = -299.76498652 eV
Fe 13.103947548358056 12.297407345763796 14.51435344473583
Fe 12.978917325585305 10.468187772571136 12.944853048757277
Fe 11.620722743176051 14.129184239783248 13.812121504941695
Fe 13.058290060272721 12.843847353267464 12.283511601428343
Fe 10.89107820797175 11.885292022933966 13.785294010898912
Fe 13.774249444698949 10.949869823914627 10.550821553944262
Fe 14.387955926887074 8.782540484776343 11.69446600187384
Fe 13.515159662792025 8.917594029242332 9.121100423112608
Fe 10.676852723025387 9.645984013467936 12.861672835308221
Fe 12.431899544629058 7.974239908742919 13.020256412598469
Fe 14.983103305984823 7.3648558204733545 9.96909861838187
Fe 9.11998635853228 11.505712243653083 12.097979345790826
Fe 9.157596138881017 13.81159749546264 13.304044220072544
Fe 12.880903217441476 6.937562807770389 10.814641067302311
Fe 10.757067696976872 13.5933905191259 11.618644947467596
Fe 9.836413132272854 7.619316801077705 13.726343653306268
Fe 12.077200892285658 9.247561838628412 10.961784589667545
Fe 12.460460174379591 12.879104661978008 9.764998210785105
Fe 8.220289244563025 11.989860225380392 14.385575723740319
Fe 13.72258472105571 11.325616720678365 8.166604035847534
Fe 11.38667000556064 11.394554437806516 11.242590592292139
Fe 11.625003964919816 10.519078296409234 8.947915838014438
Fe 10.466765815317846 7.5580887625608115 11.5063305318906
Fe 9.83070846882118 12.271113898152855 9.516955708385824
Fe 9.613673188777843 9.862695003099999 10.227062880624684
Fe 8.386588841432015 8.780739664743246 11.99050655557318
Fe 11.90140214199649 8.753224728650965 7.180866379407737
Fe 8.433221837138813 13.781248921628446 10.958396098013358
Fe 11.64292063353562 12.651596659007726 7.500899784671064
Fe 11.165674949567933 7.893312466204723 9.236126195054448
Fe 8.668255524303815 9.795915692827254 14.145010471659237
Fe 12.51812480764664 10.81334429306433 6.19360014736527
Fe 9.324039335457725 8.743350986365824 8.054862726881536
Fe 6.95735984909152 12.851846161760122 12.594959399129356
Fe 7.634419918398524 13.161881321406653 8.772315530447818
Fe 8.75605692334381 7.377428159879069 9.925848462849943
Fe 6.823147192865002 10.476371189326496 12.671733287365365
Fe 7.2937813551949855 9.246132175019904 9.868892935409676
Fe 7.382631606609313 11.553092653675481 10.514069647941687
Fe 9.216226649656402 12.75148673363623 7.042197641138117
Fe 10.281833936985011 10.622981078539325 7.124277767628913
Fe 10.699613753104256 12.044459286439725 5.3534579215169655
Fe 8.117706175362047 10.88409305397762 8.227974147991816
