46
Energy = -323.46931651 eV
Fe 11.70191776428422 9.893774118732601 8.632458634058146
Fe 9.651391526023968 9.60270208202186 7.461050744984818
Fe 8.089301609006785 7.467805092733859 8.571371354247871
Fe 13.143911088338193 10.068202338854293 10.581132869964101
Fe 10.68606853269844 7.565348026696373 8.231700352038194
Fe 11.353334083220984 6.082367523650412 6.401153501369705
Fe 7.794539117157055 8.845089102945305 13.256598200234947
Fe 9.545700901276101 12.246792796039628 11.58870387817467
Fe 8.365674603056744 9.95970362122898 11.3365319004944
Fe 12.222983502832736 9.113363239876225 12.633382220681897
Fe 9.87653190459025 6.316368502425816 10.157056536777958
Fe 8.013623449917747 7.401891738097795 11.133370314597975
Fe 5.304624105711832 10.712935330149989 9.417119335781686
Fe 5.73491521041561 10.593349051721162 6.993475294348288
Fe 6.883681558287927 12.350779477811717 8.293290085913682
Fe 9.549357150449522 8.797541058627134 9.777499498665051
Fe 10.007917080707724 10.26302699602267 13.339615444203549
Fe 9.400272954279266 9.641954213100465 5.107300064072918
Fe 10.049868913930755 8.116691991817591 12.161406763515233
Fe 11.894677993173953 7.892905486306243 10.406935149612355
Fe 11.521841932646304 8.639238491906516 6.224259058083046
Fe 11.814910677459622 5.650173724353819 8.869622540361092
Fe 6.946504682709772 6.422914440490792 6.762594307086006
Fe 6.83387399679859 10.177262467279283 4.836643261908015
Fe 11.810595217465618 11.642040055001111 12.481418946970535
Fe 10.419862256665333 7.228992265722409 4.4398079372754475
Fe 9.261501591825853 7.4550519422619095 6.369542665594667
Fe 5.982477063083 10.081703097172625 11.931476700375045
Fe 7.830659032908995 7.790499634375305 4.408442024794996
Fe 6.432739134286789 5.98777677217831 4.525590286198733
Fe 8.732751269795047 5.509095582915291 5.235910327416649
Fe 9.353811316327985 5.438793510530304 7.821176416262166
Fe 7.872915369176098 11.38891986131708 13.112194864350617
Fe 7.525764126828207 10.011975817946183 8.82393028840081
Fe 12.98366917924273 7.806519437601806 8.130533556887286
Fe 5.559120712293244 8.131740432914334 5.474037307989756
Fe 7.483894944623476 8.95639560640578 6.6243369195578214
Fe 9.45590278528279 11.382893201907931 9.215500241921069
Fe 10.809171285118744 10.199740083389958 10.987593246504467
Fe 6.198575665410441 6.508589369836013 9.558166922243428
Fe 8.241503337302785 11.33154594147276 6.701454685553687
Fe 5.98347555392038 7.561971810566965 12.22878210952286
Fe 7.251708428627418 11.823396961508399 10.606379405764232
Fe 5.566388271295636 8.339715140943495 8.003780236424832
Fe 6.253732429048951 8.651938644766313 10.242066402638255
Fe 11.737413037968828 12.083580263848392 10.03866354365138
