44
Energy = -304.59901076 eV
Fe 14.239240179912457 9.543872114170343 9.75022288867799
Fe 11.703505322166569 7.080897989720576 8.427285757901956
Fe 12.636812950913864 7.725289718118658 10.44331804558925
Fe 12.783500400722179 9.405269051123392 7.906432023395001
Fe 15.44323029855215 11.001816786091949 11.037543713854767
Fe 9.412274332920587 6.495168224451823 9.139015507119852
Fe 13.910604898169701 9.200668897960146 12.059936455890108
Fe 10.18935309110789 8.106361757290161 10.482979267822632
Fe 13.324016376996124 11.784515415501954 9.354639615337506
Fe 11.739638956060984 8.246018454896573 12.4855140371751
Fe 10.511995736469558 8.904778629788165 8.136572017265461
Fe 11.799402037605294 9.86225551379789 10.063071714091794
Fe 14.666643822163968 11.33220477999023 13.245674115436872
Fe 11.269416396163443 11.25070199107874 8.088765248392445
Fe 14.698344252633165 13.145833878166282 11.130894232842579
Fe 7.859269114390405 7.7064759169001 10.71836342139948
Fe 12.299012469970473 10.221419391888466 13.706481732210303
Fe 8.248270705240365 8.419641439818715 8.502074885321901
Fe 9.442447815962819 7.666050847986191 12.712522479051199
Fe 12.946102543386635 11.335480779689714 11.646636246881684
Fe 10.106500518270364 9.392979242976985 14.223795597030964
Fe 9.156818618782719 10.306125707684801 9.685427973095663
Fe 9.008710538595377 10.56490818221735 7.184330559814072
Fe 9.409545826915405 12.640427960067976 8.37638565344443
Fe 11.787442059859 13.653237394750073 8.656281657366181
Fe 13.552466325800856 13.42430175071588 13.26354696530497
Fe 13.164418003149809 11.932418867274368 15.141919170591128
Fe 6.818552932434888 10.14910271639165 7.879116793630676
Fe 12.430558278068467 13.649459037235554 11.072228894775298
Fe 8.267725583852021 9.592043238337792 12.196342996837506
Fe 6.875441376106129 9.926683420932807 10.229131800189208
Fe 10.872466526439574 11.433564932257264 15.392080013191968
Fe 11.323496937715293 12.372931724122248 13.148192666225496
Fe 10.712534126457347 12.215609311946256 10.409725010009131
Fe 7.317689004346168 12.020025193652424 9.089516685031288
Fe 10.471412291821297 10.29879048069306 11.992743314016487
Fe 9.80953782949039 14.93433578343318 8.394832838094784
Fe 8.42771452893394 11.891871494457204 11.36302627818409
Fe 11.670152380772825 13.714607218303883 15.015861642360063
Fe 10.68742557764675 15.158164681458743 10.530660155137667
Fe 11.664327223563825 14.931098578116412 12.966745997824697
Fe 9.181431167184273 11.484642669218431 13.669572039993808
Fe 8.542984393248549 14.021129074721625 10.107077695958461
Fe 9.745939510504991 13.760486173183793 12.195668855929794
