40
Energy = -276.25974717 eV
Fe 15.50993991411661 12.47668640982337 9.764455837811155
Fe 13.170685597299848 12.654844289026281 8.97932683781271
Fe 11.988435451761804 14.672723939545557 10.447822515275897
Fe 14.100481088524564 14.753902222640162 9.32124817462018
Fe 11.241748060493487 12.337697681524423 10.347889074897882
Fe 15.33536368049632 12.130449534828353 12.495983745520562
Fe 13.603852618320618 11.15885263687369 10.750651544999705
Fe 13.710493389587924 13.449756415635939 11.365658771932793
Fe 14.151219720980166 15.994531363815815 11.511579609812705
Fe 9.35620879835713 11.773102322958575 12.171750024675395
Fe 15.976365065673907 10.57011910798806 11.024055041447932
Fe 17.396340173679867 12.866189019223173 11.923623619396075
Fe 15.962055519064059 14.404618920677692 10.832596942976485
Fe 9.556266040588282 14.07370437338386 11.298309806173293
Fe 11.505540645228555 10.532545643761084 12.058632100327072
Fe 7.708498159406841 13.454257095498289 12.415476304590577
Fe 15.695368275946121 14.628477899546697 13.126748844936753
Fe 11.354956597472606 13.171609378241001 12.46072411606478
Fe 13.051034577622445 11.828859592517382 13.256930228243972
Fe 17.90726121092869 14.305642820704694 13.78730484804273
Fe 9.472555565410198 13.476621903495552 14.001949735932351
Fe 14.35919266886954 13.293211584889148 14.535681287289995
Fe 10.685980248791038 15.487785881406465 13.251270695448213
Fe 10.793515929535031 11.472907234126293 14.320184630451708
Fe 16.790169804911912 12.419734638678996 14.381329730961928
Fe 13.061759484543723 14.800243181031254 13.078658613305901
Fe 11.866596635876656 13.7643806292086 14.79631800647625
Fe 12.559940446557155 9.773624432341139 14.458606211355114
Fe 14.161753906030334 9.782820135582424 12.555449545846143
Fe 12.652102359509643 16.957252046418265 13.406798804323524
Fe 14.439652502819207 15.895414270157518 14.791580896828185
Fe 9.963610920027637 15.03525205751894 15.62218505829771
Fe 12.127081654557374 15.988549731592872 15.466987300871851
Fe 14.88770099613763 10.767657096912329 14.630651376973312
Fe 11.064229100178775 10.416449097468544 16.3938911656228
Fe 12.972259184908046 11.76537924943543 15.894716830478202
Fe 16.205371616944138 14.4225646288029 15.593934891501828
Fe 15.343175443915872 12.327599329644315 16.51049085212662
Fe 13.67084685805052 14.22817859205928 16.517328959425583
Fe 10.7266946616998 12.772108185841256 16.537521991747198
