48
Energy = -338.16500974 eV
Fe 10.136403720440097 11.59919396323545 11.012678678976366
Fe 7.4319544858928595 9.382779626413345 8.840058949583256
Fe 13.401673181795164 9.951855750366597 7.4147547030161345
Fe 7.758032816926293 11.591927057674457 10.209523940435364
Fe 9.586628751412404 7.271488441928302 11.235898423387363
Fe 5.3748252120790605 12.356330580986308 7.147414242265697
Fe 13.588332264504727 11.589853354646076 9.214704214596175
Fe 9.660194574092957 7.399016498969004 13.790130256505957
Fe 8.128750873551537 6.981681794142321 8.646690018805874
Fe 9.300545663342088 13.174833399476267 8.563301950895184
Fe 7.178484793119191 7.514318536091942 10.69599514962678
Fe 8.735500751247118 5.262573047807853 10.442027760921597
Fe 7.757990383907477 6.098592678361023 12.558685765572125
Fe 6.553000539728941 13.403759176856939 9.15999173401987
Fe 8.568353139224854 9.504935378422516 6.683707435169465
Fe 11.02492879089321 9.786067152519395 6.722121717999792
Fe 14.500601950722466 7.517773236625415 7.994182695488575
Fe 12.211327876637919 8.027332908888754 8.110983194456896
Fe 6.387297406589645 9.845348995213133 11.158085036439964
Fe 11.680796213666982 8.28225089012607 10.674989637358776
Fe 5.981637463187507 9.847841245136054 6.987188737656488
Fe 10.602269863386509 6.283482084831399 9.045842453042603
Fe 8.11536679776419 15.120482557545499 8.864002602960467
Fe 8.365751006498659 10.978995099122448 12.56714948287916
Fe 7.9142153275280815 8.59421830235127 12.768494683030937
Fe 9.912936715384213 5.237824014384252 12.738756442827155
Fe 5.373353089563895 8.561753218520042 9.328647098874
Fe 12.62193307569687 5.799629594176919 7.897483618576635
Fe 11.50474219411632 12.826200456984369 9.63680477180178
Fe 13.790237551281871 9.160881106829468 9.701715944321842
Fe 10.51436081055231 9.424075586322408 12.536206211241026
Fe 11.447317038142344 5.375083820080592 10.959241456651986
Fe 11.717747444120743 7.024309309445194 12.668597736810774
Fe 9.592061927573809 10.876940853795428 8.563305629905468
Fe 10.363901361194069 7.355076090948123 6.756099781707637
Fe 7.539825353003683 13.740768884368999 6.867406597892374
Fe 9.874057265758221 8.506113843336204 8.703511976580874
Fe 9.471069631537125 11.839635091066484 6.364216920876708
Fe 7.519854955945917 11.584208056654285 7.797377421936312
Fe 5.482750814546819 11.055950671358515 9.186898054911628
Fe 8.699327009808393 13.684592730135323 10.774354938181785
Fe 9.15078707090837 9.745822537007898 14.441322659414702
Fe 11.750500976151168 11.927197890160384 7.476586847312544
Fe 13.261785904841952 6.685707736659549 10.033128515193953
Fe 8.966478546163382 9.51351471622458 10.662355610395071
Fe 7.131797034145198 11.457189059390208 5.55456197020438
Fe 12.461979343842406 10.80803506572986 11.309985046224023
Fe 11.634670406010313 10.170897277110404 9.26117065149528
