42
Energy = -293.64336121 eV
Fe 6.499598957271178 6.918912455106853 11.06406129782147
Fe 6.6542670047692525 9.240539094852824 12.003365094632432
Fe 8.043000142519487 7.404523309377269 12.864912706007594
Fe 6.22261967653321 8.86031917154716 9.645103983193874
Fe 7.347414684615383 6.775744351805711 8.83863119705402
Fe 8.843588103077774 5.832075417485363 11.019985926729715
Fe 5.87510627792376 11.166029067998522 10.632423691760923
Fe 7.559065211873452 11.82099977775039 12.246551544516308
Fe 8.675024284637564 8.031053989499176 10.639369760544259
Fe 8.220634873620147 8.949737311067402 8.340428895763322
Fe 8.919800092211185 9.806971396833173 12.582860765341549
Fe 9.683080886193748 6.4378687180295575 8.684677152814558
Fe 10.333816801987536 7.900483149785969 12.825891935991114
Fe 9.033800319411798 7.702029340607986 6.645513078236479
Fe 9.429482563089536 10.98001673958168 8.673376239903913
Fe 10.60025698998225 8.56192743015499 8.766088417766648
Fe 8.140658204754022 10.295320779187636 10.425311694987277
Fe 7.928500631610168 12.684507755871222 10.06929328550047
Fe 11.056041047436299 6.972175189765301 10.753460190966136
Fe 6.833861213538402 11.08665175422708 8.461756836998203
Fe 10.120127193362258 11.603096289217062 11.117125481622319
Fe 9.558511937805568 12.02713405351398 13.437686565726786
Fe 11.27455583122393 10.324222799596905 13.167660478172847
Fe 12.578468481832559 8.439810702153933 12.171542615012823
Fe 12.192924249880368 6.566542318159595 8.724673043768574
Fe 11.26070834837956 7.214857601376594 6.690353321121163
Fe 8.500157819860382 10.625826165077275 6.5739948220634545
Fe 8.246043561385473 12.881642956532167 7.7003143354919255
Fe 10.181130901524387 13.241678149888843 9.170961113683926
Fe 10.710487879727285 9.37622001189428 10.951314424500316
Fe 11.69191491342799 10.890180228749132 8.996745483432735
Fe 10.678289131022783 9.665241312641875 6.716535075070452
Fe 9.723635124079909 13.750911015075443 11.555410191244778
Fe 12.84648887710675 8.662650214714441 9.846467052220731
Fe 11.777714479321318 12.64724769070485 12.726991113199382
Fe 10.5358648146295 12.172497083263742 6.872164817263627
Fe 12.716868964799989 10.794875459220677 11.262008348124153
Fe 12.843851321101727 8.79859242412349 7.574292529583886
Fe 12.305348594428704 12.988366624461662 7.996145732369506
Fe 13.941339191783124 10.645189052098187 9.037561461686813
Fe 12.151573853168522 12.950146541824555 10.444212820508112
Fe 12.767436364354799 10.95439894613598 6.811025406439401
