45
Energy = -316.63786071 eV
Fe 12.730760839357414 11.993190659804558 6.249722448642826
Fe 13.793001738213661 12.744142020000893 8.375219225755414
Fe 11.225026508007826 12.091296620605858 7.988266781977167
Fe 10.993975661038059 10.114858137969147 6.717420659875965
Fe 13.02915012276209 10.324579377050728 7.838292171730177
Fe 11.613565118656837 13.976694135740312 9.364356118837632
Fe 15.187921249667697 12.357970636688961 10.682039181531739
Fe 12.655226993696164 11.630540152144608 10.063726292709458
Fe 10.804179895379269 9.976253431813113 9.197741404940986
Fe 9.4192493284879 13.586525533547682 8.530156995659238
Fe 11.899820467580495 15.64688772275317 11.114124536983427
Fe 15.163639590186243 13.871952150204981 12.771577079436911
Fe 14.924203478561314 10.60092365581772 9.182814797590405
Fe 13.04499715880611 9.056231434624207 9.887354960703217
Fe 14.33140216347129 10.134937675339884 11.483449627032948
Fe 10.082330093280396 12.00819194293441 10.169692540411598
Fe 9.624817411947625 14.42953672633284 10.80609807548769
Fe 11.776688122849038 8.152335426130518 8.04838029155687
Fe 10.48362095488495 15.68484462327402 12.920249195096028
Fe 13.361851819641252 12.114689620986017 12.374222892573904
Fe 13.550697692962215 13.994504556771156 10.786778511611296
Fe 9.328610793942106 9.714091977148556 11.232252206509655
Fe 11.013213485765576 7.953549283998881 10.455394565447872
Fe 14.46003182251662 14.779716671178047 14.989881740656894
Fe 11.321834113940563 13.20719432336915 11.826479821889595
Fe 12.794202026329828 14.331592883785342 13.267271364556649
Fe 9.40472105591679 11.983851745142944 12.496460544152109
Fe 14.17435969585968 12.466630760333699 14.56224986754131
Fe 11.532007986938046 10.357178995843837 11.863053532995272
Fe 15.703620308557602 11.489287672841456 12.978342260729296
Fe 12.210813778733122 15.91176554224676 14.829153035120697
Fe 8.594438372416029 14.124985645588692 13.01403547531046
Fe 13.72660496128041 10.246272229251566 13.772158466451922
Fe 12.902221934718328 8.291349523730906 12.261429029820405
Fe 10.500785896652637 13.85493622835718 14.326573737147212
Fe 9.579525302334455 9.906805522630501 13.686368321470583
Fe 10.605980198062023 7.998783825727899 12.747892310429757
Fe 12.689370361309692 11.068339080016678 16.02171418734933
Fe 11.55041191617271 11.723086859300258 14.054094779283071
Fe 12.542447869394918 13.664675950708972 15.817850042315838
Fe 8.97013169452821 12.028191192471208 14.812385754763515
Fe 11.798994701311386 9.15904672597284 14.415299431872084
Fe 10.604668388071506 15.036863135288673 16.30604304422848
Fe 10.597111777369596 12.591931717018992 16.48802900183972
Fe 10.380986275420355 10.302007394490843 15.907124814953036
