45
Energy = -316.55257163 eV
Fe 11.829413708160113 11.033457018341613 9.921642916419364
Fe 12.80579690515496 11.77486098622748 7.594889990144647
Fe 8.287713336940332 12.011204646646515 13.512133953353894
Fe 12.409273516250693 11.741299243332627 13.356865205014394
Fe 13.323603879484443 7.318555406894081 12.051676055036863
Fe 9.09303483947559 7.117588717191987 8.92829958711632
Fe 13.612327975631096 11.048941055291126 11.414998567921561
Fe 11.159038745745958 13.185654364901891 8.779468972655359
Fe 9.04542934009971 13.447041868113251 11.831848992015837
Fe 6.949187568412693 11.669065504026067 9.19117953892726
Fe 8.114628648143572 9.523736425510904 8.975849515597085
Fe 10.40092954577047 10.986411318433701 7.975428038350814
Fe 9.3123383904621 11.94930114405662 9.93998872690399
Fe 11.282922242468858 6.812851003121478 13.252968349754552
Fe 10.73309650558454 12.803159589743155 6.546352613887936
Fe 12.02543238118596 9.342723014227525 12.441138619386415
Fe 13.585515696394019 12.86730143044513 9.727978933981042
Fe 8.815835464635565 13.30232572078268 8.042817428981946
Fe 10.498295026707792 13.073334216820685 13.755393177689347
Fe 8.263446735875892 11.1388032560592 7.236429467620021
Fe 9.728072008065604 8.651245287982745 12.541119867315842
Fe 12.521488413847324 10.001790717049051 15.028353086027494
Fe 8.118510236522523 9.72427046293874 13.705589132100345
Fe 14.274925269494483 9.776865090803568 13.404573667793388
Fe 7.530585158149849 13.946966296063453 9.90518639137235
Fe 10.883132510170258 7.195780079035219 10.92790564517614
Fe 12.958918884429952 14.167168236041851 7.844043259762203
Fe 10.311942767053546 10.676035010855363 14.333026475996132
Fe 11.54136903787732 12.971287940658929 11.311460947890094
Fe 12.254304997255206 9.433029887315843 7.862043818126765
Fe 6.871266911675303 12.34531697179141 11.482699582726768
Fe 9.880903293773526 8.828808019092772 7.420065292224789
Fe 13.099469446034083 7.859892614378978 14.360548442531556
Fe 11.450155611303389 7.413237137287215 8.59984328105108
Fe 8.00898819673395 10.275040747349234 11.305851542393013
Fe 10.231020503951864 9.28522156340945 10.027035999783292
Fe 12.306885920511808 14.929059399074609 10.098570875996138
Fe 9.869478190967257 14.701275297914357 10.012107495624727
Fe 10.642521437731796 8.434710514701765 14.750306552197655
Fe 10.816697367559119 15.011544157424664 12.211538579966849
Fe 10.199113534740498 11.05569733756896 12.039978540522451
Fe 8.264841351445918 7.969730734388783 10.941365247248715
Fe 14.80688516437185 9.027611718602243 11.200744891976187
Fe 14.19118826361963 10.50211078860374 9.12204981436687
Fe 12.74496816754103 8.723581156912404 10.141536016484133
