47
Energy = -321.97607728 eV
Fe 7.673326695830047 10.206301240527914 8.228659897889456
Fe 11.766387213840291 10.232596261598161 8.548534503703182
Fe 10.702750066701357 6.372695890963295 8.815363025477131
Fe 10.048402184963335 9.873381587569456 4.929922771260042
Fe 6.017941600126484 9.598928453623241 6.353153201108691
Fe 9.429871471171575 7.3129570656084 4.854472685202326
Fe 9.934403871817983 10.67108879509564 7.089823470826324
Fe 10.848052735172756 8.390194273834055 6.688465705217409
Fe 11.68596892526459 8.206231725297938 12.463802460636582
Fe 9.40477863588189 5.258428946846696 10.807049652403885
Fe 10.818420892153883 5.750481330302974 6.405959406325216
Fe 9.418187661488314 12.963219166373877 12.85296450918034
Fe 8.355895317521137 8.993266504910887 6.232250855962527
Fe 9.325790909575774 8.949765587771305 12.89373764495997
Fe 6.0567861460951375 8.769850436092147 10.277204017516876
Fe 8.2673192416214 9.17502596072211 10.54096853238996
Fe 6.775325464191577 5.662642918715249 7.7280083343739845
Fe 8.877218812227543 6.958170618232319 7.3145479103249285
Fe 11.074235872274318 12.25493650122035 10.849582410144741
Fe 6.901897425334158 11.342931374169986 10.13924841148224
Fe 9.881665138108268 12.655334627787814 6.103755583466677
Fe 6.161141079811208 11.857615122810175 7.503884076977988
Fe 8.4646465886203 5.220317192426781 5.761426808418458
Fe 8.971501627698993 4.764492439214587 8.19658957460343
Fe 7.851446737331797 11.28529224497998 5.825298524887956
Fe 6.9404336822824 9.898638655767826 12.466898764474173
Fe 8.057640545353616 6.757557527374081 9.606271983249561
Fe 12.165102765323855 8.119241862926604 9.713600955569126
Fe 9.999304721927633 7.589917142060935 10.85232837709197
Fe 12.613828954950845 7.169938474463945 7.4595607427219495
Fe 6.958898131046662 7.09206849716074 5.7429605112694055
Fe 6.7155164617784795 8.031837798688153 8.057353275697292
Fe 8.627839339880257 13.126417654696034 10.43456214130102
Fe 9.519061677786164 11.183444046633134 9.430664013215468
Fe 7.82708600848939 7.190783064656337 12.017685123294683
Fe 11.778082521532175 7.312351527334032 4.927538526811511
Fe 9.981888721883289 6.473318356705672 12.962238058625088
Fe 9.719995182941883 8.77191499472052 8.736985880617498
Fe 10.792769062414033 10.823340924462396 13.159086169925287
Fe 7.053261684258255 12.377822405748345 12.391877678938446
Fe 5.135768074832296 10.032782848440524 8.564854193941411
Fe 8.961428608869854 11.106363505589611 11.688688810848252
Fe 8.406112165415628 12.563719939797167 7.999132392543863
Fe 10.927217703826903 12.599470371642932 8.299447157166266
Fe 11.751632205928955 6.097486988137748 11.101151511390333
Fe 8.369137342341677 11.054385401553287 14.015469112256362
Fe 10.915766646775314 9.832186269408691 10.898105168974203
