40
Energy = -276.63054699 eV
Fe 11.710344448325268 8.837430184841295 6.00928326941337
Fe 12.143570420280037 11.295150540743105 6.911076418941303
Fe 10.081103668743093 10.363210742378376 5.863373728526326
Fe 13.399259838709433 9.342572381055161 7.493332183020507
Fe 9.767868093988644 12.20537984965381 7.204208353637634
Fe 13.29446110247324 13.051199517715872 8.828048682315709
Fe 13.096331060136635 10.740394844330815 9.327787056803427
Fe 11.8453491862091 7.29978065114631 7.7722419523910435
Fe 9.66634895891641 8.053149311704681 7.225911458095714
Fe 10.936786072661043 9.716454987099766 8.348261452092226
Fe 8.303672621520187 10.096807789297952 7.405962300781073
Fe 9.335556512042006 13.668416941526996 9.27587558012487
Fe 12.82719286299359 8.40394081577511 9.703759804964264
Fe 7.485366279133164 12.327517377209311 8.168881143785582
Fe 11.264673050164534 12.145446105183172 9.067172252875991
Fe 12.689551572734489 12.317355966705923 11.12668877943731
Fe 11.440564857375527 14.179873717897198 10.408193107104626
Fe 9.189916029743287 11.186402873774478 9.34294643051696
Fe 10.58826826127032 7.466740906675148 9.739304865751327
Fe 8.721132073020822 8.884370204991498 9.481020989485756
Fe 10.081503442036325 6.0679392503503315 11.76668596915803
Fe 13.22473633008231 9.819499235543823 11.699506096124678
Fe 11.955437078925137 7.517964434550033 11.801862757855764
Fe 10.107061625639547 12.172900076117527 11.337662402913768
Fe 8.30722502820494 6.694893018526681 10.26816329250777
Fe 9.500366132250967 8.34937557313681 11.801985777360644
Fe 6.831240898420114 10.489944717647854 9.577564240725964
Fe 7.607579015757843 12.668430560936905 10.690098187579217
Fe 9.12637278571579 14.38063450865221 11.513940549528439
Fe 11.69466765600865 9.05687228351644 13.428808739377127
Fe 11.031334200779437 13.73199920863766 12.772602982560274
Fe 11.819632519532776 11.467281626748838 13.082527409886834
Fe 11.017534223432833 9.97777266126407 10.811729608462283
Fe 9.821429066284084 7.629928874666857 13.925568753551966
Fe 7.855760091902927 6.627425421501946 12.736584209904011
Fe 8.512178984388598 12.466276848485002 13.063041003399269
Fe 8.284342098119426 10.510634208135889 11.501798668644334
Fe 7.032759306212376 8.484624848744716 11.278026979266304
Fe 9.759951122390119 10.374705027703335 13.351901579253488
Fe 7.8272446463904926 9.03656322904375 13.458201003872084
