42
Energy = -293.02532172 eV
Fe 12.9685550639543 6.373242147391262 9.851365495290183
Fe 12.261831643026259 7.902418558911638 8.225322899580892
Fe 11.54992500484704 9.880788656964343 6.728314660321619
Fe 10.982219697174775 7.424183889357441 10.376144823429147
Fe 11.659658320585002 12.262938806068576 6.976408890903607
Fe 13.66974666401196 8.522989192665907 10.212759478476917
Fe 10.275327995078122 9.145400584253801 8.719638672757586
Fe 13.035659287971361 10.170539821123178 8.401137429586605
Fe 12.561894622107166 7.409855082882745 12.112909818634968
Fe 8.634879332000503 10.901932553476675 9.211687175132747
Fe 9.466635307766843 10.804146917770662 7.002156528011784
Fe 9.034141370239906 9.007480381892734 10.75425260521841
Fe 11.650341669674917 9.737614249216177 10.734810034504804
Fe 9.381669060805944 12.981000828716361 7.778572304440405
Fe 11.06623086794977 11.432658059166497 9.0618991930828
Fe 10.534857141630276 8.716090186569883 12.662596618543237
Fe 13.298297947061457 9.622985738774544 12.620045277703609
Fe 13.716687066166413 10.99905427131754 10.582696930620331
Fe 13.350401547131963 12.658374262677901 8.847935496120739
Fe 7.226023126153531 10.477848605917117 11.162604696142948
Fe 12.204826109172116 8.551919630188788 14.393201817530542
Fe 10.019162670098037 9.673649109482648 15.03153318234775
Fe 11.341382200469123 10.946261609041555 13.247076336346202
Fe 9.78844013066298 11.164910983405495 11.454328046604724
Fe 11.99108985020172 9.73324371717185 16.339614992669826
Fe 14.461429399826114 13.267867869581481 10.840096108907078
Fe 11.420755835608054 13.971164376165419 8.824204684414253
Fe 11.91204223749096 12.566462687898369 11.109558758340278
Fe 13.289409699093012 10.924722834414514 14.809772419804183
Fe 13.756326797113461 12.109286653262922 12.740701390041895
Fe 9.538582201194984 13.19182293767835 10.099141212159196
Fe 8.481111130312707 10.009698664266136 13.14133362113967
Fe 7.3084617259930935 12.717170011645573 9.94849455826715
Fe 9.3983138599711 12.020976383931412 14.181988291129745
Fe 11.076586701451784 11.771868697011653 15.845536109115978
Fe 10.206672021531027 13.544754065052995 12.55113881872866
Fe 13.136026633936646 15.100512418089254 10.108546309277376
Fe 12.051003533251372 13.042128177240604 14.112301807234454
Fe 12.778335855742759 14.517229502590794 12.215116959235846
Fe 10.791600838980148 15.073772791915056 10.90128884437461
Fe 7.905187151616578 12.521049505452115 12.267889863872199
Fe 8.39668482693607 14.722622138253941 11.405905832365379
