44
Energy = -305.79276684 eV
Fe 13.281471279474696 9.08721446408538 9.912943255635088
Fe 11.12683803468267 12.571762845978359 8.707823722772524
Fe 7.007651989652547 11.979783935724003 10.133670725432795
Fe 12.979619490731496 15.3406903946424 11.205757201071057
Fe 13.128735957263215 11.230053803529724 13.539503548170392
Fe 9.183192745629208 8.835530810430233 10.002983612334987
Fe 7.095074524285924 9.595446935805787 11.448130679983201
Fe 8.99931231807012 15.33804078614156 11.043834537184242
Fe 11.308102237411715 8.323217177819709 8.659256828330863
Fe 11.031067648576805 14.72297610104805 9.97647432041598
Fe 9.204169841933634 13.217164597742446 12.3940996347394
Fe 13.177421858675753 9.17120788038273 7.444625213558006
Fe 11.223787475939858 10.42908709200995 14.818578013763299
Fe 11.077815311294993 12.560989883897497 11.194368981558933
Fe 9.261928349578714 8.89198744399076 12.414589437323068
Fe 9.083898333609815 11.23984952778242 8.672299097599186
Fe 7.1529183446118845 13.990955537483543 11.497622051068653
Fe 11.144127526788875 12.658336888459571 13.693449258248412
Fe 15.327033844923728 9.850744971203094 11.146604254341003
Fe 13.084849384820522 13.366578726713326 9.87795803315667
Fe 15.097447321222807 12.014500348970317 12.332853596845586
Fe 11.259275758479093 10.48916866774596 12.346073911933164
Fe 9.135523905402993 11.03270498316874 11.136139225621497
Fe 13.16139256382463 11.349762880202556 11.139977057082573
Fe 10.989385247500193 14.77261832428796 12.371815713463926
Fe 11.297095780110226 8.28569043555425 11.083694572566959
Fe 9.06659364092452 13.257286028998209 10.01463549555918
Fe 7.104379511151838 11.78792735864487 12.451058274123719
Fe 13.303058775904534 9.154761263438719 14.777925873411403
Fe 13.048240008533977 13.405080708380133 12.441374449830915
Fe 11.207594048668414 10.4655110153281 9.917433195002
Fe 13.229874194059226 9.223171588643325 12.309768890456498
Fe 15.065579843539002 13.877187637584168 11.196898402685497
Fe 11.157262817209755 10.438307007697029 7.448058414055594
Fe 13.143422674009598 11.21272323714767 8.713705446811588
Fe 9.218306233417882 11.161172743033198 13.651445592542306
Fe 9.240902534868312 9.069072402559051 7.652152475553698
Fe 7.2700028230327876 9.837338017545427 9.094444016181685
Fe 15.144468089878696 9.69743460828042 8.75772949507506
Fe 15.150220965107543 11.781066391993008 9.848108030676503
Fe 11.367738733103545 8.388898013081254 13.594513462759375
Fe 15.156356785599856 9.916214328524916 13.541087529826221
Fe 7.341242787170161 9.724646220011456 13.857885752805544
Fe 9.318111742844437 8.925835951296762 14.779035261188334
