40
Energy = -275.6475312 eV
Fe 15.168855855274144 11.37721755693715 8.398503377197947
Fe 12.951669214550863 11.686552740311237 9.323950870278656
Fe 14.763652704059355 13.35417133557844 9.575428481934688
Fe 12.464388489301811 13.947802120148815 8.95063517691444
Fe 10.704381940399522 10.949781754439273 10.043855748337801
Fe 14.45546279115774 15.701038956446716 9.32843419001004
Fe 12.558947386386556 9.355045918619362 9.785366582266763
Fe 10.917566874636423 15.54178878926915 12.233336721340093
Fe 8.944570112361955 9.783040338196 10.898467398173086
Fe 14.653122737212199 10.631276379268114 10.540031774573624
Fe 12.426521526208766 10.941571244359 11.774870891718436
Fe 13.516756526517213 8.697507271212764 11.75015387051962
Fe 10.988022905127666 9.149595493648766 11.889098656628788
Fe 13.823740974278884 12.822608659257716 11.57751132376365
Fe 10.305676029297224 13.695326678687621 13.309854171819516
Fe 11.37894423199448 13.105138977287968 11.14831303834377
Fe 12.767876200325023 15.114294742493085 10.856442910741398
Fe 14.91588201813554 15.05641290243853 11.768040336142942
Fe 16.124591737240067 12.424292031272152 11.362790809962009
Fe 13.710645683931256 17.269625422195222 10.841668308763387
Fe 9.342455252413682 11.861452350846431 11.988959741840869
Fe 15.090612648616037 13.152580191908186 13.56054620173547
Fe 13.10221620264618 16.433123237105157 12.944392365646886
Fe 10.923913951659367 11.140642063107087 13.644937258691039
Fe 12.671351236716857 14.067811953343252 13.221458199692488
Fe 10.657171356708302 8.651715156793804 14.268324817061433
Fe 14.788503034861916 10.673108918140114 12.904460905579104
Fe 12.817590980911202 9.489207295954797 13.820460304207657
Fe 8.886925418029419 9.8052662578991 13.304842564188332
Fe 13.13464932670534 11.970278510201256 14.038049708891059
Fe 11.874959725566015 15.41583910518458 14.978807460936022
Fe 11.341568324433972 12.952437359777125 15.25384485007711
Fe 9.550962581813813 10.252743505172752 15.596452158644157
Fe 14.595081728666871 15.405821261925075 14.394375646006862
Fe 14.369384566663738 10.679031276163526 15.332121750317896
Fe 13.656372815948115 13.593244754130032 15.609829342634388
Fe 11.917576693854304 10.60534922434598 15.7267158642708
Fe 8.969063839614927 12.170504651050265 14.52894335994337
Fe 13.171742797021155 17.402927746093432 15.0631269021418
Fe 13.680246426022762 15.756450716062124 16.546220805333753
