45
Energy = -316.21315255 eV
Fe 7.2424153884366955 10.717244006242431 7.650569766800462
Fe 7.5748357594282885 9.805275927689596 9.775010757093588
Fe 9.272510490036327 9.443303323438526 7.974051080372475
Fe 8.486507213425398 9.127520141160055 11.966920561064084
Fe 6.647425832383089 11.95888095367667 9.646407507633555
Fe 8.927188706642543 7.862232660477116 9.84815894174437
Fe 8.976598077485216 11.852279585988732 8.681706060279685
Fe 8.408050707085078 11.608465831235872 11.259490724363907
Fe 8.35771134732506 11.38543781015573 13.602851075984708
Fe 11.19646892128964 8.161642866645842 8.859217559365282
Fe 10.124331824134714 10.16240654454338 10.303439702836613
Fe 8.088565401889468 13.815257094613765 9.899467750887156
Fe 10.380360408772832 10.341363265545242 12.818095801622821
Fe 8.30584379654848 13.75904171037697 12.353470914934547
Fe 10.233695190019299 13.019610493148418 10.305285248606568
Fe 10.710585874484416 8.063672036332141 11.3733903270843
Fe 11.303479145633274 10.799457881131234 8.415004961389846
Fe 9.158110981673316 13.357719600967581 14.738095299186217
Fe 10.508312782515496 11.36682367563491 15.010443864926414
Fe 10.379941802388537 12.710433462218765 12.71221152163454
Fe 12.601948139777667 6.889950380378061 10.706996933400063
Fe 10.389790744433471 8.14946991324123 13.662378232469523
Fe 12.5664289236639 7.235656524421243 13.112370670579459
Fe 13.831931082035805 7.670481907425978 8.847832875416605
Fe 12.670923373251597 9.465557292388068 10.049702828802298
Fe 9.929484933959703 15.200762119322095 11.18921461602548
Fe 12.092336678747644 11.718886348404705 10.953561894133825
Fe 12.102276313257669 9.541101916223944 14.644774662078927
Fe 10.293890320375578 15.155879331960557 13.513685995191839
Fe 12.533564345980016 9.373078852443433 12.367799279032768
Fe 11.643449614280517 13.104778153949 8.413997280432831
Fe 13.130654879785677 9.49440727723275 7.606731926526469
Fe 11.641191828914094 13.572673373211002 14.85193165612756
Fe 12.658393411152483 11.692652019598219 13.366212118900789
Fe 13.604353694903327 11.496982612212197 9.026838985866128
Fe 12.13891943631498 14.45748078773716 10.396253002380355
Fe 14.472804962695708 8.203532084705103 11.339308456437621
Fe 12.279799173072824 13.973395741644435 12.609100514999836
Fe 14.395460577953536 10.682154360287205 11.480438368608334
Fe 12.730059720669882 11.64144093958794 15.70153877411424
Fe 14.092001447741149 13.05397444440161 11.305635254661004
Fe 15.089204907201122 9.606058546854383 9.36541988252534
Fe 13.920723284865781 13.763729451522687 9.008861916930602
Fe 15.701741558446091 12.044539316514504 9.925242092621946
Fe 11.879702717935288 16.167283156123407 12.034858076938104
