48
Energy = -335.25592365 eV
Fe 8.307995427647354 9.211400970739719 4.968410753619613
Fe 10.66527540569642 9.925988830427364 5.514652299164873
Fe 11.115868019293602 12.557210911436812 6.132286015552376
Fe 8.91774301066107 9.082694150491593 7.176550648200972
Fe 8.783758935768159 11.463029084512883 5.966757174025856
Fe 12.658237527597104 10.837931838270352 6.824801231151025
Fe 6.8801512739914905 7.740821793121577 6.631972560344089
Fe 6.778090310485019 10.18129211185478 6.5967587364873195
Fe 9.236968491095844 6.861055637836729 6.6319901629326425
Fe 4.81762046171317 8.8410699707442 6.7665381519643555
Fe 11.39332809699195 8.637257337295546 7.457112019904217
Fe 10.37197190173825 11.007788226797787 7.66742676319532
Fe 9.500057754990221 13.189508059837706 8.01420604980949
Fe 11.945462234908938 12.758610173328062 8.484753270259398
Fe 7.3589569004565805 9.060465066657297 9.084452314174113
Fe 13.934169544647323 11.575284708240117 8.98758165529946
Fe 7.486065885570143 6.627366779809648 8.704637270805284
Fe 9.228180848156343 4.964760565777851 8.480898144955756
Fe 8.038241804434124 11.3094075868331 8.459915409067525
Fe 12.108723782220641 10.251613057431488 9.104989792295804
Fe 5.2911224474127305 7.8990702538218835 8.833559885359964
Fe 5.289689952363606 10.382927325573876 8.476004376278745
Fe 9.768493767427866 7.2146677344869525 8.811702639707562
Fe 9.845730801264196 9.501683851292563 9.334275278226613
Fe 14.66053337735305 11.678325948405007 11.386311035380263
Fe 13.871109318160876 9.480083881450401 10.447759583301467
Fe 11.726124071587849 8.041002412174228 9.945191180945663
Fe 8.336374206185518 12.998144955375608 10.430554748163594
Fe 10.9738203249378 5.687558599052885 10.167433609477394
Fe 6.5980938379200795 7.279719767645169 10.914881211884389
Fe 12.43453674864102 11.75739905681522 11.0836963660396
Fe 10.262888877311207 11.810907500301258 10.000878400171056
Fe 11.078202803897648 9.750928321120261 11.345268749108053
Fe 6.322970238972199 11.843317930503282 10.120420292875497
Fe 8.338067202285085 10.458912297082158 10.903428378603003
Fe 8.783129948207772 8.115424101303166 10.962107134687994
Fe 11.53933934616383 11.039911032153771 13.447494180270171
Fe 5.771196872608463 9.61059054245181 10.789669016029384
Fe 13.42889838291883 9.976847847814462 12.699112675552794
Fe 8.708908005183652 5.716803683892735 10.687127426869202
Fe 10.63168264123483 7.301714188092342 11.934450720313995
Fe 9.632552448674295 11.854587340481515 12.310433548822818
Fe 12.972116639264396 7.835823674985007 12.024368703644818
Fe 7.029152149311061 9.090563647723648 12.624285985179629
Fe 11.506381587503975 8.683748078802573 13.678053430325871
Fe 7.055886032836352 11.524410215404437 12.39709779423204
Fe 9.371783351673894 9.563378790069255 12.957453806754424
Fe 8.548726291435015 7.121369451081159 12.934668709384376
