41
Energy = -284.99046982 eV
Fe 12.278594897966684 6.86650025222239 12.41533229504276
Fe 11.252195662394923 7.808038219923626 10.309923666091864
Fe 8.536179514079956 8.337432375205854 10.554589017803849
Fe 9.869516299221297 7.2900969900462655 12.167358257542224
Fe 12.012658625601564 8.526641504699006 8.059965682929287
Fe 10.953358998760743 8.573335661849798 13.80922664656946
Fe 12.637650569288244 8.939385284531259 12.113185618304588
Fe 12.528501324530124 10.034425403436384 9.964465589287308
Fe 12.345428298688336 9.856809857152555 6.105499053156381
Fe 10.07437660200249 9.44327306704675 6.791587041791367
Fe 10.566437375908889 9.659274465085781 11.610727705079338
Fe 8.574254285129573 10.78710767411981 11.402000835538969
Fe 10.014783987117088 9.73186743689127 9.248908290309297
Fe 13.768039107447581 10.30616533851648 7.933677030437068
Fe 8.558302369352816 9.045432558986164 13.04339685128018
Fe 9.714144546960274 7.559760446493704 8.391066091744948
Fe 8.078824821157758 9.450065877533614 8.109226324579797
Fe 10.1163276654029 10.787512874737999 13.731420162772594
Fe 12.667411015452702 10.331347400503866 14.070795888456912
Fe 14.283994163920342 10.441230151498205 12.020659242380962
Fe 10.557039526390747 11.80724609325419 10.05450917112424
Fe 12.088875163175377 11.550967392000528 12.025343982392545
Fe 9.288609800756275 12.821810167085724 14.872444307503365
Fe 9.303557186139276 11.776934671698536 7.724249826979698
Fe 9.795248655030782 12.729040200131873 12.28984798907211
Fe 7.7991168658448515 11.55656041365592 13.548980826998589
Fe 11.537695191599711 11.145662779378425 7.8695180960662015
Fe 14.813676789986626 11.164532199223046 9.967382813180096
Fe 7.80899214929648 11.532060849671973 9.402068343685002
Fe 11.634986701887797 12.563493874177023 14.189908863947489
Fe 14.096210049784036 12.168334544363123 13.617001171486491
Fe 10.989879557825516 13.563939276134612 8.580976236046604
Fe 16.04400583523102 12.045527922470098 12.081182286943097
Fe 12.944730653536517 12.432987569628121 9.306940712057054
Fe 9.047168266077357 13.510843679628765 10.111644923339435
Fe 11.643833490927346 13.806114774731277 11.0166925442613
Fe 10.551075218293336 14.589957787996624 13.412941391410497
Fe 14.027203908057542 12.923472274585313 11.338911263290463
Fe 7.279901338602186 12.84936861616314 11.583626100685644
Fe 8.136468134794393 14.08344967047212 13.349016679414303
Fe 12.920427928600994 14.11622851086988 13.073414692757558
