44
Energy = -308.26959881 eV
Fe 12.707845047391764 8.981875594588889 14.204346955741604
Fe 12.649108156899535 11.561602265142692 14.322264560727106
Fe 10.824479744445945 12.896741052129263 13.739670515902706
Fe 10.788187999747405 10.235227755866873 13.811190191541623
Fe 10.811326226106864 7.577425717372622 13.637793296450917
Fe 8.836624367903703 13.827782101612458 12.407551496309186
Fe 8.927872705075025 11.345711133991248 12.738720466397774
Fe 13.360686208181844 12.88802390914025 12.589543451949462
Fe 8.843436323126612 8.860746998384325 13.18888869397154
Fe 13.185670826849266 7.626395005352667 12.31799649655916
Fe 11.358629553887923 14.000958935012502 11.669551772645233
Fe 13.22931924669038 10.35769236798598 12.342238611177526
Fe 6.9895897841871655 12.394647393566574 11.668683032118512
Fe 8.927691430602424 6.323799002989447 12.949825968908227
Fe 7.242615588207719 9.86446349682459 11.730076879993925
Fe 11.214055167750473 11.63821999081236 11.785938486921166
Fe 9.55945176950011 15.074767482640302 10.493610539023704
Fe 11.323686994751235 8.956931625410537 11.797822202897484
Fe 7.18655238194335 7.525635554905908 11.978637238419338
Fe 7.480173954816539 13.910300438456185 9.925132900412663
Fe 11.223054270517197 6.177288899478578 11.827238399655503
Fe 9.269790972067383 12.5838553233704 10.546864140345585
Fe 9.450005345595438 10.146324405080616 10.840691939228988
Fe 9.515185817475633 7.578294055130991 11.045636538195149
Fe 9.47928558473675 14.100858198574 8.35682469686814
Fe 7.714397285575939 8.512537559549408 9.778841884707303
Fe 13.862205103525678 9.10456452985756 10.468863723790633
Fe 7.406174948818368 11.121836874727483 9.74118077414852
Fe 11.833498606917937 10.300075568882166 9.805879552019213
Fe 15.158321723305566 11.093524502083817 11.211516612347639
Fe 12.007976634102734 7.51459656584336 9.996285026361507
Fe 11.347084970309366 13.231713141375392 9.402553959543882
Fe 13.326200628993522 12.13704821968175 10.370065762333676
Fe 9.905508755367553 11.329934113437501 8.662867762614363
Fe 10.20549612820312 8.686805813888446 8.937563641733467
Fe 7.962953353038796 12.442752738717356 7.8407160658765145
Fe 8.340410614928016 9.755287724120741 7.804216858805881
Fe 14.440937137820539 10.64884376781803 8.771947459843215
Fe 12.821252524446004 8.890720628088282 8.138419592809507
Fe 10.752239364546151 12.669416187468793 6.816054721037293
Fe 12.469474810162492 11.629134230030058 8.006108633946415
Fe 9.094858635802451 11.187638809240328 6.136242736800905
Fe 10.951245578820378 10.021498392329095 7.008329128408318
Fe 13.351540436562889 10.477542123279079 6.340752223922013
