46
Energy = -323.78310724 eV
Fe 9.586040073637523 11.136820633617958 4.735732447814906
Fe 7.622019850695696 7.553134259634912 5.235467458547276
Fe 6.925013236691297 11.640205182721578 5.2241145123026795
Fe 10.159532904752936 8.610472338349094 5.17949116839476
Fe 5.732328784275729 9.633931576036549 5.538295560989757
Fe 11.274805665354094 10.876042360710615 6.453217271874051
Fe 8.223368724626138 9.78172786438417 5.590597302275079
Fe 8.516560464433663 12.140958104438223 6.775756823019674
Fe 9.902479469604007 6.439942749659397 6.116624247873221
Fe 12.207302337421016 7.093499895609183 5.72810827555173
Fe 5.785142382922793 7.681481645949241 6.964324929830364
Fe 11.63323614915183 6.444685367030333 8.182125315105411
Fe 7.536024828975978 5.736163919193889 6.961576590913587
Fe 5.982006182354107 11.86298190939339 7.4312500820588205
Fe 9.417220437147801 5.92601050567732 8.548068327644293
Fe 11.389236153305767 8.568839993165598 7.169779568674485
Fe 4.560964749514233 9.911044619658378 7.70430047054464
Fe 6.9583607729484775 9.707679426912927 7.594697123099024
Fe 10.402886295776012 12.37943813151603 8.509968388406445
Fe 9.480285019646463 10.188694869921179 7.681090125547825
Fe 8.670393057970186 7.96991921400986 7.269382402017671
Fe 5.223542346301466 8.320800224333286 9.394502212816517
Fe 11.87760880354993 10.326122769423113 8.733653929245854
Fe 5.544180781081069 5.744621772955004 8.399463638786438
Fe 12.838214523612159 8.21695268822425 9.188341316100773
Fe 6.803159553148659 8.579290327172334 11.406268267532948
Fe 7.167533061871885 7.210008216627939 8.951773628964913
Fe 10.2257243039393 8.28540097854776 9.239366374397157
Fe 9.90640109893472 10.556939679974539 10.111606805521166
Fe 8.04400429994233 9.267361989560046 9.621995411412604
Fe 11.725786706016342 11.938331527975427 10.616471873036124
Fe 6.1948928031515065 6.294236240278569 10.992100786081897
Fe 8.687388229309816 6.849888129164316 10.69885271843616
Fe 7.940046709771973 11.724836133084255 9.050671658840127
Fe 11.725694046190975 9.338730542365813 11.082486064236788
Fe 7.73626391549266 4.8470780790670585 9.404506045927977
Fe 9.346697305321749 12.80313887928961 10.739545339140108
Fe 5.896250958111173 10.587381178986934 9.784066299748803
Fe 11.242325052064592 6.905325204307368 10.775428464503396
Fe 9.96736572112435 4.863407199121641 10.775822704484698
Fe 7.922577438373995 4.955241171210687 11.98404502133289
Fe 9.394762333236429 8.762693538719597 11.869798298467709
Fe 7.705631171954226 7.07024910451575 13.018214341704965
Fe 10.199825641838666 11.042630714250423 12.413792889275607
Fe 7.90135842240926 10.89148390868383 11.531198740088065
Fe 9.947530763547773 6.464148766072232 12.752032308934025
