40
Energy = -279.67084712 eV
Fe 10.089757900728305 7.518497367110548 4.866309054547269
Fe 7.796830568685784 8.607511352498335 4.545476288616498
Fe 9.688366379202076 9.962609124365281 5.310819439370457
Fe 8.138998255499315 6.156471028733913 5.689174387589466
Fe 11.07961199486345 8.572569374990517 6.784176328186187
Fe 8.580057397292235 8.155258995924909 6.6258841327588724
Fe 10.161334583970449 6.223617682031709 7.095829584889548
Fe 7.199352040349867 10.177564798168474 6.3669479616069085
Fe 6.3633954323701385 7.862975298070434 6.598788348882167
Fe 11.325335902465604 11.17103247830903 7.16766288342645
Fe 8.996103319351333 12.503029264940178 7.228302749238845
Fe 9.200894332618923 10.196772477481646 7.602787199544794
Fe 7.810219377795742 6.39969703994971 8.207408564290319
Fe 11.865358808349486 7.1429709900697675 8.957998020026649
Fe 9.614429117583864 7.8827469316611465 8.668243158032832
Fe 10.80848154756001 13.587360532937486 8.434327811960184
Fe 7.29322897268944 8.937458255188929 8.63282322606383
Fe 11.366012379897374 9.660558552432896 8.876230940674045
Fe 7.576182241266334 11.430207297886977 9.038843601396033
Fe 10.138332339487919 11.668842568526049 9.28219975395078
Fe 8.653359766547126 13.529879710312914 9.68358456083845
Fe 9.067400274988628 9.772316843213476 9.98428243507045
Fe 10.607907229450712 8.23909925797326 10.783903376452907
Fe 11.782980618388406 6.482656938814873 11.518870306024787
Fe 10.756497865316057 13.109250023064803 11.01847950463544
Fe 8.077929374796168 7.597364451651317 10.565094194905567
Fe 11.131806574625708 10.587570642663618 11.339731829841703
Fe 8.826506529098687 11.729085459903416 11.458744132247903
Fe 6.8895786926985085 9.875009638850107 10.977217885042368
Fe 6.647041792278707 12.29842317850085 11.074963323387005
Fe 12.431082459115183 11.653711555593818 9.54738112764536
Fe 12.79216347097099 8.778615533128512 10.560595018376256
Fe 9.826864688286237 5.92093204946177 10.128925466661704
Fe 9.040194107609853 9.308472753295902 12.240501239244718
Fe 10.106032740060105 10.903055980236644 13.479197735272493
Fe 7.25342655668209 7.994994137154173 12.792163463534079
Fe 7.469852412255226 10.651828438985909 13.173378789535802
Fe 11.261349082379008 8.57019146302943 13.02141064997392
Fe 9.500115887746956 6.855207233762001 12.550509887240885
Fe 9.113682207778325 8.652638522225008 14.448886862117968
