46
Energy = -322.74274134 eV
Fe 6.148173316457835 10.425227856820571 9.016415936515745
Fe 9.705709402290159 9.429630725742443 5.7860674755184895
Fe 9.342070994214907 7.524873881906165 7.189755476409369
Fe 8.026702489410948 9.739462873790837 7.609360121551203
Fe 6.456126249201608 8.932017529726496 10.918105043421487
Fe 6.899199173160316 8.015201865596614 8.799516406197927
Fe 6.973802513908844 11.744118584159239 10.845570114516859
Fe 9.922304910678385 11.610012751619587 6.9345747243474465
Fe 8.25965854281467 11.999365824502108 8.721705370866925
Fe 9.064121252590093 7.812617161783323 9.525741563203377
Fe 11.659147265649096 7.92877919674674 6.738768755838704
Fe 11.911763186291248 10.136992121745704 6.124953853401126
Fe 8.418570861062864 10.050836977612697 10.009419668616395
Fe 11.33983659848375 7.2606394537601755 9.010623051929404
Fe 10.437872893680263 13.59413365900236 8.846609578627652
Fe 10.352866088498324 9.546754576597518 8.159512885726793
Fe 6.991448064229596 7.840109705547807 13.086247228647913
Fe 7.31943947029338 10.206250562252496 12.650054865314086
Fe 7.794072798755108 6.6489675440275295 11.190445746081906
Fe 9.089169986799648 13.179497745037335 10.819527369114837
Fe 10.540072792951804 11.440328464775176 9.611526293847717
Fe 12.109649848811163 11.565267200520205 7.912424640452437
Fe 11.236794136425317 14.906813374225713 10.854776849727337
Fe 10.486926053033113 6.727691347939673 11.245060634029619
Fe 8.943973679063063 8.629867380279478 11.96125149863611
Fe 9.876954332328415 14.322405584931177 12.747143998051964
Fe 12.772821348630167 13.16870211441395 9.504655361509311
Fe 12.713544987947333 9.302494498904926 8.583542651554394
Fe 9.533227788457012 11.08208666233343 11.839744954258604
Fe 10.800567160422265 9.204830721826415 10.558965806076456
Fe 11.404620940682566 12.695313942211808 11.490983094229566
Fe 9.158247696555753 6.791650216089843 13.271602660471078
Fe 8.342576495682255 12.330388647440087 13.173507446559498
Fe 14.316222339437168 11.409108969163869 8.677547087062589
Fe 12.727386163960313 10.846118671734281 10.526643136626612
Fe 12.169186024786308 14.26807186915309 13.285246187393383
Fe 9.52996547806732 10.047470808461288 13.85811729861096
Fe 13.539951087291474 14.211247948814602 11.418475413146053
Fe 11.287899158456893 8.108967478711108 12.911142976662715
Fe 11.666360048893097 10.371156423091183 12.613539928693196
Fe 12.802967948961376 8.227481533562603 10.983816731637257
Fe 10.751439395044601 12.36218586114693 13.781109937052957
Fe 14.701499675414825 12.030820360506024 11.008031662219315
Fe 14.712845727247228 9.567851981742896 10.121553550430662
Fe 13.298122305152932 12.144591216183006 12.906869861337178
Fe 13.98389193106062 9.83647078815017 12.398365574472306
