49
Energy = -342.33642124 eV
Fe 8.514895545326079 14.33026580102041 9.67020494248866
Fe 7.944413187511346 12.227618882033545 10.628703314453189
Fe 8.935378779644985 14.504841374561439 12.013169657978949
Fe 8.607674977307354 12.353692546723753 12.993878581352186
Fe 7.152491543118323 10.445395870605292 12.14920741091043
Fe 7.859293107228924 10.104682942946853 9.441725513598067
Fe 10.23588454848807 10.518417930773715 9.526368882005405
Fe 10.358650975117865 14.582892128271673 8.025706462771206
Fe 9.185133668168449 12.356264925489254 8.433819610008065
Fe 10.801253426380626 14.74609831439545 10.350699349002324
Fe 7.701721122088488 12.289366519661415 15.002955119481543
Fe 10.220888176478837 12.623910643260555 11.006027683404405
Fe 9.684071877950267 13.984432991799178 14.33100163980709
Fe 7.999965955680405 8.361645304994385 12.92506013253352
Fe 12.550748990311783 14.131678092407443 7.13275505776733
Fe 9.399763414142832 10.351251290001908 11.743188864077917
Fe 9.76448085654956 8.484472982945892 8.43857378849529
Fe 8.855659376940379 10.27217806524139 14.199285819240764
Fe 10.92985988014841 11.59439270976066 13.219603855071155
Fe 9.990265807965368 11.980142101101439 15.466732231331369
Fe 10.64556806185614 12.658709216957194 6.483285377853939
Fe 8.826853967188235 10.387820219672541 7.26061720454103
Fe 8.832972471487553 8.311839496878939 10.705896723723667
Fe 12.800342028043945 15.180010344886476 9.331326987941823
Fe 11.184633262298203 10.552332581995552 7.3759722100186496
Fe 11.450551016400347 14.079040716999677 12.634866923203653
Fe 9.728389434282203 6.564713560515405 11.981200938092593
Fe 10.779517051889002 6.698976595784411 9.810794346607468
Fe 12.152829320249257 13.096454237598852 14.602786886822132
Fe 11.560376225084797 10.14751518150907 14.877391769953489
Fe 10.363192980362147 8.649626361294047 13.206612449484659
Fe 11.217882292773165 8.67334856353225 10.931061249846351
Fe 13.071344129824942 11.898259178595984 6.7891157702800005
Fe 11.579120130014237 12.709080602868493 8.833773498724325
Fe 12.052101040439497 10.957751620767935 11.066227010200356
Fe 12.185997761935345 8.713259007916829 8.79129759399069
Fe 14.082302186602302 13.123303897096864 8.760286942123779
Fe 12.831363401864223 13.251844503481129 10.788689382055706
Fe 11.572719403718935 4.966317449288806 11.204611941979143
Fe 13.922265070993188 13.842326103007673 12.742879782031446
Fe 13.357750069178012 11.684398030455256 13.044645772717496
Fe 12.678056315141752 9.334480779246476 12.96630704195643
Fe 11.996891961053354 6.9488640052913615 12.414918433469307
Fe 13.1960722055608 10.948074627936048 8.966945187021743
Fe 13.80400216282957 9.28145717186918 10.644112044654559
Fe 13.094030015531652 6.902031201616607 10.261023074238357
Fe 14.577595419636674 11.749738331249116 10.986114805890361
Fe 14.965464553878771 9.96245167280782 12.664906510816298
Fe 14.219671442605952 7.655902264268253 12.254315132452934
