43
Energy = -301.96048163 eV
Fe 6.349958043915379 8.81466040249758 8.064754651796402
Fe 7.9149091005618315 10.379308438270174 11.08609000167797
Fe 8.282043565082654 7.182573698192778 8.724158469482296
Fe 6.734417252704479 8.452050231955727 10.36011393549855
Fe 7.841952293901618 11.784263462206177 13.03451292065729
Fe 8.052293463719854 8.238027368518692 6.635070239258479
Fe 6.501876389244622 10.848032102449935 9.193248977375646
Fe 9.798972978163027 10.585687914169053 13.174224815510296
Fe 8.948914689225065 7.733389293545431 10.991627372470807
Fe 8.613367497936922 9.490167993340314 8.9713464070802
Fe 7.462701057198572 12.77265103986533 10.920835459302769
Fe 8.031372794088325 8.947877809591311 12.8682950324458
Fe 10.617577718780229 7.958853681791302 9.084459078683876
Fe 9.666057773051644 13.349888961980131 12.70046291755526
Fe 10.853215252006212 12.22117000377883 14.579125493434082
Fe 10.105771490475357 9.143488113964382 7.011304672073906
Fe 7.899855843377879 10.558041832901491 6.94453095203429
Fe 10.306252962452943 8.19835298086881 13.298530251604351
Fe 9.829301823811308 11.862422786560735 10.835873707833324
Fe 9.22225142687427 14.1308497598374 10.230275627304817
Fe 10.363613131647188 9.59682117234309 11.065001199172654
Fe 11.860004410826964 9.972305531601627 14.538246620947039
Fe 8.60731347252213 11.975580491568383 8.797180409213844
Fe 10.458469291069724 11.510017435426178 6.857212052268722
Fe 11.743269704567892 11.73855584748227 12.402780868899274
Fe 11.357000559782419 7.3243604584944 11.356283122259436
Fe 12.556629494937182 7.684593313300193 13.746107957414205
Fe 12.109621892375007 13.902248555522325 13.358780370176472
Fe 10.786229695235953 10.465134234229895 8.874754460192104
Fe 11.485411145524015 13.810081251328207 11.001768374862957
Fe 12.386741369287227 9.456843095613094 12.32770221158542
Fe 13.521962985223977 11.687473536282283 13.816978832033474
Fe 10.8581521042306 12.950119582754855 8.761693443801752
Fe 12.395343698493813 9.410014078888599 7.546746478286169
Fe 12.424698549399816 11.580932514117265 10.147054587707284
Fe 12.886087772799767 11.755621723040383 7.846195937955062
Fe 12.540105787276568 9.100840665842757 10.024394567350912
Fe 14.258181865430153 9.46634465794477 13.752170293823735
Fe 13.743662020293801 13.158776545390639 11.694721909231193
Fe 14.216293335472432 10.703359317831849 11.511584191269002
Fe 14.271420860734684 10.177661063346704 8.89554893986737
Fe 13.133847746964452 13.828560984260827 9.24490625772085
Fe 14.826058524690003 12.30540052475813 9.678170734797403
