42
Energy = -292.53937352 eV
Fe 14.58376467961245 12.793073633717372 12.807575471612594
Fe 12.532139308812798 13.861921426763764 12.666255277380749
Fe 8.269637788918784 12.714618958260136 12.63872427072606
Fe 13.020759485625675 11.518351528713161 13.91592127811417
Fe 14.465466617640294 12.672550114427013 10.490933066963198
Fe 10.335083451977825 13.726701544336574 11.698713464917367
Fe 8.77190725226307 11.178087596386945 14.287171847760932
Fe 12.544301809355701 14.178150162770944 10.255755867729269
Fe 10.815231770934014 12.18995833788504 13.447919003600054
Fe 8.414895486095402 12.993292480457201 10.134642919948366
Fe 14.556392320930245 10.631213900822619 12.025474970187538
Fe 7.316971228820351 11.12052468252016 10.960051077128467
Fe 10.608674841326675 13.053232425663074 9.610698827554344
Fe 12.295541678929453 11.889501945281602 11.26353882717278
Fe 12.391808218575589 9.753634375522319 12.457428445983057
Fe 6.592587263866024 11.346226316644687 13.19852006069129
Fe 9.89124778213278 11.042665483331401 11.618556478358506
Fe 10.5723593029416 9.868810553913114 14.136341359460134
Fe 11.380424696272687 14.075183067810238 7.8590866330463465
Fe 12.832000097728699 12.292000361050086 8.749067914412151
Fe 14.02677648953734 8.39131335657481 11.055798055162231
Fe 11.41050309877092 11.861729880731438 6.878317158595937
Fe 8.160014428682006 9.553269050283555 12.634109782842616
Fe 10.5646661957502 10.945349568991778 9.070978651713949
Fe 13.566241737395444 10.291447590420034 9.796434859718993
Fe 9.293889668543425 12.705399418546238 7.593417232476694
Fe 12.19648353162395 7.253397490527238 11.875020204111287
Fe 8.19644830402255 10.990297779286495 8.854290828098227
Fe 12.220988426537613 9.80790708413308 7.776003607165599
Fe 10.219828387358321 8.494475984985328 12.326615911690348
Fe 11.535635944997475 9.313396667830599 10.353746156224139
Fe 12.648469433513878 7.688676415526047 9.199216859024384
Fe 6.838708384700912 8.95240490301308 10.013375287692934
Fe 9.772453859397329 10.24706559000565 6.753752398105118
Fe 10.043027220333608 6.237830916545064 12.542537389446787
Fe 8.151429793180972 7.314844602931169 11.505672583730895
Fe 7.64447542488386 11.251910935324037 6.633633710996097
Fe 10.30559625502474 8.39902491250491 8.298841385050565
Fe 10.428745957950486 6.963419261642309 10.277144100604598
Fe 7.884265381311488 8.963592698251032 7.75475641046338
Fe 9.110572182080263 9.185395723663405 10.20300147919885
Fe 8.337038357804577 7.035604818166986 9.128412431298347
