45
Energy = -314.23936272 eV
Fe 7.706064463179781 9.221819861858515 12.504281821718074
Fe 8.183123047413488 7.437872357655701 10.878942986861755
Fe 9.293396354491863 10.367427606022906 13.985553828386738
Fe 7.616892966748616 11.632836064659125 12.360567471783229
Fe 7.735039270526783 9.932409768881326 10.319112822644135
Fe 10.009092863758934 8.421484719438608 12.332020840366114
Fe 10.391212630618996 6.479519073171405 11.470281907109873
Fe 11.115500314971394 11.507606253878553 15.27403275306328
Fe 7.786398290012413 8.042719145595731 8.663602119868747
Fe 9.29088107151637 12.84652037205499 13.882792448420608
Fe 9.482278751758985 13.242500425331492 11.409279553479038
Fe 11.670580275450103 9.709850844276863 13.51813466412893
Fe 9.680185754673593 10.857510041274683 11.703117516564767
Fe 7.9025095640122665 12.27169686622673 9.91473330972621
Fe 12.351005428255363 7.775660267228992 12.125128553103957
Fe 9.669762670084078 6.701478652714758 9.118667853352594
Fe 9.894987892329222 8.971997413012012 10.006060493857163
Fe 12.802517417347861 12.627735779305068 16.53096441169048
Fe 11.076841506680035 13.790703421818172 15.136484299982609
Fe 11.110293055893594 14.39393657619945 12.820853402507815
Fe 8.412228835200002 10.248391745755068 7.987627976729103
Fe 11.38627911218113 12.059176341506221 13.007985644840378
Fe 13.109444218121176 13.219967524294415 14.21949427816215
Fe 10.076651666154655 11.287728782528967 9.328155972418498
Fe 11.427200721749347 14.966259462220997 10.508680009581523
Fe 11.918979271255086 10.024116922528814 11.16145432157722
Fe 10.229761764935025 8.640861332195465 7.744439675166353
Fe 13.334739020115387 10.89542977936691 14.67703178983238
Fe 9.919605305300273 13.72955530272028 9.050686177741952
Fe 11.867183666944007 7.690198285800534 9.7666239614481
Fe 14.013396479921905 9.241259315505784 12.750752569561495
Fe 13.58483722934059 11.47326454177767 12.358905628768438
Fe 13.198993379862188 13.879440616584011 11.840333309562228
Fe 8.591509683782306 12.587149029352311 7.530920260569249
Fe 13.834895655945013 8.89665081094165 10.346500237874313
Fe 11.741102636315452 12.507789898588126 10.59337187180082
Fe 15.221744592049191 12.768074865011588 11.121804229805532
Fe 10.562176264320293 10.978058153444316 6.905094985142942
Fe 11.898846293038128 14.736528491013864 8.162327123774107
Fe 12.10905304619044 9.875773257702154 8.752308708333505
Fe 13.625457058584914 13.75641511806965 9.42936011687231
Fe 15.553024305476821 10.442731566107163 11.138964277318705
Fe 10.65362740322987 13.343898101366653 6.677419273574784
Fe 13.919902242193462 11.35523443126324 9.91643695675637
Fe 12.220792156134873 12.294611071994884 8.176014018273486
