46
Energy = -324.68397429 eV
Fe 10.157424798378484 6.863150611960217 8.08998833691431
Fe 9.467596814042574 7.194920027363521 10.39953588849891
Fe 11.825280998549006 7.012129505016848 9.677632038480084
Fe 7.741751976742702 7.318133250979896 8.570458183329691
Fe 12.345057465185317 8.03603612456991 7.384756069636456
Fe 10.908178511386788 6.971588203836649 12.222714370177288
Fe 9.3575799793841 8.502972107796504 6.758659250739143
Fe 8.472900237424378 6.727157017830964 12.584416196282124
Fe 13.305782877316993 8.907140511347261 9.485745944941044
Fe 7.229789274961311 7.895014673882178 11.014038702421088
Fe 13.160475561044235 7.607377702881575 11.64546400023385
Fe 11.2050526335418 9.075217914901296 10.797203616027945
Fe 7.088574316875869 9.172869854021984 7.344797582269867
Fe 8.731116243004054 9.254502531836215 9.371770306581878
Fe 10.927317531892012 9.407135327566921 8.41602319617359
Fe 6.128846013788172 9.279898087530768 9.43323672384705
Fe 7.558289658155571 8.957986457251746 13.472158297863823
Fe 13.383980655366027 10.57908700109336 7.840243161124771
Fe 11.25552753666607 10.464841804562385 6.398583729628405
Fe 9.719922577963578 7.879996456579677 14.210168389980614
Fe 11.750624857795081 8.996296805855447 13.259247053131563
Fe 9.303831127712442 9.12770124420896 12.101869403564368
Fe 13.387909818901527 9.975313496641238 11.75632765405469
Fe 10.034444090018464 10.195798300174907 14.398744781211064
Fe 8.795780236535933 10.747645143848938 6.924502569967678
Fe 14.640192004729844 10.927464643314575 9.932231247215084
Fe 12.106273772131171 11.097488762538793 9.88313527430976
Fe 9.451986671013058 11.197129274002638 10.661520703461782
Fe 12.047717446986645 12.546335010283915 7.701332797822527
Fe 10.21009095925029 12.586290412556231 6.134149494440869
Fe 7.227396115641164 10.250241960448452 11.270501236326618
Fe 12.508966326936939 11.402413961525676 13.906361389569488
Fe 11.086441884226014 11.190120356936792 12.238093380311492
Fe 13.609168882843067 12.945726317243873 9.412202877222061
Fe 10.070418688657401 11.716586413530452 8.532642068912281
Fe 13.326448547238954 12.341615421219648 11.705090429126228
Fe 8.502042676509964 11.3322154389128 13.030468810375204
Fe 7.48185838407039 11.310193283019379 8.992058293717312
Fe 8.211412583393562 13.025690906597626 7.415952501509751
Fe 10.368481221851773 12.509840723453102 14.24610483675068
Fe 11.222158614184986 13.229109216128778 10.300934788220703
Fe 10.383081255207815 14.13971492910811 8.105288258493385
Fe 7.291689220436681 12.54123353033984 11.21910772656217
Fe 11.69975788167829 13.687968613104795 12.674029450226323
Fe 9.458356959821668 13.290678499414517 12.07418448523973
Fe 8.751961915344696 13.497777946733942 9.69386195245679
