47
Energy = -330.44881167 eV
Fe 11.782414821446848 12.010097924924576 11.350487446310925
Fe 7.727347918287549 7.809610108596564 11.87637989372965
Fe 9.633120734470534 6.2832172066307495 12.21070438832581
Fe 12.862134245389427 8.518597024460115 9.470168675737895
Fe 10.933601325674205 10.19267229868981 10.308035099858952
Fe 13.25335142511677 10.984783591127195 9.770391725625787
Fe 8.986916710037228 12.839569601687984 7.508931440192847
Fe 7.199820144454294 11.424128119603221 8.624299943959556
Fe 9.890171822205973 8.547187423180201 11.539897813130533
Fe 8.120881805642938 10.166595550828397 12.567354283540068
Fe 9.488479032207199 6.794720460529104 7.301171285343146
Fe 7.533538200813019 6.328533487571586 13.652860565011947
Fe 9.21530018891022 11.764388152999231 10.751156521358283
Fe 6.593813839251585 8.690420586826656 13.843029743107202
Fe 9.896771705637565 9.129725597484198 6.699965562900358
Fe 5.522255128846971 7.002573841765474 12.33362683121826
Fe 13.924912795558894 9.48738814401675 7.474253576127002
Fe 11.760618900282761 10.064448782058633 8.05468512587434
Fe 8.119649717415776 10.738345982383816 6.509804014574696
Fe 10.62571536344402 10.306672766818773 12.861014024729652
Fe 7.225236449827968 5.585488459248563 11.316424600986313
Fe 12.932207402179628 11.86765362778078 7.399986056242986
Fe 10.451783833260132 7.62300399270022 5.145052086323598
Fe 9.448415033625674 10.70996819506348 8.524975379027055
Fe 9.623143359487175 10.02972728091782 4.528152807122605
Fe 5.6372832642343225 7.887245233762654 7.4543714567779
Fe 6.714714729599266 11.406265463749452 11.002071479985728
Fe 11.94293611086893 7.707732637951631 7.148051796328481
Fe 12.058012555661785 9.638484156011783 5.720056946742265
Fe 5.823289974201258 9.366114721254808 11.636096194802414
Fe 11.476835896104722 7.1188156174129 10.689772112118057
Fe 12.582124920433861 9.378403329473178 11.72625438253392
Fe 8.76653980266216 6.857024173900383 9.844976971332379
Fe 9.091406815353933 8.289982061045391 13.907035977201398
Fe 10.620643311262906 11.559969905244834 6.434932957121539
Fe 11.165281134185673 12.386581514957548 8.946598271458855
Fe 11.388836153626404 7.80506738035618 13.148275264025404
Fe 8.11403531245279 9.556540428399959 10.234529419964694
Fe 6.295924276879813 7.532882303757077 9.934867855989017
Fe 5.957122901888197 10.045925101597636 6.705192276897179
Fe 10.323411101846219 8.330467585031242 8.95183042995892
Fe 8.930962049980844 12.299930553256313 4.922274635777829
Fe 7.276918989123942 6.283662731459263 8.049698570330364
Fe 7.7962875853866205 8.272472241396395 5.714190016795077
Fe 5.705968959037179 9.73450289276799 9.20075421104229
Fe 7.805825600150546 8.708534444541366 8.075374737641534
Fe 7.2833049914131 10.443145654606782 4.439253484643545
