54
Energy = -366.06275758 eV
Fe 11.381587992600183 8.033134051976365 14.51981051285675
Fe 13.693036119663727 16.754566476359912 15.73691132649802
Fe 8.773534403198333 13.181967829596994 10.36472373958127
Fe 9.4245230156822 13.096413612927776 12.849761429499198
Fe 13.724756202559076 8.664897744322854 10.172716670936353
Fe 8.456953345350547 14.959328311947369 11.960521612652277
Fe 16.076564526584185 10.347389878684549 10.327906785128691
Fe 13.133525307608288 17.14662309101372 11.455778171433069
Fe 15.424521439563913 16.539588561303013 11.463977116203715
Fe 9.684513808215772 15.633062490303807 13.901139329138127
Fe 16.712433689000733 12.886089679902682 9.862970236568502
Fe 14.532434245998688 12.09090012799576 9.594684217573773
Fe 11.345892719097106 14.158812889926304 13.418253959492102
Fe 13.773423088749833 12.654110340178834 16.452070457664824
Fe 10.090007967193673 12.426306711405969 18.703708549034154
Fe 9.942579323269673 11.715295620302467 16.483813719184653
Fe 15.829704388011248 14.3733471608486 13.090659903694702
Fe 12.170538496892709 11.954187776685925 12.684049249088769
Fe 14.503900838702997 16.346298154947583 13.50468281608893
Fe 13.793833671187068 16.875128582456522 18.092078206698414
Fe 10.636249002078248 13.23318224559555 8.93945584917031
Fe 15.15181364753518 12.160979150685472 14.581548284909468
Fe 13.505089307546267 8.2374004484431 14.711691858718673
Fe 9.985701490643352 11.035546315548064 9.053931941955923
Fe 12.291046086660682 14.847044565129757 15.546472851280187
Fe 13.626623734507117 13.678868551761514 13.758227834994846
Fe 17.218141243785706 11.67159252606761 13.944774281518908
Fe 11.623603746317535 9.766293235092068 10.533290983775462
Fe 10.904580619562438 14.249212756264283 11.099109215653527
Fe 11.95188218475428 12.35138380998471 14.929841525253314
Fe 15.239874170368745 14.360563802813827 10.750522855149427
Fe 14.971904570757362 14.675551397916706 15.412057421251246
Fe 12.222867038275421 12.06156160078723 10.153422715787743
Fe 17.59799739524022 11.733091557888308 11.659652168870362
Fe 9.922632942522675 13.772268218210055 15.429347300701801
Fe 10.94927221328385 9.580858542157323 12.720762589038467
Fe 7.950391291759757 13.788557627279634 14.290105069236093
Fe 13.241000421121772 14.914916790298795 11.861562401713268
Fe 16.318640477869835 12.07614679519281 16.425485580856797
Fe 10.207769418674033 11.29849245180242 13.96195544615903
Fe 14.383235896786832 18.587337068833932 13.043308673420654
Fe 15.167690928876665 12.313319992990019 12.1128117432719
Fe 16.429270252314602 18.35904379250898 12.42994720646758
Fe 13.095147912487691 8.545785090465277 12.516039534230067
Fe 18.16076351539657 9.797427300748462 12.780240993880948
Fe 15.697391591391149 9.878222941851735 12.715629259929418
Fe 13.038833879187562 14.32702736658778 9.559767196250627
Fe 13.644872082646488 14.771636425879139 17.457457747240102
Fe 12.09381392465337 16.396578914090885 13.56827263068191
Fe 10.090288248933142 11.578166699048653 11.259757463770006
Fe 15.211297825629458 14.063546917625452 8.453483649411671
Fe 12.85887503297295 10.292292489902872 14.245615026526574
Fe 13.702487532943163 10.491132925367728 11.445138606208925
Fe 11.597233961860812 13.11539718429205 17.23523013545379
