54
Energy = -380.15427169 eV
Fe 7.944555133208324 4.855851995539944 9.221112060590611
Fe 7.27877139227552 12.507216032090666 11.548252292665673
Fe 7.785352941866077 8.370868234882959 11.173118694859307
Fe 5.3030145819009 8.767615230201951 11.171451809604196
Fe 12.468254149699193 12.16174569035101 9.205188781154359
Fe 9.329326854937385 6.356915984952457 10.940036588564514
Fe 11.68336342270174 5.252524749568559 10.774923311449754
Fe 4.53023353410687 10.19953176095519 9.15239998532116
Fe 11.390696215058458 7.05418742771392 9.293832392026154
Fe 11.885123206979637 10.723180088986869 7.369875124015932
Fe 12.341792540580519 12.953529040052159 6.9400233242747
Fe 6.73202522322283 10.532621201885078 10.452693274646538
Fe 9.994937858796641 12.78406223448872 10.876760574020361
Fe 9.556048851066265 8.431417933264681 12.824749688549412
Fe 8.49338445659409 5.567357683768002 6.926648802136803
Fe 5.233827602208081 9.006086994015423 6.916986493778119
Fe 6.966288869263716 10.008487973576212 12.696911429588594
Fe 9.727528007703445 4.044177093351861 11.087735579807234
Fe 10.571053450112332 11.873588371062016 5.686813592581232
Fe 10.598276608909268 9.239054663787439 5.84160587653608
Fe 8.503769439702566 9.688649067328221 9.24390996695531
Fe 6.542860034910144 10.638845916921229 5.767504696959436
Fe 7.444720830499652 12.697493133441334 7.207380274798089
Fe 6.733883312705151 8.32476432325412 5.052304453452018
Fe 10.304793803096977 12.93009338682319 8.027256784370183
Fe 7.759954870363207 6.676380140058148 12.779308073615216
Fe 8.072165535996051 8.684621875583108 6.9167478863175855
Fe 12.432078356814465 9.34455203792718 9.53708727246556
Fe 6.566097220866416 6.891419095795236 7.2034757409021015
Fe 12.525542347567603 8.170570478542885 7.277641524879422
Fe 10.176633463720426 5.903797849355774 12.957682191627026
Fe 7.517251776063927 4.641356120868538 11.590424525756328
Fe 5.82172749866524 12.578130918220205 9.29743535404568
Fe 10.226606239902436 7.019555280070667 7.054856445007671
Fe 12.27925235372585 5.757075163724406 7.423610124385522
Fe 4.822140048354159 11.705403746110754 7.30153343467234
Fe 9.02924030366367 10.693082257970891 11.551894573743818
Fe 10.183031857269894 8.703266784020727 10.56703996384829
Fe 6.748189824995833 10.653072005981223 8.032135409695057
Fe 8.673639461089714 10.040332425536073 4.839110592207075
Fe 11.694603461250006 7.154551248911369 5.210978121324929
Fe 6.598400227971614 6.476985293292785 10.338204664110318
Fe 6.360433648277119 8.445363078009954 9.011512814564767
Fe 9.136633700558313 7.461317903443676 5.051472495652042
Fe 11.624270083417079 7.409056048302235 11.824973295814123
Fe 10.247668797332087 5.034931118124073 8.724777291082473
Fe 10.414958748483448 9.004601460721648 8.163025152483183
Fe 10.621797324823044 5.102958778839705 5.868224796199614
Fe 9.150652738558664 10.972495315882764 7.199083326299969
Fe 8.608235006958902 7.224640740002279 8.855758545031403
Fe 11.41864972126813 10.421942327021593 11.58944186458964
Fe 10.506086240052895 11.006161861467946 9.490271657063305
Fe 8.295928658083907 12.171643740852312 9.394443273203313
Fe 4.807992651368167 11.344613182666885 11.212118226274889
