51
Energy = -359.7388469 eV
Fe 8.241009737301058 12.883558344964179 12.481612365865697
Fe 11.251843994048953 12.466595212244414 14.164300033121801
Fe 10.127331476708179 14.402148659924777 12.641795788290889
Fe 8.972986375017683 11.115512918411046 13.986260279544204
Fe 6.666895612817733 11.122560734448326 12.446372522895276
Fe 13.711877425831071 12.723289204109356 14.312833569256197
Fe 12.435964455137878 13.957814387456358 12.412028585451603
Fe 10.885977272264105 10.620073380583387 15.624394814885589
Fe 11.115518348493996 15.686175242101072 10.817794078551403
Fe 9.089856593989651 14.163974298075763 10.436840846722024
Fe 10.36597665351538 12.099674975839893 11.943007497200036
Fe 9.430880284063347 8.93060540045635 15.197419725428304
Fe 7.336511347487406 9.369419770777144 13.917343779209967
Fe 7.846592275977662 11.978911185190487 10.246251666709927
Fe 13.61426204090983 14.92322813821674 10.519979181243066
Fe 12.810932466252472 11.658606794660365 12.321184797420926
Fe 14.768695924167831 13.048326791540074 12.182040467150282
Fe 11.35812827904503 13.430667947383075 10.204558894089415
Fe 12.948218569985768 10.4270639886996 14.471051449596542
Fe 9.243987862859901 8.252386877091663 12.99595546799
Fe 10.92111544741862 10.040069924919582 13.063893644853422
Fe 12.420091498395562 15.952234048550478 8.88317220950297
Fe 8.65249341002603 10.254955465221967 11.704591489810063
Fe 11.729889228488073 8.32720659700745 14.476546802329045
Fe 10.532003625396444 14.678775377858488 8.279041474640872
Fe 12.945811093687759 13.832127812022017 8.060139904640934
Fe 6.97551601406434 8.719974329548123 11.585796179966257
Fe 8.15039146563848 9.575733503252648 9.442459403428336
Fe 14.084398332779182 8.195240030572247 13.705680253633881
Fe 14.905630539851941 10.632882624660965 13.181556972714091
Fe 10.515073179864611 9.058955052990349 10.741751402805296
Fe 7.321802206989584 11.417314579045625 7.962152284089281
Fe 11.430937884487252 7.336783236789319 12.33123246489066
Fe 12.936693181140797 9.226430906840088 12.015861366913194
Fe 9.914847700553977 11.158895886473832 9.764812679122521
Fe 9.187286750874074 12.845473810455129 8.371399175791282
Fe 12.176640747059283 10.731259962635944 10.294724748394685
Fe 14.576613767104131 10.785410836688508 10.821366435857207
Fe 11.624739769326771 11.943612577241405 8.244350406050474
Fe 8.88766541805149 7.4430794112248275 10.781545618391908
Fe 13.644896933094467 12.692003814656276 10.051194115562899
Fe 9.84383201536003 8.192783014176285 8.608142548722302
Fe 9.675885464818522 10.543390777116516 7.4998827837966555
Fe 15.297000763004782 8.604201667339838 11.53601697948601
Fe 13.711667072165573 6.943048502953659 11.493999264928492
Fe 8.552043666896946 12.442145197547676 6.268262313628182
Fe 11.946325254602927 7.46193281250326 9.927540761444533
Fe 11.810063901804071 9.502950796313025 8.31262601462962
Fe 10.876760034992126 13.136267613060442 6.4747669500748755
Fe 13.827140457122658 8.876401171945979 9.609877091205774
Fe 13.819738290609454 11.098887421821575 8.294194223670923
