51
Energy = -361.38369172 eV
Fe 9.016240644700238 8.558218991611456 5.812548268607973
Fe 9.430193984516954 6.315521209331953 6.683453437482659
Fe 11.31639293693511 9.577672071457748 5.877947754819574
Fe 11.577260571677192 7.403191864465384 6.6410068040353885
Fe 7.583211760532789 10.088078162327353 7.284888213895032
Fe 7.369862438867558 7.560518561122438 7.68796033651378
Fe 13.4620222505944 9.09610819591633 6.816459861011764
Fe 10.253467494187632 13.027148179302888 7.1240075001419845
Fe 7.712421047392088 12.507742074479818 7.227431503837595
Fe 5.597283512655962 9.139146764903733 8.481305284301826
Fe 9.85737550330441 10.72988624922639 7.27687790503405
Fe 12.499399362188543 11.512243353536544 7.175675268565023
Fe 9.525865880946311 8.374577757324051 7.995965894453109
Fe 10.941699608858427 6.5123986147582835 8.77625873126569
Fe 8.554705301102318 5.764815920077259 8.875004972497003
Fe 11.743832524368054 9.31508512856669 8.452664897552816
Fe 13.225950232232798 7.527910069471541 8.746691258791204
Fe 6.293534160452423 11.47792010172265 9.051123954873345
Fe 7.6433395144421485 9.542814961028453 9.490692936081869
Fe 6.412699518048252 7.331726350381965 9.942739839435106
Fe 12.212458906847651 13.873961588504148 8.229613246713853
Fe 9.905663808322537 14.06430223304164 9.263809977989489
Fe 13.82089519113285 10.256333280087965 8.88612635469706
Fe 11.263502471816983 11.798043153425397 9.06228608673409
Fe 7.17663045227735 13.490967909602242 10.190851190620792
Fe 11.660184926124572 13.473282384792679 10.806672015131506
Fe 8.797134947292065 12.035288444469032 9.11677002830032
Fe 12.305156424921506 10.540289165398134 10.814704460196447
Fe 13.480148845259164 12.502225209329366 9.625040514019991
Fe 14.280282948297716 10.870515885574934 11.40500588323187
Fe 12.653987273008358 6.026830885589776 10.50218727049175
Fe 5.600529427790822 12.070793016203009 11.370784707015805
Fe 7.812733882372782 11.271723455938531 11.166443031464942
Fe 9.100540507805698 13.451349947488191 11.601481116385347
Fe 11.187524938339523 8.152092775397831 10.608746405930379
Fe 10.298617667661697 5.706932840475939 10.978102085587391
Fe 13.440991961272925 8.488114330550504 10.97346464824006
Fe 5.874594134958019 9.654723808512651 10.950226271947416
Fe 8.84268553900154 7.620702259008494 10.173661171122598
Fe 7.842619159264515 5.830055764775632 11.33175501972224
Fe 9.871288056662642 10.003643995209481 9.757590757475077
Fe 10.35883125617999 11.568532545225274 11.396896977990801
Fe 7.210424571450936 12.802141796552592 12.925231205870046
Fe 12.042183063050665 7.093303068797844 12.534366167782993
Fe 6.912243823583917 10.359289699387647 13.14192309484432
Fe 9.220284649510408 11.44822329783836 13.400983909858462
Fe 9.617115483178255 7.235350218411706 12.621860009656716
Fe 11.21054316456081 9.46384717117917 12.696220779935977
Fe 7.225227966632222 8.00622554806258 12.19701494385259
Fe 9.048501153924224 9.408846917995609 11.83931414492112
Fe 8.790603430969885 9.150231103636715 14.091050180548487
