53
Energy = -372.60464364 eV
Fe 9.544859576785615 13.442656438921315 7.1757524643544475
Fe 11.33729899109685 9.12090852515454 6.365584502224856
Fe 10.193224970724746 11.185224981893429 6.574639944130828
Fe 8.711193284815657 9.204498700453417 6.928893730459043
Fe 13.770267236789628 9.014669120212558 6.52046275753263
Fe 8.027974839182061 11.597637086161404 7.335402601639859
Fe 12.698844395255772 11.100610689916753 6.898961763928241
Fe 7.933470490701095 13.617061282839916 8.804803935819496
Fe 11.163909123594323 12.322593592387866 8.396985122479698
Fe 6.709797018463832 9.539014959443813 7.961689045172411
Fe 14.767828944339541 10.241512712067415 8.192402877567703
Fe 7.964307337985033 7.126064318651645 8.10827709897636
Fe 12.5608052935102 7.250487911427932 7.338869983876069
Fe 10.309195841117958 7.9613113717856 8.141305473157976
Fe 8.15536058828709 8.777440221953736 9.765985419760995
Fe 12.286714146719698 9.527598858633306 8.688601117960088
Fe 5.929316709761999 7.626088781660249 9.242335357144679
Fe 9.840791397787786 10.451649680115885 8.75851441885371
Fe 13.402315657410352 11.971958516930595 9.118593684026838
Fe 7.700396451228452 11.265061517376921 9.533837599348118
Fe 10.329472699062196 14.646602099293403 8.967524218238657
Fe 14.156335341876975 8.098006695935668 8.9875072793027
Fe 7.371451099639885 6.418742409075413 10.559121776343204
Fe 11.954604286926246 13.391494796278012 10.466420168115224
Fe 9.21384030005072 10.487731360232127 11.341748178428483
Fe 8.565607285079953 15.04817873391475 10.52316696370817
Fe 14.165058500852027 10.22506729043675 10.503125977874427
Fe 5.723457706960545 9.804291062493453 10.09283290453645
Fe 12.791618722319342 8.485123900974346 11.18722492421844
Fe 6.600837096901281 8.316104032149498 11.715862161651689
Fe 9.59354769857533 6.470795761569559 9.952155819166267
Fe 10.570830029656392 8.723728108798966 10.341145241619015
Fe 12.011559041112148 6.891870712184242 9.60046361244648
Fe 11.713688480428866 10.883139118952965 10.650826858963885
Fe 9.67450068563435 12.574847852228931 10.211055250339614
Fe 13.399160459409774 12.251910023780283 11.880011400107147
Fe 10.849164524690394 15.23374170349581 11.293169317549404
Fe 11.994905413987798 13.89355818943646 12.94242761217445
Fe 13.47441653840018 10.010636076700711 12.868367849287432
Fe 9.364614129500232 14.02541619803718 12.643297120876335
Fe 11.045211928595883 9.45860916868579 12.672331881283505
Fe 7.5683734620587275 13.013679103158678 11.29303626979939
Fe 6.977462830841062 10.75366316073264 11.852137687423719
Fe 11.14094811127759 6.891209781844388 11.979302313069569
Fe 12.721304535219808 7.74386194384602 13.614311112471261
Fe 8.95388910897906 7.836089186222133 11.931403802376927
Fe 10.630129506035594 12.101587558676588 12.43956049952761
Fe 12.233690023934189 11.596891965212821 13.987840534973019
Fe 8.320570952354117 11.953359641488467 13.388197542233222
Fe 12.14118849897647 9.297190320314462 14.980156592578764
Fe 10.158517822418817 7.881111526910233 14.098044376999788
Fe 8.305960642669262 9.40882234862508 13.520948698710693
Fe 10.05625677900359 10.618935439312382 14.44342169417734
