51
Energy = -360.32297883 eV
Fe 14.17949154741685 12.602870028648898 7.4912342403166665
Fe 12.239984254657614 13.890560942993579 6.856101791880285
Fe 12.607718871584709 11.46593987273032 6.1104228841797
Fe 12.859473868892705 14.27953991128723 9.15819013500727
Fe 14.247792084388092 12.472243494053961 9.88105269505037
Fe 13.621551762513532 10.205212277051265 8.318231310518161
Fe 15.084012453287018 10.088182269890618 10.237496751370012
Fe 10.358226063161288 12.350962058246088 6.637629087598518
Fe 12.22269894274562 7.9821450518667625 8.006091902782757
Fe 12.062177247156072 11.97061809952631 8.44390545076397
Fe 13.214818604956463 8.402852458633678 10.165327125255587
Fe 10.51096607682652 14.078207739018861 8.587465236284654
Fe 11.262717406468914 9.98671311423806 7.24691672225543
Fe 14.684201355815608 11.581316454140197 12.280805158320756
Fe 13.019996960164134 13.239720462720323 12.140846731272147
Fe 12.803215448471871 10.878181383092908 10.675738669420799
Fe 13.941589211434481 9.327561508615634 12.29412119239451
Fe 11.181484386680687 14.81162907093722 11.32734363856059
Fe 11.156704693409278 9.804894779582192 9.41553797318936
Fe 9.662771725687305 11.63816182406587 8.789294950834618
Fe 10.916093557365162 7.498572902356572 10.07997811292114
Fe 9.776517558305777 8.117180568668733 8.048068506800057
Fe 8.934301366235823 10.040440327458999 7.016308059814356
Fe 8.21507975809394 13.34515543376642 8.299078504085294
Fe 11.443220828260882 12.753684861156888 10.482679179465803
Fe 7.2231909964248935 11.043620260538578 8.13537290231764
Fe 7.2433369706568485 8.50415911429498 8.350890560443453
Fe 13.81015389531637 11.00356252484795 14.442483543100169
Fe 12.127888762871839 11.174387005210608 12.898050674916636
Fe 8.734525676644955 9.49321407840165 9.789183205938517
Fe 9.959987745957195 11.05290779525146 11.162243060029157
Fe 9.17252854256051 13.537160205945682 10.592595186487932
Fe 8.565636501861855 6.930288783646721 9.73286614307297
Fe 11.426442051292009 9.194872571539076 11.799452614663924
Fe 12.48399662649569 8.98924422285436 14.011592565439308
Fe 12.15128285806216 7.1779734969581845 12.24045526382414
Fe 10.531094079699221 12.977125336314929 12.73356219274284
Fe 7.598410586452234 11.839124829451155 10.327817830825472
Fe 12.071164583057085 12.954002907753855 14.453908082425428
Fe 6.161760189348814 9.88056646446017 10.024449296936195
Fe 9.383932287749035 8.116374018245773 11.852072387761076
Fe 7.018527859983767 8.023271674343787 11.09509860141408
Fe 9.81035963861389 10.34800226268797 13.345259459058
Fe 11.435018248531305 10.691896161673053 15.220808683636228
Fe 8.270840740470497 12.429641964397906 12.67711256161812
Fe 10.321966297732514 8.177982590708671 14.107532432195367
Fe 7.713731812417375 10.115413132167419 12.004164110937504
Fe 9.612058887052967 12.219990639276935 14.884655914518046
Fe 7.957501239067561 8.63518320748444 13.833480727553283
Fe 9.324245749943522 9.724464411178204 15.67295675952041
Fe 7.594887659956233 10.921869274825891 14.4152179210213
