51
Energy = -361.84608809 eV
Fe 12.510720359223907 15.986693019951993 11.375773441059152
Fe 10.189003052909401 15.412960723736761 11.138970663115524
Fe 9.704301855211323 12.909327287932545 10.901799990346792
Fe 11.578015339119142 14.423589084105803 9.466866759048546
Fe 9.141365867385852 14.152922660187981 9.05105912852646
Fe 8.492953632177652 11.929089388504925 7.966185433767907
Fe 7.8836908580192055 14.47446495606455 11.104642327963493
Fe 10.880094476968253 12.198318788024599 8.637705828916411
Fe 9.479001250235658 10.60900039806023 9.779286824098934
Fe 9.743822585458854 9.831239871801134 7.7049557504792
Fe 7.3076029865554535 10.007738990709148 8.626761164532383
Fe 7.5956010979107536 12.134397322096067 10.160871180336747
Fe 11.979203899800629 13.621072839756996 11.71055270544639
Fe 11.628681457883154 15.069929579256147 13.522290795690813
Fe 10.652773918164186 12.298567845355683 13.22973326701183
Fe 10.617896574278255 13.563590735952596 15.219037122889345
Fe 9.226753460615479 10.636505946761295 12.151097620556259
Fe 9.351693951279572 14.223820712474867 13.107005002752818
Fe 7.321363789642152 9.852963376742114 11.03935194796343
Fe 9.004636801952916 8.335714462566234 12.335668551704066
Fe 7.495769878607329 10.057540416338165 13.607320230144737
Fe 7.751040043438504 12.430255230192193 12.630949297795853
Fe 8.930785914859337 11.670273062432495 14.653960217889056
Fe 8.784398303343657 8.444678624502128 9.577712642768775
Fe 11.183279640383992 7.943055504038838 8.796543022295253
Fe 10.843063561637255 8.843150453146125 10.83783377325397
Fe 11.304862339631773 11.218830943826456 11.025400932534065
Fe 11.514400980938047 9.806643345245078 13.009185800517617
Fe 9.678511500716228 9.300881135404625 14.404298086319272
Fe 11.292423065436015 7.496935973205318 12.949962977925379
Fe 13.738549411881676 10.160883846780857 14.250337432137698
Fe 11.466985960622953 11.083301717763737 15.155782789138364
Fe 15.118815198893317 10.521719619962031 9.789673547299815
Fe 12.800358160306912 13.121260941831732 14.56506340783819
Fe 12.012972171430581 8.618269884756385 14.965905892612334
Fe 13.640786913563069 8.155833475892353 12.936960550532465
Fe 12.795117172116518 7.4713089717756676 10.809297595455849
Fe 13.097649977483123 11.754024075938139 12.689354349272756
Fe 15.323444504767853 10.239981799437194 12.382663025212441
Fe 15.065076567870802 12.35293207198924 13.821735179745135
Fe 13.279275014432242 9.904091341735999 11.163612073440515
Fe 13.755214961334092 8.652311716967047 9.060629844555006
Fe 15.19410847765465 8.263238210181632 11.008312736503257
Fe 13.717493318524163 11.10636285571375 7.927829513285224
Fe 13.150711070684391 13.433950757688251 7.917551764279305
Fe 13.054866533439343 12.16653528009038 9.933753375091674
Fe 13.974213722192212 14.36522849251659 12.763547269332369
Fe 14.938459293666696 12.514443859635236 11.318710350695197
Fe 15.26419788233565 12.862282045454608 8.892127740881142
Fe 11.857851502395288 10.087832485037902 9.014941886610197
Fe 13.92887334675718 14.52278715820628 10.152160900703274
