54
Energy = -366.93423178 eV
Fe 13.451967222609293 11.606171291921362 12.638779734294125
Fe 13.287434798967327 12.423146498311981 10.393758233372132
Fe 12.83158688777933 15.080077679573366 11.066193861359
Fe 15.647078429291577 12.07876574345718 9.295135444629302
Fe 11.248954820300664 16.403318814995547 12.27371092443249
Fe 10.324046277929185 9.546451057616595 16.77526968643767
Fe 16.780943369993935 16.29128884930257 15.173080689920342
Fe 11.938210181546857 11.428171470467257 16.92823082027693
Fe 16.49826362865686 13.10957993949135 17.539804099621005
Fe 10.526410985426866 8.789972822280163 11.97774470843388
Fe 12.693287357258523 18.20022672693622 13.070920738641233
Fe 14.31449007438184 12.470681572294161 16.613266679128117
Fe 12.056365360517637 16.76061513465147 14.735472686529844
Fe 12.529457166156448 13.669788124071975 13.060317234873649
Fe 16.319887343031056 11.838997428127193 15.46299318715381
Fe 12.46582863303976 10.075748324935565 11.162199595996753
Fe 15.51343774457474 15.354323796916331 13.569696481269398
Fe 10.370608369348284 14.894859037095136 13.857103425404357
Fe 14.570526514002292 13.010110916744635 14.124412658219432
Fe 11.635280110241109 10.339080551793977 13.467914186901492
Fe 6.987682174638023 14.717287021392776 11.454033334245272
Fe 17.74656131779857 11.161651715095747 13.410742576360539
Fe 14.371256113714397 16.300788754182825 16.03765995556444
Fe 14.368161838038233 9.001680317981545 12.657934108286335
Fe 16.76044677253685 13.441217729160023 13.45322596184406
Fe 11.84988662500985 6.337947001669414 11.834470145171531
Fe 15.72200818404803 14.303317902370772 15.852724029962022
Fe 10.018057323937633 11.298410851698176 15.403544921515723
Fe 13.808380648154715 12.821368116966305 8.096608284544804
Fe 9.993489114182626 15.853814883878583 15.866942120663076
Fe 13.547570048460903 15.747286429105156 13.313534105615085
Fe 8.706709438727259 13.700809399096793 12.744752708012747
Fe 12.458531322489344 12.191800853686276 14.856376662195377
Fe 14.78199159417224 10.4020458444308 10.912133191740265
Fe 10.513965757086906 12.626601110550045 13.511417349252486
Fe 16.264071461132694 14.040481504284157 8.262047609115736
Fe 14.407317269087324 14.527966436289033 9.492781393731388
Fe 13.805627130907224 10.392391023510893 15.17276195160121
Fe 11.799119893966148 13.821574306990556 9.205832070868391
Fe 14.707502200647157 13.86828752264901 11.878251974349627
Fe 10.790070779634098 13.722408480864267 11.375519897514724
Fe 9.250525737104704 15.654234464518796 11.576982712111196
Fe 10.860179665859599 13.630512199128718 15.937533710415732
Fe 14.901258554318565 17.58831489302862 14.265271644265797
Fe 9.305880734170307 10.799003628395091 12.952095876705723
Fe 16.64544330203129 14.119993635455709 10.582601070779388
Fe 10.579361549144885 18.51802485368247 12.169648151192582
Fe 15.46202606779573 10.841776818383284 13.559621312544312
Fe 16.225228804679872 12.059893365825936 11.585576302440922
Fe 16.80379806824617 9.733026314826342 11.806328328821202
Fe 11.081472562726976 16.076142562038484 9.994440539386323
Fe 9.975328561416315 9.026309167014043 14.482865264841669
Fe 13.050277575969211 14.46302513505402 15.472129415540765
Fe 12.343156675266401 8.246170114641574 13.209175341023208
