50
Energy = -351.23407965 eV
Fe 12.485642563371865 11.989187644544122 6.523527729541991
Fe 11.767003693889603 9.849555845177099 6.031942699936486
Fe 13.989928684537457 9.826712880854352 7.090061755672872
Fe 12.245656446277073 8.436444944537929 7.99428999643584
Fe 10.156357898367993 11.6120108688088 7.388412189122364
Fe 14.059987810024184 12.058706832123185 8.43293109389314
Fe 14.347218019341103 7.714502373500839 8.726897405447062
Fe 11.888826003117535 13.219070359738142 8.669338926219156
Fe 12.017132440473763 10.717797826288242 8.413231674909989
Fe 9.862864738248913 9.202122034618574 7.205313175190493
Fe 8.223169853395081 10.81194095365773 8.679316155356945
Fe 10.241734915937347 7.356002316177269 8.864794058882794
Fe 12.330202582511165 6.719911555125832 9.8569079863755
Fe 14.289054445408784 9.900574115153915 9.43727996629679
Fe 7.979353436847505 8.336217895469971 8.688817111845903
Fe 8.694280118633666 13.163773688718345 8.841763615976948
Fe 12.3207712380405 8.957342317293318 10.451973674395319
Fe 13.828610957307733 13.831440635395275 10.111982996900933
Fe 15.250723203830795 11.85767909657061 10.590236230868566
Fe 10.374337485450049 12.09763263995514 10.01471688868339
Fe 6.502445534555454 12.24047870348473 10.393011420392972
Fe 14.317292511385094 8.04779369457593 11.110351476320124
Fe 6.427152803300587 9.810028713863145 9.878360761630546
Fe 10.156692712093395 9.699343604750226 9.516628521334496
Fe 10.34461866201863 14.644582333608271 9.900968229079886
Fe 14.079432372525135 12.890794311822411 12.341654259999222
Fe 8.53290220428231 6.580346233284233 10.131295128449526
Fe 14.167048656469948 10.31058445554582 12.017926520070263
Fe 12.72328955575225 11.504957622953821 10.480152628943173
Fe 8.381260134597147 11.280496052087184 11.005839167227322
Fe 8.521731530588148 13.73320410585902 11.212273349555835
Fe 10.47384810913728 7.572535094265752 11.263665381017084
Fe 6.392199738596229 10.28380623237967 12.124007774550112
Fe 8.45184564367261 8.895560660057328 11.106460201408392
Fe 10.579765455914426 10.203295675864858 11.80351519962625
Fe 10.447147718555879 14.975585817398512 12.431831896250896
Fe 6.563783621984576 7.56712689448187 11.323270101006974
Fe 12.24420817902478 8.957615071196585 12.834676438331789
Fe 9.937157846106007 12.44261036612511 12.462455327910131
Fe 12.242647475812566 11.616647196382997 12.829905949430229
Fe 11.881895722521158 13.579278436350132 11.373954394793257
Fe 7.364482725368119 12.430176964159436 13.006857523447707
Fe 8.31161044429816 6.66584374278937 12.480874047303184
Fe 8.628387441620596 10.488772568863057 13.310622540345342
Fe 8.723898993965953 14.209249506914805 13.76285878839152
Fe 9.852875425190094 8.434733585590287 13.393998567018103
Fe 7.373895290332925 8.614999474454745 13.46885446973915
Fe 10.908086834762383 10.578529482306687 14.348224482277438
Fe 11.329706253337596 13.42239648772361 14.094247850482585
Fe 9.260510690902299 12.26839039809024 14.86667863272604
