50
Energy = -347.3917829 eV
Fe 11.669541027171297 12.144543313202727 7.260719438029877
Fe 12.370358206171986 10.14465443058916 6.189755285805857
Fe 13.064578661440702 13.363723234479819 8.976848830306157
Fe 13.892661518257581 11.016692272654701 7.889315649806815
Fe 14.775606479771634 11.926428141921612 9.981102679817752
Fe 9.96280168319681 10.658966568447442 6.1526434252658735
Fe 10.903175192764527 8.294375049606229 6.803458380514351
Fe 10.45276816370642 9.998992776105009 8.479040108545599
Fe 13.109061854333037 8.604478958923256 7.9058045272285264
Fe 10.939389561436158 14.24019152780964 8.18533992912411
Fe 13.74805686088833 7.111948602917993 9.749243030784202
Fe 13.246290148567764 13.149019703090207 11.481183760635714
Fe 14.469332457633518 9.463043731845794 9.815816114162391
Fe 13.821375007110964 10.746622344143002 11.854937307073921
Fe 8.502648484194445 9.002098641638746 7.283149884815278
Fe 7.574333019723332 11.214491732031167 6.791605295860335
Fe 9.266990696484651 12.612429382646491 7.594270741029315
Fe 11.865574141666217 8.898808913276481 10.148020548626498
Fe 12.276966144042154 11.198982169641448 9.651022680792375
Fe 9.302716735071458 6.799639587178987 7.879541740411479
Fe 11.556947333773152 6.804217999974481 8.728992168509286
Fe 9.024351315552686 13.914663843014754 9.623159532560143
Fe 9.002937178161222 11.380177300651452 9.810381264779005
Fe 11.79593218804504 6.6205139056136035 11.238227419176281
Fe 11.284276230242902 14.388035235856103 10.567224317168899
Fe 10.830054318735284 12.104543441005205 11.34355466961391
Fe 7.5507602957819655 7.835225609091766 9.265959611544535
Fe 13.566895888372526 8.288033564266039 11.890839700663022
Fe 6.986041027543454 12.693022234802175 8.762151960910705
Fe 9.525811948779989 6.544484414309069 10.263156712815704
Fe 11.17500464196253 9.8311128852721 12.23360226892553
Fe 9.30824518787877 14.034132534009274 12.117398017079141
Fe 6.95996462114843 10.213142630195291 8.854844816433125
Fe 11.586908906790852 14.16478718883434 12.976300941498835
Fe 9.385429171048296 8.945599561124085 10.448470200485385
Fe 7.136760032921434 13.744185262246654 11.034562216504469
Fe 12.385490100864462 11.947139877714584 13.503102789601233
Fe 6.620971478529634 11.433387287610934 10.965283036221612
Fe 13.185969211233749 9.66316116111273 13.920383520111285
Fe 8.984756113889246 10.796452720988244 12.15062075796079
Fe 11.602467554038727 7.859293826825577 13.47216499532427
Fe 6.1101486067607365 9.093655534874856 10.802725520292388
Fe 7.835820676981037 7.741774594653704 11.83745984712971
Fe 9.795492610633728 6.522000597909957 12.636035914017517
Fe 10.021486437482459 12.52774848541701 13.962438006860191
Fe 7.579126476081402 12.47952747140827 13.103174187887443
Fe 10.900221053785852 10.241904362533695 14.597808426308003
Fe 6.9665721390768045 9.86418969764037 12.952072796288403
Fe 9.15390446640907 8.552856324613506 13.78801954253058
Fe 8.521637645767104 10.735510266184665 14.631676384067218
