5
Energy = -28.9600453 eV
Fe 6.8054099817297375 5.72685940506792 4.573499449802597
Fe 6.132857262438678 5.734764374057625 7.164988773397817
Fe 5.448585230030851 7.2424380615524715 5.601288270627174
Fe 7.7467887317078645 7.047796363842906 6.202722384231507
Fe 4.805923317784586 4.975213751908072 5.4349843782071146
