55
Energy = -389.01082762 eV
Fe 15.311378296365048 12.220066315707504 10.981365344388646
Fe 12.500312434721298 15.341217457896388 9.616479593850135
Fe 14.494979883494503 10.577944668675983 9.256967314918631
Fe 10.107901278736177 15.02413176458365 10.072570087946717
Fe 9.012944129359527 12.849170344686916 11.48017234005708
Fe 12.692082406892943 18.196677203130513 12.921124947331997
Fe 11.450090629204263 9.711462056699126 15.369236853787875
Fe 13.44231702891414 12.998903793230115 9.641770993635596
Fe 16.003068645227167 9.969636580739655 11.090800227387602
Fe 12.699281851045198 11.483258283625256 7.863097965687399
Fe 9.953174682302159 14.87464917223791 12.47409926555401
Fe 8.25422927673496 10.881210319190286 10.124172137934034
Fe 14.154750893883522 16.092305561512514 13.196483098828203
Fe 8.775058460126248 10.498884028875171 7.827088245548067
Fe 10.322158314030276 12.043282468769446 6.9253831861867
Fe 12.322235179988777 14.718854036358884 11.884392099670912
Fe 15.244123527873256 8.447457485822177 13.43451716024544
Fe 17.21125043985095 9.640430689588865 13.030436264606612
Fe 13.43571827850672 12.67948732119885 12.362337311429721
Fe 13.835646544544682 8.893286766076749 11.277482469505175
Fe 16.64764992448986 11.891028010745474 12.934097394010195
Fe 13.165303351240468 14.189307952932964 14.250064136783674
Fe 7.54944787823564 11.213449495099113 12.55035581105283
Fe 16.170766233859684 10.365861794660006 14.924613655283737
Fe 11.401111419499705 13.615052408344997 8.31650232759416
Fe 10.204657844732717 11.884797416570821 15.636323134919692
Fe 8.752948144238664 13.205354162621145 13.885215849340277
Fe 11.190253321344274 16.840916039347317 11.288073030536594
Fe 12.091872251607967 10.417462558404715 13.068703611205876
Fe 10.440739991633516 10.857211743688186 11.408893523339696
Fe 13.56492175908288 16.85301945765774 11.09570772705368
Fe 9.702067627364494 10.80069412593999 13.654342847693004
Fe 7.833115619650811 11.343795105595792 15.030727829638474
Fe 9.114299309413516 12.895028683375903 9.040727196455983
Fe 10.818955797626966 14.20591654887086 14.861589755196587
Fe 14.591274800025948 14.706238163218101 10.957727533383313
Fe 12.510720797727675 11.93833281242342 14.826179302842846
Fe 10.289061630949352 8.51939639452048 13.619961259760817
Fe 12.83141211876621 8.31846618160668 13.55837936799283
Fe 9.91531524209269 9.08513783874152 9.413575796471141
Fe 10.793181617065988 11.238430996730953 9.151173531775111
Fe 11.077152075224683 9.736521642856353 7.224005186441576
Fe 11.363966434806516 8.823123166953662 11.39080413403884
Fe 11.294621309302054 13.047304070083044 10.639847434774516
Fe 15.463386801017649 14.112505830451664 12.985729149278125
Fe 7.745931738530176 9.146461511359206 13.803174532822638
Fe 14.87500804379087 12.338994712708104 14.57172273243489
Fe 9.16416001886006 9.43181393755019 15.681652378029552
Fe 12.767473817394313 10.983625260180332 10.770381368761376
Fe 8.841127864349351 9.165512252851146 11.755484341534567
Fe 13.876185242437753 9.877773195201517 15.154270540477984
Fe 12.433067105577127 9.24890656501654 9.121580393988587
Fe 14.462525086944863 10.579850780872874 12.907891299895816
Fe 11.074040973596173 12.735763128825443 13.063237641642862
Fe 11.712162125717347 16.197217235388308 13.579894835047261
