55
Energy = -385.74631984 eV
Fe 14.01759086906203 12.060210618156292 8.28763258556246
Fe 16.261745796123197 11.69003964453136 8.03913325798261
Fe 12.916918619053778 12.495392157470123 10.284999997902089
Fe 13.615355114616662 14.425753490769296 8.693874280197909
Fe 12.94747914298616 16.75082907022872 9.549231064250936
Fe 11.04351642821602 10.77474131907605 10.287849284499536
Fe 15.459576840130197 11.612802948655165 10.214282880584532
Fe 12.170779084217958 14.816534190911844 10.421332360577232
Fe 15.879590400413418 13.729039973149131 8.941043187284842
Fe 15.138244876142481 16.115533531505548 9.843908986462427
Fe 13.402433471978677 10.251108075664849 10.402063705109475
Fe 10.843485319222948 13.048750577278659 9.510053779122003
Fe 14.332690053605939 11.776985972643123 12.25110764102767
Fe 9.229359601815998 12.052939955430958 11.188635124859717
Fe 14.756635205140375 14.138334202902412 10.933205660395839
Fe 11.656582561705143 11.685285541886884 12.558454606913237
Fe 13.668498478319348 16.282124033549312 11.657302088916131
Fe 12.950077694928199 13.753738540359102 12.29743786322592
Fe 10.51662852113549 13.867063613277299 11.796959084086987
Fe 16.711076669978407 13.18628657633565 11.677470135861142
Fe 15.905704898734545 15.737212589672646 12.331989291779777
Fe 9.60117014916782 10.047018177934842 12.182421432958893
Fe 11.921251168799229 9.337199044331582 12.221604605523623
Fe 16.559562625555344 10.770361722845006 12.228758173632073
Fe 9.542661168220683 12.314936234907996 13.633698060359484
Fe 17.6174747201357 14.599360257423545 13.59199188326995
Fe 14.649656887711537 17.32715691427879 13.754568503813571
Fe 11.43094270695563 15.934613477310808 12.626833880383268
Fe 9.461030082335817 14.859320027270133 13.741726778814519
Fe 13.362954497791769 15.50419374837662 13.908989040839591
Fe 16.78014046434023 12.320589450865858 14.069067916862604
Fe 11.493054775320454 13.850888496856527 13.994619504124486
Fe 14.48146784985717 9.445484015624205 12.411242402172967
Fe 15.117623406404817 10.7032697510212 14.40489286144006
Fe 13.397242765752143 12.434044269774935 14.278681177682909
Fe 11.393457159796235 11.869796958005603 15.267342063558548
Fe 15.120763527011375 13.813554404256584 13.411837889862694
Fe 11.31317449508072 15.882786891788948 15.219759376440964
Fe 10.41450233301427 10.068146640250022 14.307670621323021
Fe 10.018038965314984 13.701769782198227 15.887572876567617
Fe 15.6076164188227 15.51837816676323 14.859387223684472
Fe 15.15385000778167 13.101157168585518 15.768706361557486
Fe 12.835681932969644 10.086202693098663 14.267613256210904
Fe 11.469163162073519 12.482223391092827 17.51898852721973
Fe 12.955274687570626 14.094694509772193 15.943868097639808
Fe 13.670691613347914 16.441197041573194 16.02751563123999
Fe 15.807681406368621 11.264838663919 16.68265747926546
Fe 13.391293717926095 11.404245782976526 16.39597056128053
Fe 11.867325720736797 17.159882023329747 17.27671168814265
Fe 17.22807642897828 14.00601957642622 15.773369600478015
Fe 11.412525958913827 14.880900687060091 17.478628091897015
Fe 15.333359771960701 14.97885868515855 17.111564018191036
Fe 13.798911543412155 13.212611213030307 17.936372650258665
Fe 12.070216248964357 13.821503697938622 19.412761851605296
Fe 13.40252689892617 15.616424725348377 18.338973959943335
