54
Energy = -380.06012964 eV
Fe 13.325061092332424 12.92428213 14.209406514199177
Fe 13.0181673366962 12.92428213 16.737220929575333
Fe 10.912331432693168 12.92428213 15.354989170341717
Fe 10.757744528746294 12.92428213 12.92428213
Fe 8.683806705508404 12.92428213 14.197512036376784
Fe 16.26503444893822 12.92428213 14.384311465845393
Fe 6.7389264881255135 12.92428213 12.92428213
Fe 9.343051648606236 16.86812649582838 12.92428213
Fe 13.325061092332424 12.92428213 11.639157745800825
Fe 13.0181673366962 12.92428213 9.111343330424665
Fe 12.23522671249152 10.989871988717242 15.540894508509886
Fe 14.758954552576037 11.600109808663833 15.788186524762274
Fe 14.758954552576037 14.248454451336167 15.788186524762274
Fe 12.23522671249152 14.858692271282756 15.540894508509886
Fe 10.912331432693168 12.92428213 10.493575089658288
Fe 12.23522671249152 14.858692271282756 10.307669751490119
Fe 14.758954552576037 14.248454451336167 10.06037773523772
Fe 14.758954552576037 11.600109808663833 10.060377735237724
Fe 12.23522671249152 10.989871988717242 10.307669751490119
Fe 12.280953780836963 10.903200356214024 12.92428213
Fe 14.970589350426577 11.494257254042791 12.92428213
Fe 14.970589350426577 14.354307005957205 12.92428213
Fe 12.280953780836963 14.945363903785971 12.92428213
Fe 11.471898344003367 8.965220280639052 14.275474427528927
Fe 16.476382539286565 10.336494331116484 14.476043715868949
Fe 16.476382539286565 15.51206992888352 14.476043715868949
Fe 11.471898344003367 16.88334397936095 14.275474427528927
Fe 8.683806705508404 12.92428213 11.651052223623402
Fe 11.471898344003367 16.88334397936095 11.573089832471076
Fe 16.476382539286565 15.51206992888352 11.372520544131062
Fe 16.476382539286565 10.336494331116484 11.372520544131062
Fe 11.471898344003367 8.965220280639052 11.573089832471076
Fe 13.94865074575151 16.035328344617877 14.332392260983891
Fe 10.121013789077674 14.854649478576182 14.110587759588716
Fe 10.121013789077674 10.99391478142381 14.110587759588716
Fe 13.94865074575151 9.813235915382124 14.332392260983891
Fe 16.26503444893822 12.92428213 11.46425279415461
Fe 13.94865074575151 9.813235915382124 11.516171999016116
Fe 10.121013789077674 10.99391478142381 11.73797650041129
Fe 10.121013789077674 14.854649478576182 11.73797650041129
Fe 13.94865074575151 16.035328344617877 11.516171999016116
Fe 10.892508393184931 7.157508260889354 12.92428213
Fe 17.852182737262705 9.29015101046188 12.92428213
Fe 17.852182737262705 16.55841324953812 12.92428213
Fe 10.892508393184931 18.691055999110635 12.92428213
Fe 8.091563576868177 10.894427460829553 12.92428213
Fe 13.174635896599385 7.953890222009739 12.92428213
Fe 17.803592519274204 11.685409942259568 12.92428213
Fe 15.569549716264069 17.21177664661965 12.92428213
Fe 9.343051648606236 8.980437764171617 12.92428213
Fe 8.091563576868177 14.954136799170453 12.92428213
Fe 13.174635896599385 17.89467403799026 12.92428213
Fe 17.803592519274204 14.163154317740428 12.92428213
Fe 15.569549716264069 8.636787613380351 12.92428213
