54
Energy = -380.21288732 eV
Fe 14.50200764659711 10.35640104715311 12.207364365387601
Fe 13.20607398669814 12.115176326486658 11.004005012005104
Fe 13.133726301778504 11.75127739331429 16.04701855122711
Fe 8.01794206346481 12.502879639561298 10.471264913120285
Fe 14.355247880492355 13.725717213112922 14.927712823311671
Fe 14.621007516279954 10.113645483573672 14.669638169976615
Fe 11.801123925934016 13.674819095558606 12.402798200148114
Fe 12.216447173847685 9.971809456442141 14.610493438899812
Fe 10.609152613289078 15.17852862393254 13.916954975609292
Fe 15.71802105081696 12.316280165149902 11.20792635911429
Fe 8.740766416069981 10.798303122785041 14.44089193691087
Fe 10.229343604460396 9.182893034234086 13.193780651882326
Fe 9.44726279552793 13.466476549455331 12.17894969164572
Fe 12.213383694099427 12.936219512181246 8.959772458295621
Fe 15.793412891195908 14.523540001744461 10.618502032892277
Fe 9.31940823719399 10.747580084012618 9.263629939239774
Fe 12.05548433131809 10.319524792704343 9.40404955286935
Fe 9.75698714799567 13.054749144814776 8.711287370752201
Fe 13.195662822503984 11.849016280170755 13.418084388157977
Fe 14.644436849358629 12.906075831736544 9.16746246788524
Fe 10.98052441078834 11.311648344347434 7.514431964538963
Fe 10.734100305092573 11.982058963343627 10.711437135351073
Fe 9.373984541607399 13.172978423479456 14.873579122948591
Fe 7.610945839728362 12.440056900607061 13.088968893549335
Fe 13.353354932548601 8.697191073020527 10.895908985261196
Fe 14.165558143030154 13.82332646779397 12.534387009226233
Fe 15.685404642092454 12.062784675851626 13.575629332959574
Fe 13.040851983362904 15.529780851659849 13.965434113908401
Fe 9.014817040670671 10.77905526111477 11.88835649901117
Fe 14.617499188920696 16.015150823817265 12.104423270144231
Fe 8.243681246333326 14.861898212961217 13.79926176346757
Fe 13.27811314041661 14.497555712080686 10.39543485470355
Fe 16.304034944602325 14.316775140200171 12.973771921392412
Fe 11.919741222221587 13.37675448490709 14.82415860808288
Fe 8.71079161704707 14.686743646764231 9.95919644319714
Fe 13.499531210310398 11.160959210802783 7.720181420695531
Fe 10.68981186333725 11.4211371130248 15.80235469697358
Fe 12.089893462884413 15.982715741958186 11.915343613095189
Fe 13.364673529084868 8.410310253109406 13.280128772232462
Fe 10.389171065594303 9.093408633881767 10.67017683665921
Fe 14.553807607249848 10.513032620437217 9.847030155126133
Fe 11.024643154266958 14.401749532376337 10.2951195906368
Fe 9.56595801106483 15.808484479594474 11.898488866766916
Fe 10.799439673785807 11.737993349103153 13.350038092542519
Fe 12.049288810236053 10.219774630372633 12.002605074396842
Fe 13.755215685790363 8.629642351577019 8.51933111046139
Fe 10.19611574022721 9.094804427828382 15.585823194887464
Fe 10.303038664524557 8.878888971027312 8.217829617265684
Fe 11.948032278106213 7.6238134346858395 9.356141469146593
Fe 11.46287478795412 7.528376897159916 14.4155434273329
Fe 11.610949863772433 7.504518867296732 11.94369167432358
Fe 12.127060609510133 9.368655050312347 6.962921372529022
Fe 7.1710578371458835 14.555956961151919 11.71884584491175
Fe 15.441215611508435 11.903674669377008 15.883818015531581
