51
Energy = -360.46993425 eV
Fe 8.957533949942267 9.481085643171575 5.217755168406475
Fe 11.635553034412824 8.496577930877924 6.491814990005834
Fe 11.063215036003212 10.946333040396633 5.96953882157269
Fe 7.285054276209816 7.960447699906501 6.188805682962781
Fe 13.359072808779535 10.111061743702376 6.463497624055296
Fe 6.930480183195296 10.114784269394157 6.971274434592705
Fe 6.491927739369417 12.393960253356008 7.748693409935001
Fe 9.395186448396652 7.23209687495132 6.756114949034416
Fe 9.563813088372298 9.728295967282154 7.341814404658747
Fe 8.541926317606999 11.789498665080874 6.330708263668058
Fe 11.505597409031832 6.212532632367027 7.729859443166925
Fe 10.516114001453253 13.375093641841653 6.312418509043299
Fe 13.228519585067113 8.280392900744264 8.84249135937838
Fe 8.071509496579731 8.51410645682249 8.68178545504419
Fe 8.051127745782544 11.141912530284344 8.849393094160359
Fe 12.595362731353939 12.34022615328133 7.337801579268245
Fe 14.136660842653145 10.716218546206383 8.63206639081914
Fe 10.645441637308664 8.052503088422833 8.647340416220175
Fe 5.772233873419188 8.110505259955843 8.243388908724903
Fe 5.861425231159121 10.437471517832453 9.326722103775056
Fe 10.276154779892336 11.882883462641601 8.118931351797288
Fe 7.223250353182664 6.24140634188114 7.979429463933304
Fe 11.876309529499057 10.094006276236478 8.373626694599487
Fe 8.600635936303577 13.581926485388838 8.138347477722565
Fe 9.313153776562851 6.0737056173521395 9.030626759802066
Fe 11.130146252849334 14.059581096369332 8.60569728005097
Fe 7.320019764922169 4.8568032725319625 9.931791246650622
Fe 9.724529463951281 12.89941646004644 10.237064444368036
Fe 7.228656966088068 7.202185602809256 10.445033930641069
Fe 9.893807371084907 10.297609995211237 9.948617626334972
Fe 7.70609870756517 9.559020615024147 10.831712605562505
Fe 5.304478451957925 6.2057336101925715 9.786084947342294
Fe 13.355185214285656 7.751831212652844 11.290899120881162
Fe 7.0766802200034835 12.51196950859316 10.39963821862083
Fe 5.119915378602656 8.570705229329926 10.541088795235444
Fe 9.196887342102675 5.673746089893269 11.424411570764994
Fe 11.611661384651823 8.980303613309381 10.649743038478528
Fe 13.456120454769135 10.260144456411172 10.84112736656321
Fe 12.122272399126837 12.073548991464275 9.76962929308056
Fe 8.498625899399403 11.514786159861309 11.777771746520777
Fe 11.610352305702705 6.456216397533646 10.242823342243407
Fe 11.118619227856646 11.321753273658512 11.82962062537212
Fe 5.909860618992621 10.654300551244837 11.827998196697145
Fe 6.688615266357615 5.727353750164005 12.179925960439553
Fe 9.476957836400418 7.907488291524379 10.656646584221155
Fe 6.147177294125435 8.208308710864834 12.575368026382357
Fe 12.175744728387656 9.360021002829422 12.907412947213684
Fe 10.989653021671835 7.212432497732423 12.431888661591163
Fe 7.5458332437248 9.89173146640162 13.358459094732876
Fe 9.794636203844574 9.459611930255873 12.447841998285377
Fe 8.35503134124131 7.529189385913195 12.792282746580682
