51
Energy = -358.86744673 eV
Fe 13.103761009443122 6.990893660274466 9.902795773558637
Fe 14.156277287924706 9.033333453246776 9.246871304014697
Fe 12.851856012509158 6.433555534676144 12.330199996334338
Fe 14.123051191433131 8.571367099563936 11.568380690183254
Fe 11.591398111280405 8.369765672784519 8.454802931647782
Fe 9.687124539794448 6.830462786604938 8.508832947305901
Fe 10.89233168901663 7.015227319563204 10.638891877989176
Fe 11.177631173384412 10.216293610162042 6.703422631787644
Fe 13.837495753922338 11.103615936449838 10.579474831958924
Fe 10.407458831174772 6.3086657744374355 12.931030222698922
Fe 13.849394742703463 8.166665709598105 13.912353873593224
Fe 12.01487376333191 9.299161358573608 10.608035221186302
Fe 11.905402609364536 7.095645555582579 14.741669662539676
Fe 12.654821780023688 10.65920259099528 8.478220404855454
Fe 9.271729183255058 9.06096195772883 7.5567200747898395
Fe 11.697358418748573 8.386157698797836 12.737374905554534
Fe 13.057842996068937 10.3245297326789 12.921092251697026
Fe 9.525761961677299 8.845322868667852 9.950906073576371
Fe 8.450883500080165 6.792115156426678 10.706490799028778
Fe 7.493166672423973 8.101824720278803 8.8660809669519
Fe 9.186491194150868 11.515349520148204 7.265113483736818
Fe 13.985771320011766 12.508814237649618 8.465049311222952
Fe 11.36334979013363 12.65522364960679 7.639110370239565
Fe 10.494888489784573 10.776103118626633 9.151011212521473
Fe 9.906478773411656 8.341588175777938 14.608014402538254
Fe 9.321422758138489 8.379240477710297 12.269721486951665
Fe 7.8665372327531955 10.62442918109676 9.189059360341263
Fe 12.052566053633331 9.604216481592024 14.962718168012016
Fe 13.737262974902256 12.493379162436806 12.54965388081022
Fe 12.877110914208787 14.533407991560336 8.24142725783354
Fe 11.815866787679242 13.030325924136136 9.91618034182246
Fe 9.275500023730965 13.878886099906122 7.001238169267987
Fe 9.265117335878415 12.709048792533967 9.714601798242802
Fe 7.3334297891459785 12.928393635549568 7.847554044672261
Fe 11.650453032351374 12.20912508085219 13.8665858322106
Fe 7.299570319696487 9.149238819825182 11.105489899492497
Fe 11.54350352411951 11.389422978607985 11.477855532500037
Fe 13.987198239335399 13.716643836333109 10.54402946142805
Fe 10.38321650352947 10.36140574142866 13.427296497566644
Fe 10.513328141419843 14.780238201612294 8.7046079871626
Fe 9.273446913204168 10.814231387092212 11.299751961372197
Fe 7.922150877719218 9.815347681350998 13.511261812487302
Fe 6.591464795848266 12.581236076541828 9.96444747983979
Fe 12.035954763433903 14.089495202632918 12.192820314058878
Fe 10.012479648203888 14.935850095336948 10.923487210454605
Fe 8.06520130374529 14.698699148687878 9.264946987734781
Fe 12.31429886916533 15.504959355831113 10.330389882482683
Fe 10.019900189038758 12.938176814315057 12.016460250943512
Fe 7.088977119237537 11.40166264372256 11.92096952211816
Fe 8.711303963386072 12.090499960017628 13.610216448231876
Fe 7.832603360338821 13.770237123757912 11.503359794350551
