53
Energy = -372.6698512 eV
Fe 8.284204036511706 9.09159798733056 4.97603274478616
Fe 9.206695372093579 7.021312045279883 6.3831448696220985
Fe 10.835855393321355 8.842348077420963 5.504722740547459
Fe 7.5087236301269815 10.726407310640832 6.48155678901107
Fe 9.620654127903455 11.183258351125287 5.458748545902015
Fe 8.011099971927097 6.075819634858363 8.224647177817337
Fe 10.234935404468235 5.066160814479069 7.8094589912981665
Fe 9.186951090015036 9.292499370023412 7.0827371717771275
Fe 4.526230256311391 7.970309274796873 6.972977388039023
Fe 11.711635836871784 6.843848059129837 6.80487606573896
Fe 5.50199546195247 9.928195667417981 5.955275885156464
Fe 13.095143561238983 8.705285321911157 6.165022774238565
Fe 11.915916230522035 10.981207136756252 6.114923313997003
Fe 5.877667226031372 11.979370447352382 7.777763931132896
Fe 8.147918488187756 12.881570296175626 6.972996863211234
Fe 10.474922215366602 13.194584632100371 6.401441008774498
Fe 6.929801325229345 8.110080204882548 6.709407268830638
Fe 10.274117066364447 7.429363698388008 8.52806895175251
Fe 11.698803467398465 9.381214088402189 7.873927605362342
Fe 7.884122686640043 10.954066647599708 8.798213346853485
Fe 10.26706175716396 11.443823429663084 7.828281537858206
Fe 7.877978467736385 8.435439069130203 8.935728682943543
Fe 11.964879386566754 5.7946227293497685 9.437631204016622
Fe 5.741552341122123 9.690004500705562 8.303495999810512
Fe 13.159417706610425 7.62081838032792 8.597048820432928
Fe 11.83731036567332 10.955879100935709 9.934166540432031
Fe 7.431815488757531 13.134392727137707 9.47932969154158
Fe 9.865039330165697 9.656048403649677 9.370712211702356
Fe 13.74954404402209 9.307959341481554 10.50166275989019
Fe 9.722700126617658 13.645589512494709 8.737657787117318
Fe 6.106488246961603 8.648794693227877 10.726734601110934
Fe 11.658777912490104 8.385849431445067 10.2896815602508
Fe 9.631418297430285 11.854828390621886 10.271849141358151
Fe 5.900267140689111 7.253704605500545 8.725635484344828
Fe 13.537548892363867 6.982624774034897 11.081771663125213
Fe 8.986434891451381 13.873908027308344 11.1451294807257
Fe 9.566300739329925 5.486339680189716 10.10205865231123
Fe 6.014939111563857 11.191398729687593 10.302255994476468
Fe 12.554008471221431 10.657990173042549 12.255682863324864
Fe 9.215511776249455 7.776989040621911 10.837050466616695
Fe 8.104470857259573 10.003809343089953 11.056734038499723
Fe 10.387489887299697 9.77315462911578 11.756087451113837
Fe 7.228479234268974 6.40004040710194 10.639594074063178
Fe 11.22986929090756 6.485853262010225 11.734804689838493
Fe 10.147445014407559 11.920869635572679 12.588740471954358
Fe 12.443654850608516 8.396982992162108 12.779715057688314
Fe 7.644601829067514 12.12404639475016 11.959314258162536
Fe 8.902680423802256 6.005363801960884 12.453716244120285
Fe 6.256932147821021 10.1378968358425 12.634650890065203
Fe 7.5596492444524355 8.078174336200089 12.698660301628935
Fe 9.935663724144021 8.07916991745818 13.360335665027083
Fe 11.023674591284854 10.072395222306515 14.087480644482534
Fe 8.580180874665878 10.227918728459047 13.551836948773722
