5
Energy = -27.95803244 eV
Fe 8.080922975800263 8.610368647816353 8.185533974650077
Fe 9.043334672698998 10.370142387583485 9.272423733941757
Fe 10.194152301322497 11.607688663737399 10.818340634816252
Fe 10.960107254954144 9.611410590366315 10.579692707057637
Fe 9.823508145927354 8.064609461757186 9.339124065708972
