52
Energy = -367.36519156 eV
Fe 7.209169397481897 10.706427906822716 12.628055628453087
Fe 10.36809245821334 8.927604489851714 10.71749752076812
Fe 5.377173558142023 11.710093220613285 7.719350771817111
Fe 10.283210181782655 13.146040933622771 6.3379581570830235
Fe 9.465122279962735 10.093937394718392 8.716100388865964
Fe 7.237408676060609 6.943973562111444 8.223718595531514
Fe 9.246927630412193 5.5342315223575556 8.479578524470979
Fe 10.100719983758264 11.11420289094132 12.380565561266833
Fe 13.109406797553119 11.270649959592768 9.205706858686387
Fe 9.08229262220434 11.098880687323987 6.565258286063306
Fe 11.959335341144838 9.012190115194505 8.994579154006825
Fe 11.335976370808336 6.997894989060896 7.367501425315736
Fe 8.452381806021025 11.211848999231782 10.666006686902659
Fe 12.564278071752879 12.475534319793484 6.26212070535668
Fe 11.04968415644929 6.601499478763469 9.92548123359651
Fe 11.003522656079625 10.885870439190708 5.121168228714105
Fe 6.712401460393127 10.635288871246553 5.9145427927858965
Fe 7.511707493226716 12.856150527940144 6.800043272544274
Fe 9.356988710864709 12.613702583496728 8.590527768737056
Fe 7.697153762975321 6.550653989539815 12.80423344813183
Fe 6.026686657379424 10.701435198319144 10.290085123481695
Fe 8.569130024171084 11.839790735029416 4.515882402833807
Fe 6.996831954092163 8.52827713848847 14.003577998997649
Fe 9.755528453165015 5.133121807050695 13.613637148280676
Fe 8.590381388093874 8.907436343483857 12.220226597950544
Fe 12.290135748981298 7.725896809674077 11.683707495068175
Fe 11.554173216055988 6.798034411674822 13.947515530290291
Fe 11.332917246251547 11.251658448744267 7.683225257114511
Fe 9.542317750631911 7.816352583246185 8.639963677101377
Fe 7.379046492371303 11.048066812095469 8.35685452047779
Fe 11.757034299064818 5.373136545426286 11.98237820935758
Fe 11.628189177141502 13.368153390536959 8.77270546528416
Fe 10.89503786717333 11.20122791962978 10.110545742428453
Fe 12.719461550099176 9.730629887377354 6.556742168111974
Fe 8.342469968763746 6.930436196345427 10.481928300196387
Fe 9.124197133551974 7.0121011765899715 6.252282529393978
Fe 8.908494234532371 9.285609203261282 4.852570719308398
Fe 7.923609630972146 8.921175269975743 7.102263504826341
Fe 9.794342169195343 13.292693914921829 10.797769241785904
Fe 12.181106539499783 12.762193312063813 11.08257989530811
Fe 7.202702199094933 13.002494423744988 9.582028432707233
Fe 8.96763614651452 10.044075768302646 14.32747058209635
Fe 6.33970103161429 8.469177522594595 11.623028798479082
Fe 9.194274689304475 7.5507861321435525 14.429480632032949
Fe 5.739494254840258 9.264247254591714 8.091708480779733
Fe 9.485232493940652 4.961690706916793 11.050619201823148
Fe 10.505912402310258 9.08405609960685 6.816184826340801
Fe 10.017271326502126 6.960541205965054 12.165676320672059
Fe 12.370366926383529 10.14988182858859 11.518952324021745
Fe 11.003180766340286 8.239504152523024 4.806313025780419
Fe 10.930855447457358 9.026274254372641 13.266930151751056
Fe 7.549348639534484 8.973187905613319 9.695191927133259
