53
Energy = -375.25014077 eV
Fe 9.013398876236927 7.3140517207008475 7.800333350671059
Fe 8.061205837701056 8.959781386274445 6.151825754800793
Fe 6.848142024150628 8.370457978773883 8.26926669850608
Fe 10.465342695320766 8.95357585144742 6.717459478052603
Fe 10.895243242089968 6.483732161161878 10.544178543427678
Fe 10.720073500907933 8.463871035130273 9.140869651641866
Fe 8.687343005748183 7.802056802010702 10.176034901386947
Fe 12.574606863090862 9.15986043666517 7.966585143736062
Fe 12.893830669660703 7.990048201967042 10.604566256416328
Fe 11.893908332810812 6.860330240324414 12.72234961712012
Fe 8.756421434340535 9.591076332897705 8.449839555903749
Fe 9.35212733696381 11.172242262523595 6.4990489405639185
Fe 7.094466910643634 10.859243572898034 7.169661913115047
Fe 9.352627276165036 6.599803248225355 12.338366080553342
Fe 6.43088338743815 10.468124350719412 9.501216460235648
Fe 11.814097564637366 10.82674669120305 6.191278728529939
Fe 6.567584360769521 8.557596227305854 10.79461867798156
Fe 12.279474166787168 10.276039011275218 10.218607937610336
Fe 13.296848017264486 11.329684222143928 8.010419698107418
Fe 10.770281709106447 10.971549800139876 8.51489473924391
Fe 12.37617779023865 9.483939103141635 12.78906205582887
Fe 10.588339259710397 8.627093260153334 11.424730055244334
Fe 14.060376815918683 7.724149663565769 12.67529726853286
Fe 8.736468377788842 10.208868904916201 10.73479808280153
Fe 14.550008159957638 9.558876605309045 9.32559906944673
Fe 8.37566916967059 8.678459972495519 12.480536874962054
Fe 14.325398284435732 9.865911693250633 11.62128771850718
Fe 11.136456793431373 12.906040938066953 7.146724408583792
Fe 6.230079554762553 12.730440250676168 8.407796840206915
Fe 6.718419249013167 10.41927225712105 12.153972931617814
Fe 10.306408171999559 8.263130650917367 13.88304726937708
Fe 14.39017148518763 11.812876402007166 10.228740060379847
Fe 8.485662594749112 11.89573932064634 8.914360645245845
Fe 12.31292579281116 12.880482820577589 9.468418417250156
Fe 10.273752256128192 12.03613544369432 10.706830533975284
Fe 8.529352502905638 13.355343162860137 7.102002666587119
Fe 12.628344061489484 8.294325237349236 14.73604072838338
Fe 14.503147810391473 9.882716048622758 13.944562171096988
Fe 8.617468890616227 10.265714892852587 14.126933426517144
Fe 10.388707451609624 10.602332224650354 12.668878039899113
Fe 12.447462835044554 11.967121395265645 11.80388474689193
Fe 7.070741820183728 12.387314007200375 10.750710060342152
Fe 14.644527834617449 12.148752078093874 12.661565024373827
Fe 7.845811505885034 14.23752460033661 9.26824896890963
Fe 10.14164188410203 13.774604912529616 9.120855889271446
Fe 13.819723952002407 13.982729548776131 11.055474782307071
Fe 11.429999301433332 14.271192608410288 11.297772811071397
Fe 8.454437643752613 11.990736140648128 12.584201691377839
Fe 11.038126539953446 10.174174677412822 14.953088518568132
Fe 12.733462132946043 11.504708505895026 14.069152686783026
Fe 9.004545707775575 13.957372467001402 11.398221295604406
Fe 10.646063813110947 12.90501884314111 13.25355962046355
Fe 12.895040522596682 13.846359633876903 13.293692158802621
