50
Energy = -353.54617053 eV
Fe 12.55972957795136 7.4916526423907595 12.26983383189861
Fe 10.604290799184227 6.720614787989042 11.192793729060906
Fe 12.074607730845598 8.581804100398209 14.319273145742493
Fe 12.343348133823415 8.211263472281969 10.099308139189962
Fe 8.503024027468381 7.919112302367073 11.138818712111863
Fe 9.974815586877606 7.608352892071536 13.32723252455693
Fe 14.03254483125759 10.22196428937344 15.31564181946647
Fe 14.2783792666591 8.742115968936108 13.344699763623392
Fe 10.070857039117803 8.4185774872028 9.444985401767909
Fe 14.70370929816928 8.761302814772353 10.94147265708921
Fe 10.189518771096974 10.01899377944677 13.99093778345554
Fe 11.673514965092012 10.304716835600855 15.967462855197846
Fe 10.7818809463139 9.195526033083643 11.800579246667262
Fe 13.553095054480416 9.858206656393202 8.876409181224403
Fe 11.927119837829014 8.361940725543313 7.840881866217574
Fe 9.886180481428944 9.733777844734274 7.356267980117589
Fe 7.8777773045461466 9.20921326201712 8.924870046872764
Fe 8.950682995588265 10.49625989087222 10.797130790344106
Fe 6.56877835744392 9.336198516266094 10.899464828488568
Fe 11.24147784493591 10.458366951795693 9.49066568601938
Fe 12.577642895040993 10.92323713639525 13.633422933471714
Fe 8.087429762930165 9.463658157569649 12.871844694290854
Fe 15.059927388628422 10.798249440361463 12.697066407014448
Fe 12.600335244160531 12.385695903123004 15.742089943831363
Fe 14.48108888861754 12.404224626199111 14.397318689896917
Fe 6.687951706180127 11.400306757711784 11.884211875864688
Fe 12.996470108277936 10.187253283113778 11.369887973802497
Fe 13.662654357034274 12.57303440112822 12.03389784301435
Fe 15.0249072119869 11.129983810469689 10.250572372336066
Fe 9.031896186675189 11.65442167983967 8.558342825047367
Fe 10.586034360745915 12.23358659185327 14.488592432648675
Fe 13.689149669931002 11.913194708745268 7.767860646945744
Fe 12.125522201217592 10.360854722697063 6.74714845014265
Fe 7.533345221590538 10.598461964951753 7.063490263004497
Fe 8.652476812011528 11.801333575378761 13.220378750038766
Fe 11.101237389262897 11.788038344272652 11.955150305927503
Fe 12.28235205743336 13.61531678020533 13.597582602342122
Fe 6.892879807847763 11.511867471530865 9.445911418916491
Fe 10.450881958049246 12.846573973193843 9.971733423165041
Fe 9.983768530191474 13.863349988060993 12.558267176892834
Fe 12.871848118116452 12.228150007582816 9.901695121015072
Fe 7.6953487209427625 12.968462910705393 7.110179627036608
Fe 11.268995484970935 12.28966921824855 7.753745054327871
Fe 8.422436778451548 12.808196077475174 11.069447958108437
Fe 12.004132695356654 14.209297293117967 11.226852384783765
Fe 9.70472985575542 11.878020145320269 6.156580521862676
Fe 7.763842314234623 13.979037466046512 9.203975836313505
Fe 9.879171993030889 15.017922387166362 10.209416507076186
Fe 9.752488688819664 14.101386282167256 7.8186519413690165
Fe 12.155307826443376 14.238840725875704 8.777541114444407
