51
Energy = -359.37913913 eV
Fe 13.900186602625396 8.768608122827445 9.995455506347364
Fe 16.18347873103169 8.318892747125314 10.070756449769545
Fe 12.974715100689165 12.866500065717961 8.438216304406762
Fe 12.796009107863394 10.343594982229858 8.345670281954712
Fe 15.626072926014476 10.495935267771303 9.37985293404433
Fe 11.214586093612159 9.267477017988023 6.752730304584334
Fe 15.244008989323856 12.909160430583803 9.277009374081453
Fe 11.032582214762684 11.650717648974085 7.188545455970227
Fe 11.92336689302717 8.04382112952923 8.732226980192396
Fe 14.711357253202708 7.414888421666006 11.752857818493744
Fe 13.717920841878824 11.383137388396115 10.271529115543016
Fe 10.528064130358455 13.821522283741809 8.184607752252477
Fe 15.34517941417743 9.804986945457278 11.745524501961755
Fe 9.56401102215866 7.868514407487235 8.045456860135987
Fe 11.203010646446618 12.026205779920225 9.738619441697626
Fe 15.640000413838312 12.236443738711465 11.527666937056843
Fe 8.878865893766504 9.936969153102918 7.103286451067061
Fe 10.382055517479541 9.967120761724303 8.864326402997328
Fe 12.281299104689916 7.257791320569508 11.042312629364286
Fe 14.03194190349823 14.127903424941474 10.85392824088056
Fe 8.985626510957408 11.920780442748256 8.417307819630073
Fe 10.070616526201395 8.135558865524777 10.412054254968165
Fe 11.840325032791828 9.8032832046365 10.783290138087155
Fe 11.819030308458688 14.189670479184866 10.135295428762737
Fe 12.360528615473413 12.537167775207063 11.750331619084964
Fe 8.069831016439798 9.579527947483067 9.52001598499301
Fe 10.93616456236195 8.236914601142296 12.877185526133708
Fe 9.276290952564304 11.113482347508835 10.872638970377118
Fe 13.154136997134684 8.943410533711567 12.621747609407684
Fe 11.024932273905131 10.7280783124374 12.78524250161739
Fe 14.238865921806669 13.491158139853516 13.101136314803764
Fe 11.890713704189873 14.73622432364247 12.537765381842101
Fe 13.718778591260206 11.149790991426297 12.888014077891826
Fe 8.819713452020663 9.079066369019927 12.211931398241216
Fe 7.107097592490939 11.92879663769504 9.834856098083476
Fe 9.15359672082107 13.625971043994705 10.18231625879681
Fe 10.305686292001253 15.6509511414542 10.871304110916643
Fe 10.153024514425718 13.02096785389735 12.407783721434512
Fe 9.687243696471663 9.472137406704825 14.581443332802339
Fe 6.891591993387763 10.47981322374019 11.719148139889716
Fe 8.709799491627114 11.215410193775988 13.247824103774432
Fe 12.158844160422765 10.153531196896395 14.646174518758222
Fe 12.223942744047182 12.723439927788462 14.117965779741867
Fe 7.634352877211797 12.907325295575525 11.964954788190246
Fe 10.26355789368979 11.910515544343975 14.955717684510285
Fe 10.49815089426311 14.386914430444564 14.481097257360107
Fe 8.976754955166687 14.975520358231435 12.689594639524293
Fe 7.249149958134908 9.451336233806003 14.001990933326232
Fe 8.298055942763689 13.315529485392624 14.354138779228277
Fe 8.061763120860638 11.137959826476532 15.541867471804306
Fe 6.416009711334584 11.756913585565039 13.780518134349055
