50
Energy = -351.4953818 eV
Fe 8.341053566833464 10.92409978196367 13.652404458407556
Fe 8.30605876016709 8.834767277488718 12.146464314451272
Fe 9.428498883212445 9.246203712712138 10.097622974924338
Fe 8.93510832470612 12.777281177814524 12.128966943061634
Fe 9.147638328127556 10.4227185098224 6.444595741052241
Fe 6.150598105543817 11.339764932976767 9.347095894523141
Fe 9.688606756152826 9.050311147847921 14.155309963867394
Fe 10.79801736036523 7.465295163001034 9.101311040204028
Fe 10.79488630838063 8.24675775436405 12.129016714437562
Fe 10.263113974713661 8.200029469414577 6.406978200909165
Fe 8.50316610147134 13.215504445226912 14.471312186024829
Fe 10.869274050407054 12.208571914905328 7.660146391857507
Fe 10.673163125972295 12.27942394633132 13.760948447684981
Fe 10.167700628704253 14.599446891500945 13.069551727004864
Fe 13.454515041453917 7.270359173284407 8.918927176024065
Fe 12.255307245872915 8.383431723975303 7.445469547450478
Fe 11.92328821368707 9.194511377860561 10.279594778270189
Fe 10.696260105195428 9.956751103021833 8.184424515172005
Fe 9.147901162013818 13.584042654122305 8.310529122609807
Fe 8.385622727514994 11.167551104494382 8.509948342089274
Fe 13.608071203930105 13.114061063513295 10.89551861871248
Fe 15.861132354315899 13.456061852909055 10.86922971718086
Fe 14.305058681192953 8.72220870539114 10.532394550485781
Fe 8.521992389913244 8.583180300896222 7.932574302597581
Fe 13.626807266456192 9.836966922359125 8.506102857157314
Fe 6.740829494772111 9.938114966592593 7.361200854269967
Fe 12.421034857910174 11.52953962766949 9.510792357511324
Fe 12.43516468991245 6.8744008456466466 10.960514467370901
Fe 13.080291917246958 10.737277522909494 11.798635881295006
Fe 15.298933475987772 12.033942634362003 12.619244455115654
Fe 6.96223134875395 9.196343081013708 9.696553231294999
Fe 10.023250691272144 11.858772197307358 9.956834025255485
Fe 11.617903462058734 13.866477240952017 9.329312686599875
Fe 13.213299718568893 8.47932975931152 12.700741392991691
Fe 14.923187691569481 11.146387388186174 10.327124484193353
Fe 15.412426311633764 9.679484570693674 12.386001626645282
Fe 12.168691186547923 14.95948808185206 11.658934751038831
Fe 11.41382411704723 12.772697068470755 11.580802240089712
Fe 10.302110068242294 10.605697862089794 11.984222492306062
Fe 7.690702842122281 13.121403751617779 10.069921181863387
Fe 9.747304118010474 14.481535893934318 10.602522694473112
Fe 14.420083611386037 14.345696142512837 12.722740976686817
Fe 14.108517332295643 10.458798223756483 14.22747309216006
Fe 11.78602297133483 10.090963940494508 13.893664267083626
Fe 10.500548091692858 13.550352940552495 15.673405730267838
Fe 7.910442747508535 10.914567839483224 11.090944735623177
Fe 12.293341547012657 11.878504509395867 15.58812645113396
Fe 13.112621131661701 12.434695995348443 13.449291780801971
Fe 12.297005886269112 14.327069440485383 14.143016914667232
Fe 9.922310089882558 11.108764578973716 15.583982765609337
