54
Energy = -382.12988032 eV
Fe 15.583812584025857 12.892278948052665 12.739487303894956
Fe 11.491102447173304 16.178750543967634 12.48903889973149
Fe 8.43760445370989 14.012144005452082 9.895905972461906
Fe 14.12243607726324 12.719327515647057 8.246464704071931
Fe 10.315454987665127 6.320590428276149 12.411437828474249
Fe 7.358236195962465 12.123861869720786 13.876978361247351
Fe 13.36219259031117 12.45397391763199 12.387644322127379
Fe 7.978496049920377 7.60192312346389 8.994199434891199
Fe 9.426985633307412 13.22320750935097 13.73046813839647
Fe 11.119995402650227 10.849496265758374 9.818161163551038
Fe 9.693562853062604 9.03405189734207 9.604304613410694
Fe 9.622264473349507 8.369853262063868 13.580037353323116
Fe 11.381723851234172 8.173930231471038 11.484195099371554
Fe 15.336655073368949 12.094844292034042 10.546079116022703
Fe 11.695087024870887 11.967345128630843 14.59559503578455
Fe 12.744473733664522 10.205428553722609 11.487457007830129
Fe 8.68985372799701 12.000245418946392 11.49608733061494
Fe 10.397195899634525 10.144258610740398 7.440265972721823
Fe 11.727332401716302 14.127166315905399 13.568981122205749
Fe 10.527477176895179 13.248238922726307 9.8483458822656
Fe 12.105839232796583 14.259665813320261 11.311920672383005
Fe 14.439866209181881 14.179674187239785 10.517590590640511
Fe 11.723786928788376 7.41782120860659 14.033507255782931
Fe 13.983892586104846 14.90695264112644 12.751189666264647
Fe 12.744665394798568 6.299200900513136 11.973408704839098
Fe 12.608198832538443 6.596153209992824 9.620422600976248
Fe 13.923405921456114 8.23755444690992 10.683981438704237
Fe 11.645593517707653 9.810636892791639 13.536155872885855
Fe 9.876003242580033 9.983850094236729 11.722911829192068
Fe 9.714375028057022 14.563663900964743 11.881639894848753
Fe 13.869414632106807 10.704540697898048 13.987551370795035
Fe 12.735057060127499 10.756636642913389 7.656222911847764
Fe 12.802237132009983 12.344676807955082 10.041398789716396
Fe 10.119602557397817 7.76543763350504 7.685736534441907
Fe 13.872892815641428 13.11144469274872 14.546861336871121
Fe 15.08410660430604 10.305712762043731 12.029718622726056
Fe 11.032833262684203 12.124365642655155 12.138557322895336
Fe 10.26579531468707 6.701676831941811 9.859088132342217
Fe 7.570953815717691 9.919669312703585 10.27305197712469
Fe 8.57577059823792 7.901069968043608 11.403512475621424
Fe 11.341491667424933 12.508690609635952 7.770585152862923
Fe 7.328114732332135 13.787834600237735 12.09059337305635
Fe 6.310456324809693 11.479455915246875 11.815261899130883
Fe 6.843973913642717 12.261000004427434 9.654463451243922
Fe 10.623120199947417 15.694440536956549 9.954005498755576
Fe 9.029559079431426 11.524534815102035 8.948446546050482
Fe 13.631061744209378 8.36965644822592 13.02647967918256
Fe 12.964249831101487 16.190480711535162 10.48680636300721
Fe 9.45805566748984 10.910645768109584 13.972133064628409
Fe 14.097598486443419 10.373856247567884 9.526419090121621
Fe 8.022601111003738 9.643414976499209 7.819563735443034
Fe 12.086378606577894 8.811973347058716 9.049723122393095
Fe 7.674810647781725 9.868242694075963 12.74371244902127
Fe 12.48842299252139 14.408115176184749 8.89533750171696
