51
Energy = -359.10523412 eV
Fe 13.250213953974027 11.446317353170384 14.899577697493928
Fe 10.743850823764483 7.401680171106966 14.765678633111115
Fe 12.031830274918757 9.367148866055633 14.703453496322748
Fe 9.41000104581698 9.504818692318404 14.766249569818696
Fe 12.161900462727111 13.5220685045693 14.448509069076017
Fe 8.687181418360437 7.230985526529464 13.365816895536723
Fe 14.137268892818133 9.898542258918662 13.105829100080888
Fe 10.781428885437036 11.559430605040367 14.449590662735355
Fe 12.677975987184187 7.890391782540464 12.888983435839151
Fe 13.659952900077494 12.337327846523852 12.75936842990612
Fe 11.061844506728143 15.232567245710115 13.33635219989232
Fe 8.162474980984411 11.559374187833386 14.147532253656381
Fe 9.580375278283872 13.519612593719543 13.776609236849824
Fe 10.33509410510804 8.759625197390989 12.75733639892165
Fe 10.920046509798196 6.279680712358732 12.688890322295979
Fe 7.607429723715688 9.417966409108647 13.104608248767837
Fe 11.997458538396417 10.526917434714804 12.670181823010832
Fe 15.136641838498686 10.93424156707708 10.967605666842761
Fe 11.258518935512074 12.841093424419604 12.133807592006526
Fe 13.257619464073283 9.195796984516953 10.849920178028901
Fe 9.260588733885566 6.709698910422107 11.072485600777277
Fe 9.523498597308958 11.042620547802615 12.413842682205688
Fe 13.134746553120324 14.651361985353889 12.442560185886077
Fe 11.292224850009907 7.8257727418413 10.781492135963454
Fe 8.852593796219459 13.164706411155622 11.48124817399948
Fe 8.6500324804856 8.877441159056797 11.104711005124415
Fe 14.414722432935982 9.969825477644147 8.784706321488642
Fe 14.896151811106957 13.351774506176804 11.065713873015687
Fe 12.910268238890717 11.544989335417537 10.583354978156736
Fe 8.856696347388384 15.319249473522317 12.162418723301988
Fe 7.303136253706 11.255882179280857 11.569119121673504
Fe 6.928233880581285 9.798755339231272 9.715480938994784
Fe 10.580179901560491 12.505570447218412 9.91082355492359
Fe 10.822540325200697 14.894926385012049 11.060876417670356
Fe 12.1005571964269 10.472833069231523 8.563668361141957
Fe 10.908343106802649 10.197774990188117 10.643370560280772
Fe 7.82779003086363 12.637740670326941 9.402964990394862
Fe 12.410601674994927 8.132928083395894 8.691459381577497
Fe 12.74868120382437 13.852529823253557 10.177893354168386
Fe 13.82468771735375 11.540494959449273 6.786950988889237
Fe 14.330062692815362 12.377137054001548 8.907675959680185
Fe 8.879443472945832 10.75411579800703 9.816819430269545
Fe 9.004611954205332 14.744695711487976 9.628550875267033
Fe 9.872241284211984 11.081600506628064 7.7852043413799805
Fe 9.645475289344313 13.516819594949428 7.791337468394756
Fe 12.029431489527791 12.80750781689209 7.953593825700551
Fe 9.966350305435723 8.733971898290028 8.900199746595638
Fe 11.194560171176867 14.941265317490204 8.583342616665055
Fe 11.628781601366846 11.202121010778278 6.147589274998666
Fe 10.943662800641066 9.02082319251148 6.783159699487203
Fe 13.31238244918105 9.279976962850204 6.7487834379976395
