50
Energy = -355.20189664 eV
Fe 10.257029151472898 13.875203409041712 8.137069129723011
Fe 14.199352454559499 13.012081354440925 13.714073098178059
Fe 9.594273341360905 13.637454337881795 15.48214382797277
Fe 13.719189680560415 14.853110974159408 15.213673713654082
Fe 11.671545487790906 14.366105422684825 16.281519192920726
Fe 10.67886561119818 9.631675385810881 15.125427409762704
Fe 12.576305037593434 7.861779937850778 15.549275956323054
Fe 11.566522601775569 13.335930410089032 9.871079701396798
Fe 12.429385853076566 11.110735892539507 13.454538167461623
Fe 12.831610984354391 11.897370577928264 8.082436565918892
Fe 12.163043023744416 16.988698015817167 11.874177226148037
Fe 9.424125088180583 14.238939533153644 13.250899335676477
Fe 9.733391668703584 16.35661779432622 12.105072752382508
Fe 12.841901999005287 9.115657955732912 11.319025792737792
Fe 14.149685538425176 12.81659857132024 9.752927483134066
Fe 12.171509624763535 11.168326400772429 10.554589997515091
Fe 14.384379788362315 11.18474008358915 11.998911691006684
Fe 12.751639277118555 14.386932751639804 8.16034663576573
Fe 16.513682730804685 12.41337183361241 13.105282551653046
Fe 11.198991840938513 11.849862777260947 15.865174781164018
Fe 13.363951974887613 15.185892724134495 10.353640499576093
Fe 12.164678069504921 9.497019859697632 8.85421661062908
Fe 7.947556456730268 12.889328335959375 11.999898663052253
Fe 11.394519514673807 14.83628536374256 11.88874793144728
Fe 11.718949151401686 13.412733172158905 13.993969520627873
Fe 9.195466371031698 8.940681316990453 13.343677191006318
Fe 10.497865733424979 12.473619558500552 11.918600873360765
Fe 11.11467985266373 15.777887517320515 9.648074214231208
Fe 10.69116401688925 10.066163824269529 12.289147512018397
Fe 9.237275314352443 12.123617644498786 9.9188437433778
Fe 15.242320466651364 8.923548035208587 11.22743551158345
Fe 15.088393054760676 10.951490784880209 14.59106655547995
Fe 9.30574225888666 14.443736312464623 10.647991445523253
Fe 12.993730152453415 10.050608910439824 15.532316269710266
Fe 14.111363825417746 9.057011350256289 13.487736417052279
Fe 14.329025851298267 10.371656558523975 9.586256988672897
Fe 15.8433255061136 14.861969437075418 13.726893434568357
Fe 8.50953347909503 10.710860782492436 11.735109843607157
Fe 15.799596867481796 13.15599269689283 15.433645619303928
Fe 13.43409875997852 12.482852438852559 15.87648900769681
Fe 10.144946837397994 9.721202068356881 10.090966598948935
Fe 13.563489318793987 15.278058743773355 12.90519371806645
Fe 9.669954326016319 11.641405224075688 13.943114283350242
Fe 11.241582646208613 15.702283360886682 14.247049436460143
Fe 16.259275943017826 11.431130830407927 10.684497301258078
Fe 10.62853703678346 11.348536939920297 8.248189267999049
Fe 11.788599851845728 8.408185368322254 13.495139886370314
Fe 16.489115471636303 10.044097624869039 12.812080911502031
Fe 12.9181318027435 13.10886586860983 11.815683943581018
Fe 15.26632193030997 13.811702981331965 11.616318702380712
