5
Energy = -27.46298737 eV
Fe 4.452833376715436 5.041042560684163 5.481046449566724
Fe 4.721128090958961 7.335397567045658 5.555456022935495
Fe 6.2458440667961295 6.442137894230891 4.208494750137405
Fe 6.259393440379999 3.473536029381307 6.564970322566791
Fe 6.463790236337423 5.833798222974825 6.335882409919818
