5
Energy = -24.43208836 eV
Fe 11.203462165730942 11.039411423699388 15.904076647209864
Fe 12.913575731649905 10.717480349549673 7.24841936617799
Fe 11.386695551180393 12.911450748529926 14.83491198222841
Fe 11.341384996008125 11.066426255700163 6.064562354724474
Fe 10.278898992371117 11.235198443571562 13.951789219045803
