53
Energy = -374.05808053 eV
Fe 13.217686505674571 12.411134103978945 7.699083172013129
Fe 11.234108431754398 11.251478470932724 11.032621613104965
Fe 13.803606681673685 15.254580160938952 11.150439062271344
Fe 12.378355420176854 13.33434593721726 11.171805930708498
Fe 12.666923948493567 14.462283652211303 9.11416480356762
Fe 9.326334705784237 11.146709108539213 9.753625546872524
Fe 9.076025504059457 10.066710837124171 7.631964430030937
Fe 7.911484106601818 9.19202985568123 9.772032620212613
Fe 7.878029520199669 13.337233458269493 12.429552977098957
Fe 9.828929506720607 13.131680051641323 11.187528093491697
Fe 10.025689096217267 14.4773654885452 13.162809213915489
Fe 8.677886852320784 15.311064415041885 11.207361815995748
Fe 12.624822021976103 14.46270001716248 13.23761419754688
Fe 11.082875697801027 12.65177525059343 8.97340168169651
Fe 9.960404007265923 14.718828063456833 9.209298999264758
Fe 11.198059251557915 15.328244216735293 11.146216161658804
Fe 7.191694027694708 11.214273095447108 8.495334923679179
Fe 9.189615199600771 12.463876672123126 7.598472024876445
Fe 7.247621313142565 11.32791802430044 10.97590390502513
Fe 8.088464060152157 13.307673068560739 9.66089426559488
Fe 11.235162264465439 12.358733927877243 13.08699146051463
Fe 9.218115079222454 12.464069860899444 14.414211959773006
Fe 7.248373854732994 11.149005532469442 13.514876229883578
Fe 11.259165611666898 13.680810684700548 15.210737466308432
Fe 9.178294745892082 10.99008639510991 12.280299874161694
Fe 7.800291045950287 9.026288671068922 12.250557765612047
Fe 9.19206961402981 9.932610957050892 14.51696855347699
Fe 12.388531473096153 7.905401264896923 9.252969883769435
Fe 10.155250516657796 9.121949240765677 10.987190036312896
Fe 11.21573152724904 10.027623579215424 8.931040376358684
Fe 9.76061238059378 7.974186226121212 9.031688078881485
Fe 9.867689322901976 8.094431364827049 13.072914158960236
Fe 11.249602651758185 7.0922914228760074 11.149640127002652
Fe 8.68774477257274 7.125882441115734 11.038685809913733
Fe 11.312036082928698 10.050033646187421 13.041486030339952
Fe 12.460879524161223 7.935385643458896 13.17643888085719
Fe 14.662181012566007 13.34145675591979 12.341338302703445
Fe 11.262669448828786 11.212128932015842 15.206347020715505
Fe 11.20785898036544 8.738009498190964 15.146974267411265
Fe 13.345674392438562 12.537561540104624 14.486678819999069
Fe 15.20969717168377 11.358868716188436 13.42214558135879
Fe 13.213698250486846 11.30870268265708 12.336255981001127
Fe 13.748586866132506 7.161550221100024 11.184932159462704
Fe 14.4674889851615 9.1374804400413 12.495480757542827
Fe 13.240067626600629 10.088158692353826 14.503089524944912
Fe 14.681578396532123 13.24987946950261 9.84538865186577
Fe 12.619871707199058 9.332569027589715 11.026587890793495
Fe 13.424279665527033 10.005314007036128 7.847063855878917
Fe 11.217978004641889 11.230856257348044 6.984556178613112
Fe 14.555892590588035 9.19055537567512 9.796148263232142
Fe 13.183729967988748 11.443012511032038 9.773286934748437
Fe 15.365468487232187 11.247980362855971 8.531195327241804
Fe 15.266186013142963 11.146294490973585 11.016782564004187
