52
Energy = -358.65092116 eV
Fe 14.322199712397714 12.857298678268375 11.770580383238913
Fe 13.185364929823114 14.289160354346171 13.300875981767183
Fe 14.701395763560173 10.445472876716865 11.929949802217328
Fe 13.638824986702447 11.784002028832637 13.928142565079943
Fe 13.539079182471534 15.278153235426833 11.114785001195074
Fe 14.496463532211386 13.634979465859255 9.596036060316896
Fe 13.967187813529124 9.524032725942318 14.220837084026723
Fe 11.190975076291219 14.929543191254352 12.2810042862271
Fe 11.903616889973236 12.49095994358581 12.549574748947132
Fe 12.830685760755031 11.578993024643571 10.410392511385623
Fe 11.098781198959825 12.9338672824935 14.632036115080924
Fe 12.768543761356634 14.995136746959613 8.595354724773614
Fe 14.765529620732673 11.092830784930838 9.478224046836079
Fe 11.431748309594289 16.054608649953042 10.169683668478712
Fe 13.958630328341677 8.092974274866807 12.358470273861265
Fe 13.024984192833307 12.5605566965909 8.015736601643841
Fe 11.635967293013554 10.628642929008024 14.677705906938101
Fe 11.856723176752265 13.6844439327006 10.287810892131624
Fe 9.430037722197042 13.326251538161692 13.025690441672168
Fe 11.842632396307117 8.339068889418835 13.802470598238338
Fe 10.931511419201126 12.062069334314979 8.679758951770078
Fe 13.435072575136363 9.105776173407648 10.296778798719611
Fe 12.357470189156864 10.10227729575038 12.340203046937736
Fe 10.328371613222671 14.193075814466242 8.556843295087493
Fe 12.527614081949586 10.186693450066112 8.297775769291984
Fe 10.262740871182247 12.057592927390797 10.86458116959069
Fe 11.098301027251706 9.80144605436416 10.41878083305391
Fe 11.130765139242687 11.11213074673107 6.423199407200187
Fe 10.042405595167487 10.868262181754101 12.874349854986207
Fe 10.187575153411423 6.684370707289065 13.766362683780862
Fe 11.73659511762965 7.539682349162982 11.47331946132711
Fe 8.911930886619665 11.52812666915074 14.70850015544399
Fe 9.470759537543094 14.268580173603128 10.829008063744828
Fe 11.712296363385294 7.952158281221663 8.850088986451993
Fe 11.323981730947494 8.830015476171459 6.602189306526436
Fe 9.791791077100125 8.607027939041462 12.237716185076076
Fe 9.605657900067204 9.106443542308025 14.65674305339884
Fe 9.166583116398924 12.178121975770484 7.1544189243720195
Fe 7.8586535992327216 12.100530153391594 11.820635800717767
Fe 9.883503171180887 9.939362140887543 8.414544285915596
Fe 8.428341784241614 12.388646975461441 9.42269717351016
Fe 8.713274271943279 10.136167337337396 10.596964118603466
Fe 7.982001808998597 7.625246521858443 13.644555655494603
Fe 7.752335842947288 9.954184360260458 12.953818654542149
Fe 9.588990889752946 7.845552354517794 9.919954370795987
Fe 9.125716599405566 6.373149160316583 11.702849127354229
Fe 8.855794144070021 9.821695958960449 6.402374554779515
Fe 9.473685117381144 7.697592497388246 7.516860121569279
Fe 7.37370103389292 10.729992818969286 8.167973661543218
Fe 7.4483940878277 8.104389601747371 11.306545860043833
Fe 6.501724521085593 10.364085955396494 10.58032740484795
Fe 7.61793140918649 8.59577992881023 8.853761485516527
