51
Energy = -359.43431675 eV
Fe 8.93472568457044 9.585404896493419 8.472053241137237
Fe 7.075352982766749 10.166216590506119 10.093514273296872
Fe 7.526392530357258 7.8533821272219955 9.543166781155046
Fe 9.487940834833417 11.035793672403976 6.6236129588172625
Fe 9.109392506456988 8.057082571572739 6.769461689556322
Fe 6.930127575299929 12.418671936894384 10.597756512457511
Fe 8.632502365071105 6.522515488651693 11.106618412457829
Fe 7.911105045223 11.840852674233377 8.226955661056929
Fe 9.644344472070863 7.118938272160178 8.848129540947195
Fe 7.607898424129486 8.372114233379016 12.166244956185672
Fe 7.961910411710721 10.75364168207738 12.210995890142522
Fe 9.406775858751798 9.004602239544676 10.794173519678985
Fe 11.674907028272973 11.953011146415646 6.736725283807438
Fe 8.764482432714006 13.977850977180283 9.8596407647444
Fe 11.1920552167002 9.428717570349173 7.033455367757949
Fe 9.574922892304407 9.582748866552357 13.548594065039262
Fe 12.062603171711645 6.151614130963613 8.88226729834073
Fe 6.803729114797131 12.777604904516648 13.072634848984091
Fe 10.950077692228875 6.848339988340679 10.845519889363882
Fe 11.236123403383854 7.0937305774892625 6.944612235994814
Fe 7.451009620143375 14.746349812823311 11.741711541767888
Fe 9.977193987225043 7.3550691587047385 12.961969236071633
Fe 12.732190303638282 10.581801237553147 10.494694270471893
Fe 10.898836766502297 15.028910507916384 9.303272421652625
Fe 9.058515887011438 12.964032817813333 12.09451768052751
Fe 15.015733435959772 10.843871115282855 11.536108419426803
Fe 13.525245377034755 12.680386837369161 11.241137860794625
Fe 12.823213308387254 10.965801914814863 12.911808424280471
Fe 14.746362519051614 11.775870874417183 9.26888512029913
Fe 14.635494642730524 9.33345682434328 9.704595020913768
Fe 12.459079637594485 14.760880408812758 10.989151539545881
Fe 11.960129828624261 8.850752096051346 14.125736243272078
Fe 11.022194800703936 12.906883328586634 10.504023807336079
Fe 13.976468807527043 8.857514731324965 12.338153296108322
Fe 11.083265664763456 11.213256529295984 14.434763311959646
Fe 11.668384563087647 13.069974738615253 12.785939878432842
Fe 10.524238259817821 11.092539375821543 12.02588147384041
Fe 12.63898364269757 12.901118185765805 8.859489374435563
Fe 10.102560868650494 15.028809870568393 11.777447139376052
Fe 13.11866120365833 10.50190691288329 8.085436381791329
Fe 8.836456994114338 11.910961490622535 14.238295595165882
Fe 13.238326094194123 7.63081318584349 10.513030932756484
Fe 10.61031924083318 13.649121837401525 14.547377882911933
Fe 12.411863197499837 6.906880807680586 12.746906311624242
Fe 13.291264603946562 8.041117387387436 7.978174239442927
Fe 8.491624300329768 14.447186899859984 13.78221745609115
Fe 11.544965174415527 9.00500052372531 11.898618068516624
Fe 11.436521284669729 8.652513280772723 9.289814272205343
Fe 10.09232359761734 13.056675809466814 8.087047975100544
Fe 9.033552675458473 11.502198932481203 10.19013705718064
Fe 10.868874407538993 10.956732357831472 8.928748914560456
