52
Energy = -365.23154356 eV
Fe 12.613449761599984 13.801529142129597 13.935782583984627
Fe 14.02829949831757 13.060425945776915 11.985772959066793
Fe 11.037444042010288 15.54534137240427 13.482175001117218
Fe 11.741133206773254 14.731280871638413 15.787807452464822
Fe 11.215828256522023 15.104248460353132 8.999933346112751
Fe 10.528060106802698 15.96855853872906 11.017252994685172
Fe 14.243088726836984 10.582504282489268 11.72796527658258
Fe 14.945217451787043 12.17993694875479 10.033963237021563
Fe 11.962211868044967 14.238971035085546 11.779177467860402
Fe 12.977595633994058 13.595607154666444 9.743515502161477
Fe 13.095132480271367 11.569786528448603 13.516608223842663
Fe 13.214217560706457 11.257512670280542 8.769613062535077
Fe 14.996998205539665 9.720484777644447 9.61780204199694
Fe 10.82614993045616 12.211318864833721 12.947491621156164
Fe 15.126331235497087 8.32058023106309 11.620472971718304
Fe 12.162566065072223 11.683973248027636 10.999069896218336
Fe 11.441916620469014 12.760591173012093 8.020868966513518
Fe 9.68444124964202 14.177111921594992 7.31043363343687
Fe 10.030973439633916 13.600765731532373 14.706657119425557
Fe 11.922616105463705 12.34026899209607 15.616539644088093
Fe 9.556670521438098 14.225744136146767 12.328048683405042
Fe 8.879732626880934 14.91627584389884 9.642194337409103
Fe 13.985621805995162 9.277088698966688 13.684220424097136
Fe 13.77037620163944 9.055193433542954 7.704743474022444
Fe 10.451440208242499 13.270118673843697 10.259308869456506
Fe 12.730350364320005 9.406572501213306 10.305439531833224
Fe 7.829265618749896 13.113162433921747 11.094422027888013
Fe 12.370099716196597 7.771048154775113 14.478295557216835
Fe 11.570393573759333 9.766699681312012 12.836274982619631
Fe 8.798606669695637 12.559423098645164 8.782160131268663
Fe 12.28759047469001 9.940677284946108 15.237887876444136
Fe 13.704832706859971 7.470323895767183 9.610654854639161
Fe 12.020585371086089 10.555741544902858 6.78832463683054
Fe 10.738146421565576 10.823906395615888 9.023236890994502
Fe 10.083866063750625 10.945868307096447 14.816101325212705
Fe 10.43461654544855 9.146259421953527 10.771178262805341
Fe 8.465575891879515 12.134187800494374 13.32503830137717
Fe 9.326178263806074 11.274151609539615 11.03216481710291
Fe 9.828574362589823 11.674738738389564 6.73547204523602
Fe 13.058336468023008 7.815721312153046 12.012146938836349
Fe 10.764134493244029 7.47530075327473 12.715095209251913
Fe 6.941078195311823 11.42559495177917 9.804799972797063
Fe 11.619774274611354 8.58552360155567 8.395501207130549
Fe 9.102759987359898 9.634775376701763 12.906941889210298
Fe 6.9860052105484955 10.824461167960736 12.093011345117528
Fe 10.1662783377946 8.519982525796456 14.774155983411616
Fe 8.54550587953266 10.137994665095977 8.447643190601427
Fe 11.296648257051446 7.023738198179985 10.278935006866142
Fe 10.022494230315864 9.315252581814075 6.801908647279002
Fe 9.285064064148594 8.084708547621164 8.90260637967855
Fe 7.949123329215686 9.289614184059879 10.600094362073582
Fe 8.90671682020239 7.335435533738362 11.37732891349696
