53
Energy = -376.08437432 eV
Fe 15.961523752204972 11.058060393927951 8.679942086607936
Fe 16.19169220978125 13.057653790504695 9.907922555170973
Fe 16.09706262948335 10.979226644966685 11.238245477915696
Fe 15.119609274936822 9.196470826757219 9.75445239317799
Fe 14.446896562011176 11.377163603531697 13.03270457409823
Fe 15.206201910147639 13.417074826156682 12.05976841458479
Fe 14.402098091934656 12.712024447520271 8.050227200846132
Fe 13.682888401398344 9.670686548569975 11.416430550118633
Fe 14.09195290779186 11.799076398312968 10.422187768251623
Fe 13.487074839991234 10.483281821870106 8.528512466635311
Fe 14.242341536019133 14.397912528085248 9.96797586643349
Fe 12.838368963895931 7.453271406655979 12.012445011320962
Fe 10.968992605639665 6.839924733256078 8.593324910847393
Fe 12.84314069312956 9.375162161926875 13.66571548487556
Fe 12.5562373614541 8.3182151844677 9.707774441346196
Fe 12.201414958857024 11.319858566044497 12.366981493831995
Fe 13.34027328953743 13.48148927431333 13.922478063434436
Fe 12.501019267286878 11.581846331396319 14.891306243761932
Fe 11.620477037984163 9.178148295605347 7.625392316843119
Fe 10.656603633182133 6.910022261401093 10.983694045608981
Fe 12.801847540210323 13.488386356916605 11.657738293086464
Fe 12.39501640363895 13.037706667079421 9.185569955473312
Fe 10.579217344046667 7.796008519258366 13.402522937254822
Fe 11.792000961905925 11.666897022601047 7.2572064969875
Fe 11.285124430563693 9.153339227033868 11.7867585499811
Fe 11.514507231119946 10.882548502376928 9.866285316355425
Fe 11.419564254864078 14.061926563191133 15.291279977868053
Fe 10.625565787319363 10.231547543842664 14.224964694264258
Fe 8.631268093412592 7.082987330615517 9.556714188957772
Fe 9.335037855181435 8.145992119729458 7.3834759175521425
Fe 10.718645698942602 12.784376061010933 13.381215923220761
Fe 10.157458212238607 8.990060634973899 9.590271946270656
Fe 11.473267528128245 14.992773958012158 12.98936626616315
Fe 10.27726757209091 12.074729568981631 15.779873115466337
Fe 9.77195059118639 10.823533225131028 12.162172303863649
Fe 8.809386972740294 8.608761880771228 11.498732507491807
Fe 10.044350546820889 12.786939510646167 8.561908720725851
Fe 10.515052063191884 12.848414196820396 10.986165196901888
Fe 11.152085301003888 14.875606275988421 10.262798460312258
Fe 8.574054265196345 9.196061234213062 13.708232041900173
Fe 9.661957879332855 10.61072953903405 7.823477714913955
Fe 6.705469646185722 8.264716977028154 10.733749276622058
Fe 7.868546764595443 9.316258565585796 8.85140951131442
Fe 8.531680011579061 11.66919610417407 14.220024119709022
Fe 8.793383015396548 11.187501233115745 10.156941890419665
Fe 9.124057314382688 14.067647301680507 14.405799339231653
Fe 8.391235102594141 12.779966494998604 12.169073649671075
Fe 9.35561408184366 14.857283905938823 12.063805447983375
Fe 7.347496563775788 10.552254411980197 11.989232699694774
Fe 8.534048985362523 13.780344734423199 9.996428779005594
Fe 7.57826069804283 11.967224925813785 8.279497954167448
Fe 6.179636115453686 10.42520341864922 9.84639260746447
Fe 6.6231184627366 12.548472934856965 10.464695004602849
