50
Energy = -351.11772729 eV
Fe 7.558786558152363 10.356696987769741 5.796202401237225
Fe 9.707561372536725 5.704909201656105 11.502662250235966
Fe 7.754204034683264 11.533670025226133 7.92191547322174
Fe 13.16677299240228 11.971845837927996 7.753456768629601
Fe 9.184034569907448 13.684433558151499 7.953691812105208
Fe 12.761955945376428 8.306851610847733 13.198307063807553
Fe 9.157878477696919 9.628863023342504 7.864056468816187
Fe 12.670187068147468 7.281390892993003 9.14471121119746
Fe 6.847620454754014 11.341942962163184 11.744215615722995
Fe 10.226091279489898 6.932397859130076 9.447249634387338
Fe 12.400646186840813 13.882264129865296 11.261430721945962
Fe 12.559315513094768 10.590673618723855 13.838564817948866
Fe 10.370447047794034 11.74578564250124 13.83785278415179
Fe 9.573881323228482 8.274588384426666 11.510131014435222
Fe 6.73150631589733 9.061809096933617 7.6438778836438335
Fe 11.461058481733575 10.428331709626894 7.180805183724093
Fe 12.395257390361015 11.132924514002944 9.815672555901834
Fe 7.712067395497544 8.046003962142624 5.70939378948718
Fe 10.688464164036263 6.806680950485089 13.376126114601202
Fe 6.590425469074913 10.349442248954729 9.668234271966723
Fe 11.736364770498625 7.315063146322556 11.297364836278481
Fe 14.021972717923502 12.873625456334617 9.868020781244999
Fe 6.7620840052901965 6.699466568148166 7.860105306225643
Fe 7.195864245555018 8.938166317360862 11.562751565410963
Fe 10.227472483816769 11.800252038722613 8.752645766752595
Fe 13.4494996008105 11.556099845219128 11.870800104862214
Fe 11.772415514998713 13.593566075629964 9.026280272936205
Fe 12.385705165250762 12.976857333872035 13.426226349975254
Fe 5.901292259606408 7.916065207929311 9.862879038097141
Fe 11.256001573305468 13.077180973140985 6.788768115671844
Fe 8.915804657087254 10.458455762453855 10.385251055452928
Fe 10.979277320615049 9.210878762037547 9.57208724671063
Fe 13.292382689680805 9.423556549887564 8.38017686628906
Fe 10.42711621825455 14.115801633891563 12.771199835495707
Fe 11.252441625072192 8.040811734337277 7.364642925655438
Fe 8.004498570122353 12.632085451001839 9.990054431913277
Fe 10.530921983684276 9.05810608658074 14.050526100113128
Fe 9.515061289355845 11.604663958850855 6.258258019814704
Fe 8.892672198213397 10.269434878461734 12.772090075592502
Fe 9.857981122668207 9.173975509226182 5.655562881175373
Fe 8.99562059669289 7.191489826846573 7.383474202773138
Fe 8.272690999532003 5.588693572590744 9.223729899601473
Fe 8.570364994378949 12.75577839237845 12.347648546448116
Fe 9.842830519674468 14.207572535908911 10.357590889328591
Fe 8.487963668142497 7.555569685786481 13.343899810202263
Fe 7.655136451883791 6.619193428872459 11.212290282720522
Fe 8.109608058222145 8.205627620106942 9.50657472115593
Fe 10.61373759199756 12.130585863921176 11.226306485059672
Fe 13.327599547852813 9.09348249359679 10.878675003483915
Fe 11.332397952012386 9.959329506614239 11.938503179294772
