5
Energy = -26.91427613 eV
Fe 6.347183127547784 9.113529882202512 7.703396324368532
Fe 9.144669134505913 5.61762467326727 7.535759913785666
Fe 8.496389553250124 7.686773869036353 7.386074641322321
Fe 7.444667802496848 8.057235101164126 9.315281339964358
Fe 8.676446505190695 9.675870480703473 8.149432353007386
