50
Energy = -354.95086403 eV
Fe 15.583972992641367 12.043021564213424 13.615890389087184
Fe 14.364092031735936 12.058053536698534 15.73134365952722
Fe 13.201813636474398 11.938022526617184 13.655521406277266
Fe 13.07513122526994 13.968645074698388 12.415465464141276
Fe 13.948652546562359 16.128167007924535 12.661656837446099
Fe 14.399121318731792 14.168830690785363 14.306959908707732
Fe 15.326678260391498 14.07457374161728 11.805326616387562
Fe 13.580647670841032 15.440397753107238 10.355227795788823
Fe 11.07130671773129 14.058247836843293 10.901560613872558
Fe 9.435206405247259 13.337955624060063 9.067479893956211
Fe 11.706344959280312 14.497421622264401 8.758017418624057
Fe 9.7079573284096 15.664135237788345 10.05783688364265
Fe 11.719119428948103 16.252797560348807 11.520132367263498
Fe 11.941362606390713 15.452432908544822 13.924117915682572
Fe 10.7827880632677 13.061913040766356 13.195654383085776
Fe 9.736094617115931 15.422878761544506 12.738701980468193
Fe 8.369114036940081 14.069939079041186 11.299652092452158
Fe 10.005828200675426 14.50153149131199 14.994711162216781
Fe 10.19423267785025 11.914853191829506 15.238466033160986
Fe 12.374521379163165 10.586532005316165 15.62178962522994
Fe 12.234737693277493 13.294354131098395 15.178993492221199
Fe 9.083508382338003 10.779557684644736 13.278594167079484
Fe 8.489362426808743 13.216002922248235 13.61879137599942
Fe 7.174713967097049 11.847386564202216 12.21833144893667
Fe 9.542994895348626 12.06713528496775 11.258223405947248
Fe 13.183829243775511 9.928390176301068 12.199686237720002
Fe 12.047018385096607 11.954744567256103 11.585786384398679
Fe 14.403370669505605 8.519630502645375 10.43333498462754
Fe 11.347641954089617 9.164733850728547 8.970601966318501
Fe 8.21436977982087 9.88272061424269 11.199272843218537
Fe 9.256276739771165 10.608811311100478 9.143598346751476
Fe 15.657038690065296 13.030914718288404 9.683028714256695
Fe 13.096296356853934 10.41624361521851 9.91012127666546
Fe 14.318094507318117 11.83647761010194 11.550597952188303
Fe 11.27529164951714 11.882667999514446 9.254733728440957
Fe 13.308395378578945 13.179532106333484 9.925785516256525
Fe 9.602776054394115 8.198329299809412 10.235729914680118
Fe 10.072083937432716 8.48645170180526 12.691749430364295
Fe 12.13707047117043 8.051475868103598 11.202289528167439
Fe 7.512889968516623 12.133617902117376 9.911547097725519
Fe 15.613678177158874 9.927296065529466 12.187623774039393
Fe 15.545026900654017 10.660923169290257 9.774698450929863
Fe 13.882586759454345 11.757181290670026 8.23896175148911
Fe 16.82654801590405 11.980553944252362 11.532187447065311
Fe 11.403220458808454 10.616250441717245 13.414082956721865
Fe 10.219573033428444 9.411822147972371 15.040276723229786
Fe 10.80153404331056 10.043407880587855 11.139397887872645
Fe 12.31640912480594 8.457231965622311 13.967792090615385
Fe 14.268040050121348 7.822508699890847 12.705799453600845
Fe 14.31218628804479 9.873845496146469 14.353419099317142
