51
Energy = -360.29375356 eV
Fe 8.545611295610712 9.848726011975792 7.300957094191607
Fe 9.713053112859228 11.705122231485122 6.184159978478688
Fe 10.93487205911704 9.748661132320224 6.729263565762796
Fe 8.008604252996806 12.063258627485993 7.913002616483476
Fe 8.682230662489514 10.289527392567825 9.661824408995948
Fe 9.75316072863427 8.20036995363639 8.385992806164518
Fe 9.946972368596896 13.6714118726904 7.444446165134365
Fe 10.457856599028212 11.536892643288592 8.709952328733804
Fe 6.92770650613867 11.778546793291207 10.156842801778001
Fe 11.906248933366301 12.246653926830323 6.810203986828148
Fe 8.986330106611897 13.22193003323689 9.662326769291216
Fe 12.373509701350326 7.8986247065215265 7.666896427188604
Fe 9.868002092122572 8.54833670389129 10.850961775706592
Fe 12.488619515298291 7.377758412042106 10.342121121473008
Fe 10.892574944883723 10.665259506673245 11.002747923221998
Fe 13.167227711299912 10.260406662730416 7.300397553348735
Fe 7.439601868704606 13.922366806545435 11.264654542154314
Fe 7.736251402632441 9.8610204269888 11.840162890993636
Fe 11.223678435200359 12.94367710523861 10.670704934614585
Fe 10.175167769087636 15.123531757169483 9.544609807740692
Fe 11.527682208849216 9.321593735549984 9.168842266350056
Fe 12.07591528673515 13.743353969243424 8.667428639533076
Fe 6.57116185796618 11.972975972215 12.536308086104578
Fe 12.832019665950634 11.42171278259831 9.37308151230343
Fe 8.919917889459622 11.892236559692323 11.60251449165481
Fe 14.058677953364361 9.066133661799812 9.084393528481751
Fe 9.911354756450619 14.385119547829708 11.900548566601863
Fe 12.988487968895273 11.72580194205451 11.926009923822628
Fe 8.385344695997455 13.509187247927505 13.514031296999466
Fe 12.281984838878303 15.155432416005828 10.713447608120726
Fe 13.821754264305314 13.390024177572966 10.535226365587539
Fe 8.312278942341225 11.165893219882792 13.94360671534962
Fe 12.85022287846949 9.425807006060783 11.25487052747394
Fe 9.944756207542994 9.655926602931157 12.967540545729872
Fe 10.675123558707188 12.171205660357865 13.117088275894583
Fe 14.85674635911129 10.849498172407767 10.624165664300303
Fe 11.396077112905807 7.896916592830414 12.499899554913615
Fe 10.676185389588303 14.55909160801167 14.177034504417998
Fe 14.91116929853802 8.239835972064903 11.155012372207391
Fe 12.402819379719368 13.956796801987736 12.691184581874873
Fe 14.553660947721351 12.637371832622682 13.224238327913522
Fe 9.808444932721361 12.814939092102584 15.32300031492894
Fe 10.432047909282227 10.591663683856552 15.012038375821001
Fe 12.376431399222986 10.174343213968108 13.568144465850624
Fe 13.545289559560992 7.672525975336538 13.013072720371115
Fe 12.354581127948302 12.507276139487894 14.706914302106172
Fe 11.694239066058302 8.40232854636372 14.822079236980857
Fe 14.74046590063911 9.972167963131612 12.92360360778423
Fe 14.469904357735361 11.248290814027532 15.085861983541445
Fe 12.516593960660062 10.450874794031455 16.057652942017896
Fe 14.077439307298489 8.847508345729592 14.959597277207532
