54
Energy = -381.99925505 eV
Fe 15.011848842391927 10.426145924173616 14.181506216451934
Fe 15.790526113509005 9.141390421220924 12.239720120657916
Fe 15.161511189993615 9.786033513709976 10.021113482353439
Fe 15.803161846245713 11.527433741279417 11.672826276313515
Fe 15.074249372203754 12.760393883221115 13.532915961940793
Fe 12.999254385028596 11.997618738959702 14.188084806210634
Fe 13.942507777666638 8.18343541563502 13.548026393502253
Fe 11.833291620302708 13.764853194328877 15.375799874347335
Fe 13.193826576525938 14.559356732179069 13.601416007986622
Fe 13.920909648648793 14.481108650140827 10.503024774344166
Fe 14.158823826342555 12.031283126578133 9.843477793968438
Fe 12.394020852932828 9.741619816168996 14.445893539258535
Fe 14.270076353357661 10.48598326534817 7.94167740688305
Fe 13.773676405281817 10.361878921708632 12.209959661942609
Fe 13.794305161538828 7.985627308565293 10.961169613426314
Fe 11.812656558893643 14.970270812328234 11.607123196110415
Fe 13.706765616850614 8.354770151888154 8.574279624648806
Fe 13.519562122420616 13.663042821788679 8.222768564210092
Fe 12.632589312347996 10.154798472961964 10.1125526345623
Fe 13.382546294822216 12.768217951569634 11.926514417719549
Fe 11.156927305180487 13.166313361780398 13.04444567057117
Fe 9.482632992540772 13.875637017067973 14.728116112801725
Fe 10.781803358463694 11.580871671490073 15.021306330259444
Fe 12.961110100940191 6.334928454556983 12.567046566013815
Fe 10.986734505728046 15.552572990366683 13.882801283075189
Fe 12.125872992674399 15.36196248490857 9.184825936743302
Fe 11.320499395304484 11.024964935639076 12.246502866644265
Fe 11.904574290666458 8.65050536830588 12.182651574571622
Fe 11.590792555873675 12.9232382354045 10.247003368859783
Fe 11.471664966710012 7.384590808768764 14.095665518614869
Fe 11.528662567019337 8.108746690869662 9.653409377490982
Fe 11.753282677666535 9.459208482591029 7.67322087176084
Fe 10.128775067996173 9.610067069725606 13.765220567576362
Fe 11.031810576952171 13.681427029456259 7.837531490368229
Fe 9.971043830240266 14.700022391142262 9.899277531561314
Fe 9.43629479538539 14.499567275878409 12.357504320644574
Fe 10.377209071269522 10.801884059050973 9.408827149121018
Fe 12.294510823299433 11.691851042982575 8.19936770857747
Fe 10.935481950945459 6.615432119254755 11.478720519891132
Fe 8.965752632389014 11.859020000617482 13.463391471903382
Fe 9.390626690637557 7.601305175047578 12.86503845703046
Fe 9.265251683908149 12.230304899671875 11.205618095886289
Fe 9.029593429137938 12.71235974561609 8.843530936494608
Fe 9.462278441614446 8.908041541301383 8.474299257191712
Fe 9.855109673970693 9.163623056450712 11.099214978145293
Fe 10.249058786518678 11.359969138546267 6.99571247197044
Fe 8.059900953013804 9.759874095380821 12.59895088741286
Fe 7.869708056879368 14.051323104940368 10.626665747207765
Fe 7.367781967013441 13.661635435458969 13.120607777864546
Fe 7.974676999465039 10.327367714032588 10.139575767304603
Fe 8.136188330354786 10.78446908023381 7.817041757755875
Fe 6.881916971293142 11.689003681435322 11.863467620746382
Fe 6.721214844371535 12.223908016466044 9.451801550283912
Fe 5.757163712674002 13.566033506386994 11.22389345718859
