50
Energy = -352.5189667 eV
Fe 9.629979674341214 9.737608414910618 6.206402525490756
Fe 10.447649168112513 7.524201156445191 6.526054262639017
Fe 11.97909367423569 9.580710966455058 6.408590618635224
Fe 10.906287526828667 11.353379909485552 7.709385703202639
Fe 13.317781308254636 11.722196469463132 7.474610379053356
Fe 6.331470990788136 8.987465537433378 8.163290624428873
Fe 8.353687170276347 8.118906758600579 7.613728560045354
Fe 9.266682190139148 12.996468005525891 7.210479372960331
Fe 10.29241819319033 8.98686535699695 8.487918944147436
Fe 8.511790954693819 10.84169963776202 8.123406168251625
Fe 14.297958996485399 9.42643567643411 7.341195239662559
Fe 12.444581348146748 7.672632569242768 7.885181989151571
Fe 11.53631943486053 13.67672527203002 8.17501879571684
Fe 7.47322566654233 13.052258406374563 8.908544065616505
Fe 5.608958211148497 8.532119327448134 10.321134246106922
Fe 12.444856969482958 9.879201261233487 8.777092531155532
Fe 14.725815744507642 10.897111505052195 9.334954302898275
Fe 8.023851629262126 9.204650374626073 9.911406152621376
Fe 10.05696294650557 6.720048858934694 8.861641911084066
Fe 9.386439536978756 14.710195086619203 9.069634891968008
Fe 6.258069495651303 10.882729911119318 9.373421995335868
Fe 7.526563543713008 6.963536813865104 9.678888731221193
Fe 9.949930442736296 12.550571449612645 9.555826702701886
Fe 11.87591723618228 7.974991459992421 10.221594135801395
Fe 14.275340408876744 8.430954955701598 9.491614724163998
Fe 13.089063241656548 9.956266352290264 10.953222523903765
Fe 7.368571201667004 7.893580074163592 12.022582850047751
Fe 8.159769365363946 11.473953748616424 10.51405768522617
Fe 4.5268734899959995 10.851975584560368 10.794878713919251
Fe 12.454966270673209 12.123103235257911 9.813688127844163
Fe 15.249391362778082 9.617476024692296 11.528816635202977
Fe 11.167897719503022 13.913620967745594 10.878486908349862
Fe 10.508935874174215 10.365330925851216 10.282517649988609
Fe 6.136525411959959 12.660082044557448 11.17627011898772
Fe 8.395608985147955 13.769005363738945 11.196007261612397
Fe 14.26684026695627 11.939595641627294 11.510793950184016
Fe 6.46302898901828 10.217499352690629 11.805263558376039
Fe 9.88217560373748 12.092427476835477 12.035135689901285
Fe 9.623667859600621 7.797967071294244 10.978603907972596
Fe 8.912160596021716 9.931093146602798 12.162160635194752
Fe 11.246434289007876 9.298899118038953 12.221045853981877
Fe 13.372453556826155 10.222683963724675 13.370551418726913
Fe 13.38673507932551 7.998871058367118 12.276261905974224
Fe 9.51136890156077 7.974161525609459 13.48069024737618
Fe 7.699113519266454 11.957546713819301 12.971796578369938
Fe 12.036979950260594 11.767277717441987 12.229158812406205
Fe 11.317930521607794 6.809374362772052 12.393137067105815
Fe 7.572612749563895 9.521944974754515 13.900417980418776
Fe 10.400667695643511 10.474515268836315 13.942582664233065
Fe 11.862364877778761 8.481852985785846 14.264623521675091
