53
Energy = -374.5711274 eV
Fe 8.065942715979476 14.118895881143747 9.805454776807277
Fe 10.017981877319851 10.729042798983796 12.785167757628752
Fe 13.510578948726927 7.341558732807406 7.877936585375565
Fe 11.065831534908433 13.22350594859813 11.772733608276289
Fe 9.659322441390987 11.76474112837 15.251151721322843
Fe 6.150305653385193 10.827743632287673 12.142950410531947
Fe 9.937883819251242 8.70959685390439 11.27125422383277
Fe 11.430401878049837 6.989986971877867 11.816668243427515
Fe 13.737261257862995 7.658204757062909 11.742968158507335
Fe 6.902234388545161 13.292316318945652 7.907638432723629
Fe 10.006282322597585 6.872798016185607 9.797938350581617
Fe 13.294877531943365 10.383642687728704 13.81579027824151
Fe 11.216377814857548 9.973369047779302 14.764853902892648
Fe 7.833800484030499 8.035197541607426 9.961916161825183
Fe 14.502693165791632 8.500438654517426 9.69282263989625
Fe 9.378981856483474 13.308879041078368 13.479491906625618
Fe 8.833966817507905 12.508601103227987 11.288698398247655
Fe 8.2097554249101 10.288555090296269 10.768573912780822
Fe 13.520074160023803 12.057481918770108 7.790918442811524
Fe 11.664909637588982 13.474613317254265 7.41721914916318
Fe 9.808449548709648 9.355305129408164 9.005012979211417
Fe 7.950529551242143 11.406333529019127 13.41603963408619
Fe 10.829816227253211 11.010940012340006 10.608281725252356
Fe 11.306578517818146 6.4967179424214745 7.959640625720369
Fe 14.775148309380988 8.57131779409664 13.65901036142721
Fe 6.593444454524022 12.102287532806828 9.99875355527361
Fe 11.610093021558733 12.255003101685903 13.956642825611011
Fe 10.179023346816544 8.248887703330931 13.583220251710225
Fe 9.565224650145693 10.033436013496665 6.664774099600792
Fe 5.8348693401958895 11.121787519155214 7.9718993491575425
Fe 10.052127033660831 12.252066918541676 6.193230472019214
Fe 7.7825051812628105 11.626345311913001 6.500886499872659
Fe 8.73044595292494 9.651959077300582 14.907793031406491
Fe 12.574923319476554 7.90349188838574 13.942209304273723
Fe 12.06724274427279 8.600461895431332 9.741080830398062
Fe 9.103718186077815 7.668490522442582 7.595178662397542
Fe 12.141814223278995 10.87199450561759 6.123787250179433
Fe 12.713485335090992 6.313117160358738 9.93376367808906
Fe 8.722160936692658 11.685903749815555 8.746568783440344
Fe 12.849368619459408 11.79201558908393 11.959954573557326
Fe 13.553262039646874 9.690065470009031 7.793492910513976
Fe 7.590666138909045 9.594637944915833 8.153081805503955
Fe 12.024140937447047 9.464340054687215 12.18157453846872
Fe 11.503075926817973 8.758728218560451 7.241244666172508
Fe 10.288243414353344 13.289237064450568 9.445079997260846
Fe 14.434263466825437 9.887564925209213 11.72297006599741
Fe 11.290137075897245 11.188592298796395 8.251282253631295
Fe 6.763593039883772 13.15303949051925 12.044377804019197
Fe 12.580295969402647 13.027034548125007 9.795979649542888
Fe 7.93709067616028 8.951854919786243 12.692230268197054
Fe 13.191825470572924 10.708793831702614 9.939760667055133
Fe 6.040854258543993 9.719476774389536 10.038400150760097
Fe 9.081818398349817 13.949301163577433 7.490348712501144
