54
Energy = -383.42758678 eV
Fe 13.184551517214919 12.592797897699956 10.090755076172487
Fe 10.716393267666275 10.881951650963895 7.91618201945485
Fe 15.290054774958419 11.563467987240474 9.72616647491994
Fe 13.160628419752587 11.239250830708814 8.168983275026832
Fe 14.442538136524046 13.416911317486255 8.140237008942197
Fe 8.49092341448058 11.271751394911227 9.401545322451527
Fe 11.98071467089326 13.345385750039304 7.9232688330428775
Fe 9.386919604862847 13.077249400766538 8.00314634810001
Fe 10.712133139794936 12.546478976343293 9.747655099112785
Fe 8.32800514404508 13.708940173665424 10.121833637916712
Fe 13.754546915530495 14.489740244590411 14.332431230762577
Fe 13.876535473359851 13.095336028073637 12.424757109538456
Fe 11.63219370078511 14.759957990230044 15.66326586331923
Fe 9.779600782763213 14.687498485102275 14.019085084295734
Fe 13.716164999399217 15.487162137432911 12.01617980454163
Fe 11.737321662204186 15.935106592469076 13.37776536054788
Fe 11.697937330479274 13.452234536478242 13.767631811814155
Fe 11.703882662930738 16.635913792212765 11.055454056805328
Fe 9.61676059903238 15.619279256336307 11.750825590082131
Fe 9.618317864393699 13.224959869554931 11.987721920431312
Fe 7.617319215188409 11.815356105700939 11.600261233999142
Fe 11.83052897228825 14.26914817902367 11.478125726949733
Fe 10.38959235981567 14.933241411200576 9.604118975150671
Fe 12.970389676185777 14.928728995618684 9.573423271570146
Fe 15.713877727942727 14.232878472026066 13.011945490308026
Fe 15.116947143802221 13.889707106290672 10.437958789599447
Fe 14.093137792774016 10.394928025577396 15.881322239210046
Fe 12.970487855647287 8.875328157826921 14.27340206760743
Fe 12.85104279343942 11.29494692567617 13.853028308398063
Fe 11.777051806022092 9.631285411761274 12.353707540866456
Fe 12.94539086680162 12.561552954377694 15.835154156112209
Fe 11.811227994067341 7.266480697187192 12.746913851914819
Fe 9.799099194456312 8.417072986029812 11.820083114027613
Fe 9.932294606679658 9.231840977571848 9.515356286243106
Fe 10.391659799529844 11.221691342874585 13.672601070723553
Fe 7.789809610387863 9.392627663432535 10.783643557265139
Fe 9.882562905865013 10.785242761059832 11.342867328808502
Fe 8.395322858260862 9.974704675442407 13.074394748460504
Fe 9.150404265976428 10.342784140031418 15.398573828957154
Fe 10.36681280246699 12.640210308044235 15.601409454470407
Fe 8.465929057148825 12.422721308070185 13.918694687267442
Fe 11.627923516439767 10.417787540877702 15.68535499847949
Fe 10.423291738034663 8.6982713337842 14.226690116291236
Fe 11.759968573917238 11.990770912740683 11.872130883367326
Fe 11.900165442255291 8.063353369197031 10.41862592911721
Fe 13.770931534312579 10.797088152702052 11.61558114699595
Fe 12.141872430557342 8.896117073827252 8.194895853376085
Fe 15.93080760222102 11.843576627188856 12.00123632420219
Fe 13.84493367014461 8.437639755685638 11.904955081780695
Fe 15.998115819534904 9.648368047152918 11.233335538792907
Fe 14.972349372284524 12.19113848884849 14.425174170605182
Fe 14.982208756585713 9.981568363895743 13.499598986792899
Fe 11.897136309398071 10.453991765115413 10.142418054934382
Fe 14.013371636222836 9.37656533344504 9.718216260078071
