54
Energy = -380.70250725 eV
Fe 9.899018733457455 7.403866610772551 11.318707468654866
Fe 9.272861575914764 7.295187436748161 13.474347574305714
Fe 12.059182733640542 8.31827318204869 10.458852300284578
Fe 8.405341299400149 7.47153823577347 9.51709109381022
Fe 11.352347895999207 8.578226514595025 12.766843435283924
Fe 7.826809512486766 8.688330923140349 11.60303173173132
Fe 10.58178535099469 8.860583865507126 15.04132270047822
Fe 13.867520538002506 8.772177074962134 12.238970620633143
Fe 10.20496146679356 8.847478231926196 8.737568773405108
Fe 12.807068589062224 9.616269364051451 14.25465850840003
Fe 12.530105195764742 8.81937821400684 7.965100829232345
Fe 10.101883837044802 9.729793796257647 10.974198566028159
Fe 11.581803470524571 10.923125477611661 15.939184638347552
Fe 14.882346570026796 10.706403633892997 13.532537727606133
Fe 8.905028873439502 9.512072798097199 13.506746561678016
Fe 13.993670297487933 10.92355152220686 15.883696644823296
Fe 13.940141330808702 9.400642472848771 9.829600612679219
Fe 11.849781218630325 10.575909544088352 9.469884636674964
Fe 9.5899130405594 11.230652840297136 8.655281466934943
Fe 15.389697477424589 10.54597476179345 11.301736341227391
Fe 7.952865839035495 9.827422827048636 9.57530924464636
Fe 10.76791109371022 10.984132734476548 13.365738846344978
Fe 7.275288914677346 11.131268359260666 13.819879123234028
Fe 9.277715396295607 11.092561909376077 15.330684356961378
Fe 15.863865051465993 10.457445762104182 8.724912680134072
Fe 11.104425749994116 10.37510305251701 6.964681375037891
Fe 12.663233495834904 10.839070967043824 11.792599699419245
Fe 8.492714702953293 11.219068593761 11.780732984293921
Fe 15.570550642111998 12.546596611412934 8.325588189562408
Fe 6.362822440022663 10.748781454714143 11.144426181828827
Fe 12.977331585280554 12.053508865192622 14.101748372176306
Fe 14.046635165251374 11.814311410144493 9.791714910873868
Fe 13.515148190547787 11.043862763820034 7.616717571418661
Fe 11.507651482334468 13.168955757803637 12.538536758096557
Fe 11.616802798328683 12.487231981373665 8.101850132576748
Fe 12.736348742077626 13.034669320891597 16.303524354853945
Fe 10.399759809425428 12.166976329069104 10.714790613852472
Fe 10.78101869109063 13.082852392603542 15.005545124459898
Fe 7.771988603270588 12.422746817983558 9.875328164318697
Fe 16.284090583741886 12.572519123458404 10.577904775186758
Fe 12.399612499222263 13.324958556567738 10.254527701867426
Fe 8.890516683199449 12.70763917613206 13.610714671881135
Fe 9.646954610523158 13.791377994235518 9.058230533852033
Fe 6.889584662924294 12.978722607021366 12.121007679318511
Fe 14.301416996813169 12.776740819279077 12.149197403920995
Fe 14.691315617742829 14.262026374561971 10.163166353587945
Fe 12.750587751955399 14.376755030399277 14.22818910190931
Fe 13.621360980952657 13.83208731862553 8.078719643525481
Fe 13.040566648916881 14.994581978369222 11.95598714510512
Fe 10.371425719106107 14.987968384393069 13.309886474890364
Fe 10.875044487919078 15.0600595824302 10.773807758211856
Fe 11.50312992713783 14.96834752559866 8.209257508138561
Fe 8.992678989452909 13.906870737280927 11.564140228834177
Fe 12.95399706264914 15.805481364300347 9.69593599630883
