54
Energy = -383.45304297 eV
Fe 15.31374887294902 11.647286309183151 14.073203061654276
Fe 16.240720003688697 12.262635073642329 11.969226254203184
Fe 15.410639960995827 9.712841723524882 12.186926588234607
Fe 14.47897492508778 13.607527286252914 13.082130152155592
Fe 13.855492552804963 9.671139870375132 13.975833585927871
Fe 12.809227633847335 11.915817902904983 14.447559631000455
Fe 14.936251004042342 8.453566304246616 10.295011690151052
Fe 13.304986493871327 8.182275452504472 12.039671116475205
Fe 15.154916046628944 11.066827764850505 10.010666643203516
Fe 13.907765583456353 11.465784527197858 12.17091232946146
Fe 14.819528926713136 13.389439968021412 10.492820571062376
Fe 12.594599981318451 14.466373585272398 14.209260928590085
Fe 12.265146893961592 7.769460713842714 14.054908500991685
Fe 13.195114395160566 9.972675222438193 10.53734798975149
Fe 12.059364123357238 10.162609648602466 12.703917634661485
Fe 11.26915169776514 9.755337289033164 14.925125703049874
Fe 12.971996953599469 14.71580670848004 11.5156628414747
Fe 13.925964853391786 9.359873126709475 8.237255637514425
Fe 11.874193338749404 12.79583250377245 12.538578460426834
Fe 13.567169781660814 11.74803476502105 8.196171183366845
Fe 11.429600751593563 6.767739220482938 11.71707254405553
Fe 10.668746016690863 13.107376522863602 14.705021431598006
Fe 12.753103964525918 12.376770723449532 10.235532020140257
Fe 12.613998795330522 7.728438442431649 9.57505286480063
Fe 10.86422428225573 15.130237586890058 12.743922569220208
Fe 10.816962370838711 11.310847337480071 11.021628183217413
Fe 10.230027021940408 8.363492227046187 13.019080771927204
Fe 11.032050787133276 8.921411385251089 10.78600654938048
Fe 10.825604107227536 13.922352515322382 10.601112717659088
Fe 11.762829986080552 10.07425785839933 8.609017472551788
Fe 9.360552170838258 13.32239553915261 12.657920342220168
Fe 7.939835779969887 7.79362363713173 12.531170540058806
Fe 10.109370806184268 11.149892175841735 13.472801443917847
Fe 8.798329861332734 9.966929338009814 11.689684474193259
Fe 11.724375918314278 11.771755838033338 6.662931846083426
Fe 8.42378194075678 9.562683034204392 14.085269642956272
Fe 12.183135989239737 13.958738003017212 8.574538392726476
Fe 10.409068071137122 8.13161777004352 8.364812166540343
Fe 10.63623724280959 12.23306257139081 8.672219727548446
Fe 9.301176975953812 10.13379804804913 9.420906573001863
Fe 9.197294583774344 7.568716430376052 10.438158298952082
Fe 8.848012457230732 12.419396005075752 10.47734866891261
Fe 8.740181858663577 14.983500642433082 10.915742231850446
Fe 9.788290843523463 10.297086267674457 7.070370625415991
Fe 6.983132390300479 13.592586414649038 11.776779555155995
Fe 6.371837523775355 9.679302868129492 12.498084052958431
Fe 7.208940824164861 8.817963225164595 10.347822205875511
Fe 7.628973154473869 11.656840715844758 12.879111872798738
Fe 9.465322305785424 12.683398478841266 6.594074539818257
Fe 9.230352300086698 14.13468786514946 8.584570176872287
Fe 6.850979386481049 11.266011395092718 10.516541343478584
Fe 8.077302018868254 8.760180528408407 8.094522427410261
Fe 7.059155184019716 13.689624532488779 9.429332187276529
Fe 8.020952918846444 11.74524836329558 8.221144044470996
