6
Energy = -35.45567894 eV
Fe 8.511143115939083 9.261855249616445 8.578517564066681
Fe 9.428271263743833 7.180974648101178 7.573181952166843
Fe 7.129217315805546 6.391996664086208 7.08458700800788
Fe 7.86617104028885 8.459143593382217 6.58439469075145
Fe 7.763450635222743 7.202099901892346 9.082027892112501
Fe 6.196775422776298 8.471989738847094 8.090211973711789
