6
Energy = -31.91124813 eV
Fe 7.189478491034717 8.266891710152088 9.018701331907389
Fe 11.03655511765545 8.939867916431659 7.450463554420822
Fe 6.9208887488949875 6.396273433469665 7.514343352191127
Fe 8.990381265009164 7.6703454175791155 7.498552423413726
Fe 7.5180079260880275 10.108771270324045 10.47843540682202
Fe 9.287133401522226 9.560295252043309 8.981948931244792
