6
Energy = -33.2401337 eV
Fe 10.245076451333768 7.887167839176957 7.584537201927397
Fe 9.89015262251787 9.73539677455145 8.953306108039865
Fe 9.662596225466663 7.657746100373634 9.789590013251035
Fe 8.141947223205758 8.433143715435943 8.255121201142124
Fe 6.404829030750186 7.741953568147831 7.07552636586419
Fe 6.042064504558616 8.934786250413007 8.734149636862245
