6
Energy = -35.01486392 eV
Fe 7.848544196324212 8.254401351670214 10.345610808305807
Fe 9.848199300629894 7.332287990772019 7.555008875780534
Fe 7.278454629959153 9.656808742417299 8.627342520342557
Fe 9.656739828666957 8.9342198784817 9.173853115529628
Fe 7.685659885242894 7.501758944907716 8.195118265625453
Fe 8.975349705075033 9.400720305867154 7.104283374392875
