6
Energy = -35.17904627 eV
Fe 10.017219347609197 9.389895303226954 8.770417998879775
Fe 9.241401159617757 7.652323141133546 7.415213414661609
Fe 9.058969561532132 7.476167271038526 9.727678515992379
Fe 8.109030459259715 9.6867046401842 7.456492277719534
Fe 7.077548454295817 7.739255586097247 8.404549425473931
Fe 7.914005055647401 9.504278631418858 9.771076155599324
