6
Energy = -34.95268053 eV
Fe 7.909275643279274 6.468100096447035 7.9479014582499135
Fe 9.042189313131177 7.209032484296132 9.557525481525545
Fe 9.094134950834805 8.26937379794337 7.24651821203326
Fe 9.087772959534268 9.46517635037404 9.32199055678695
Fe 7.948245084548861 10.218419104558203 7.4521409456294485
Fe 7.0424195208620795 8.456370572230007 8.570467513981761
