6
Energy = -35.4523892 eV
Fe 11.110519820639409 10.873756808776628 9.75718946886723
Fe 9.022145984018236 10.65920013236391 10.568489889323086
Fe 10.423399597346402 8.940363183760633 8.851106044412804
Fe 8.33970778501729 8.715974883588986 9.669042128169057
Fe 10.360334498204159 8.925553931575752 11.09460402680542
Fe 9.080408197615432 10.662361284564243 8.321828079525444
