6
Energy = -35.03507069 eV
Fe 10.916103004875943 10.104696004266783 11.944774198479815
Fe 10.352636422979872 11.806163126822701 10.511228590480759
Fe 8.940067713622266 10.104690025456438 10.807402953745756
Fe 9.883178773371325 10.71922763235719 8.54170391456476
Fe 11.355904527438685 9.602417372421995 9.786443489316184
Fe 9.407173528519348 8.573265319794064 9.208337380970352
