6
Energy = -35.45097578 eV
Fe 8.266616219602366 8.23625122014204 9.947022246009029
Fe 9.61696454553481 9.641372369178214 7.933853750727777
Fe 7.82014955897713 8.3051577749593 7.741309427812039
Fe 10.060759860752553 9.57649778508345 10.137463910591814
Fe 7.885590553714218 10.320906342847271 9.191132338754226
Fe 9.992498105132777 7.553933025015043 8.680616345269222
