7
Energy = -42.27960707 eV
Fe 8.28419421173621 9.63979855782334 7.349656350042423
Fe 7.2153596135761155 9.020385809129522 9.327005313464356
Fe 9.810340564583324 9.91518555801759 9.089757758685364
Fe 10.203175170040097 8.341362899051905 7.353743834474043
Fe 9.138509699608948 7.687576741805415 9.271965803324713
Fe 7.601144578081145 7.443959275596646 7.590802170704586
Fe 8.82894349324854 9.110904647715238 11.19791869283511
