7
Energy = -43.20970637 eV
Fe 8.794270769090511 9.811551634096142 8.762574358462093
Fe 8.45844992306889 7.653674993071536 9.656437741784728
Fe 6.708909704317665 8.883122567873812 8.171624049311868
Fe 8.061251312556172 6.863701571327175 7.20468062885394
Fe 8.419961211392813 9.098562410960602 6.565786715382055
Fe 6.549469025394504 6.751324410444297 8.871025547864868
Fe 10.000563635296096 8.005621061216564 7.905757200354718
