7
Energy = -43.20763807 eV
Fe 10.946822076823363 7.866928834692527 9.476620737618065
Fe 10.785101712511903 9.516235896357422 11.006711080724841
Fe 10.6670341655304 9.840853501512443 8.42715439376581
Fe 8.794819142902899 8.489367719877556 9.63387986849051
Fe 10.25174085173352 11.571549496640483 9.98113788869697
Fe 8.584540912732628 10.344118887065093 11.074146577508728
Fe 8.480507673803112 10.66230855479042 8.76282720181313
