7
Energy = -43.50764989 eV
Fe 9.51315859227771 9.163065673531262 8.576560465272951
Fe 9.58867117990278 7.128990650601061 7.4441846311744415
Fe 7.184604919885863 7.750193704977845 8.06390447965399
Fe 7.335720235109378 10.047474330591324 8.356960084126104
Fe 8.441614942040472 8.89842798461318 6.488428763257484
Fe 7.923226024570274 8.852457936647907 10.251400982137236
Fe 8.711168106213643 6.857553719037422 9.51672459437792
