7
Energy = -43.21179604 eV
Fe 8.071328448748922 10.229444194643532 11.14194658370382
Fe 11.665507208398322 9.754819099659422 10.021557238774752
Fe 9.77720199635378 8.75996634367843 11.016716395866922
Fe 8.411427425781477 9.667235864206704 8.986839112171861
Fe 10.442535217903997 10.576749877174317 8.204222095934318
Fe 10.324875078685691 8.30696436055875 8.766081154715591
Fe 9.910626307594432 11.290184969954277 10.382838928784489
