7
Energy = -43.21406684 eV
Fe 6.323919989150703 8.958319930304276 7.957190110925879
Fe 7.166594690735891 7.45538691104073 9.532145136482457
Fe 8.488214047653578 9.239001487674907 8.806531207732727
Fe 8.190483255862505 8.709754871584545 6.535273622878718
Fe 6.714757702004725 6.716297463949938 7.341915105182488
Fe 9.128023705611477 7.026488071959678 8.29854991215799
Fe 8.621525700854516 6.528270355359187 6.161913996513253
