8
Energy = -50.3979733 eV
Fe 9.001456442128074 6.795803403004835 7.516982754396082
Fe 10.335939941206405 8.678883235961736 8.017630871058978
Fe 7.35875096455621 6.568454483410739 9.110106933895125
Fe 8.521908980907654 10.136306734790116 8.38300923091212
Fe 6.920805153904649 8.270890243643125 7.697838560455465
Fe 8.973426009038478 8.023407685786989 9.749222437692266
Fe 7.0049579652467315 9.12797716122937 9.78656315547538
Fe 8.730116796580813 8.862707920161878 6.408962456591244
