8
Energy = -46.73922626 eV
Fe 10.723429753740024 9.139409802109935 9.633128128230362
Fe 11.427584222398165 11.082979422677813 8.361036330547222
Fe 12.454138266606995 10.750054836740448 10.302846475262436
Fe 7.6120670719669885 6.87366878629758 10.397947011392938
Fe 8.602407971399222 8.97665790360361 10.84417599275317
Fe 10.150619147107536 10.647511857793068 11.571872156410748
Fe 10.926526779301703 12.477280813125885 10.157272223877397
Fe 9.049757662570462 10.95969396582328 9.613527607457332
