8
Energy = -47.00839249 eV
Fe 11.824340722340825 7.513962976820949 10.373142058596954
Fe 10.638825351464977 9.490913117983457 6.974767122438324
Fe 10.353015364056844 8.898259034075034 9.214570365711662
Fe 10.040062936029893 8.63169259164392 11.504719301956742
Fe 8.040052114424022 9.203146950587692 10.13575965924342
Fe 9.554903120509172 10.881558966134495 10.543863396699727
Fe 8.841131578091764 10.5733198541076 8.158192385251805
Fe 7.419409188455376 11.479177981050684 9.80299152954753
