8
Energy = -47.04811368 eV
Fe 7.3206477764809 11.35834907878439 9.825662970371539
Fe 8.530902796306053 9.707887415558782 8.722291919064128
Fe 9.671042302123018 11.68225547647809 9.484973318834637
Fe 8.970515008237966 10.12976010369587 11.047977059516418
Fe 10.81931771277001 9.444172527665812 9.483295407791442
Fe 11.354253188843815 10.991126610218032 11.25509661615076
Fe 12.876656188758531 9.199175750327587 10.68748755932131
Fe 13.367308163663926 10.697059328857243 12.451933700923222
