8
Energy = -49.91508648 eV
Fe 10.453979860041853 8.851349529474646 7.719532285083609
Fe 11.13429017473166 10.831903176701715 8.68193128102451
Fe 8.880874844941946 10.22808576952554 8.998537613862842
Fe 11.101125096609902 8.823459317185613 9.945536618822123
Fe 9.036677995353966 7.886822577220186 9.254980812537074
Fe 10.40981190834848 10.976192227736945 10.898127416841149
Fe 9.010463657831828 9.081786302499323 11.258219299115634
Fe 8.13439481686738 11.168232248966168 10.959602680703789
