8
Energy = -49.91213853 eV
Fe 10.318933023930471 9.466869528345496 12.235469074747318
Fe 11.612313100332365 11.307480110984862 11.562489864172234
Fe 13.17732648908249 10.613719437048292 10.016677329737634
Fe 9.289401612714242 11.523182613321316 12.335573091663903
Fe 11.211566919770634 11.225810690678395 9.043841882312451
Fe 10.011603682767955 12.644113212579214 10.458002487875124
Fe 11.442618966437626 9.156500891362132 10.224736348782983
Fe 9.284081739364682 10.3941775994302 10.317570504230723
