8
Energy = -50.39507333 eV
Fe 10.18483562457374 8.576475058475186 8.02229469914649
Fe 8.81748604980136 6.998031543295762 8.988347067109693
Fe 8.529115865155651 9.491859999928435 9.433458627042025
Fe 6.955558743012712 7.8773343360449815 9.915327970198284
Fe 7.070894748699936 6.426299505625967 7.6797495897893935
Fe 8.547832879652383 9.880730368655673 7.109563465411228
Fe 6.732633365769458 8.656476168813954 7.810299203498923
Fe 8.656426584557348 7.605582482694993 6.5078546517235925
