8
Energy = -45.32387877 eV
Fe 11.290767909347927 9.25851126337208 10.63185150722825
Fe 9.636573658821357 7.564889912068298 10.271382648731786
Fe 9.750361974575338 9.598600951663556 9.042628812167909
Fe 10.135678791181789 11.358060167455124 7.7204503116371725
Fe 7.949626166303775 6.058876170958942 9.600302081171872
Fe 7.899771956635699 8.119573960894266 8.705895816275838
Fe 8.06521671832064 10.17606761820151 7.4720913303378556
Fe 6.168498362841787 8.780004243179635 7.439533358127353
