8
Energy = -48.06312951 eV
Fe 6.815910662897063 8.352197671317573 8.631115100074119
Fe 5.734808567103623 9.241464554830062 6.854578388375457
Fe 8.9483779600655 6.477140564426875 7.557233458038594
Fe 8.822288364177986 6.520688662559844 5.303502494987672
Fe 6.849096944402667 6.053416522966992 8.415180677858627
Fe 7.192143284717303 5.2849765616600735 6.27004876044273
Fe 5.1152303361361655 7.116692430121414 7.320247062214356
Fe 7.244400175514383 7.675679327131595 6.370350353023005
