9
Energy = -55.78042522 eV
Fe 9.527850994028409 8.619886629237424 8.594686448760802
Fe 8.946223424031723 8.832511947769595 6.351745101726462
Fe 8.480944219938342 10.565458991232841 7.696602117861846
Fe 9.570524328908498 6.396117436405014 9.15437419168937
Fe 7.654627025164088 9.626959025689956 9.555590069310808
Fe 8.476150015933285 6.696676731919308 7.193762557711007
Fe 7.536588164642094 7.2887172007292955 9.590069596058575
Fe 6.979809779807933 8.801070227093108 7.533538760026759
Fe 6.30767999090303 6.652999753280748 7.810029100212185
