9
Energy = -56.51376827 eV
Fe 9.740319100096217 10.025734995868971 8.658386956600564
Fe 10.265758651719803 7.86675135706706 8.911487437134522
Fe 6.7672668930428745 8.1557256813106 8.835850750951746
Fe 7.708635657248236 9.392730475034172 7.15384360311748
Fe 8.24999846461293 7.179058151485477 7.392370589256965
Fe 8.367276667256283 6.720148374752538 9.647103365060689
Fe 7.508338319156138 10.293040371721833 9.26625582372302
Fe 8.646879903798123 8.782752244527224 10.461330033150706
Fe 9.853504218716944 8.69203520229136 6.781348441004192
