9
Energy = -56.53117699 eV
Fe 7.910547521282445 9.709307444690634 10.28555224663648
Fe 8.902580458813983 10.965160565300495 8.646820178952668
Fe 10.523739347182826 9.626431608326513 7.662399509832035
Fe 9.470818036752465 11.286818251199184 10.84035320136014
Fe 11.209377398787753 10.50710830491703 9.648076917827725
Fe 8.500844039743784 8.714366126810555 8.311146946145463
Fe 10.313966486929798 9.122785788564592 11.252354064056
Fe 10.77737297206814 8.047934365483641 9.2912493251929
Fe 8.802855507072954 7.597642113704479 10.278004540158317
