9
Energy = -55.0370438 eV
Fe 7.678188234358436 9.201783563489663 10.634049798041959
Fe 11.274753327708712 10.680788136580118 11.270884878230307
Fe 9.513560815133953 10.026216403797587 9.688543542826032
Fe 9.287676612370548 7.652050186547858 10.207698091516955
Fe 9.494324449867369 11.396342218466453 7.976770134576394
Fe 11.293279752747308 8.782306753985278 9.994163265263923
Fe 11.615537091627889 10.83166511020115 8.724496469552394
Fe 9.585553015498235 9.154231007070633 11.94809303891115
Fe 10.333088603913415 12.312325758392749 9.947008501036985
