9
Energy = -56.5374308 eV
Fe 7.115454081032856 9.437000047411034 9.269452627553644
Fe 8.985370562046393 10.645835076407833 8.739166004652178
Fe 10.486675217457499 8.659742382754567 9.66034809149394
Fe 8.563059410552054 7.57972573328113 10.271875773346336
Fe 8.753485859671372 9.748950449933005 10.831346939225599
Fe 10.369559259487525 9.3847750493804 7.424428255351064
Fe 9.638261876133182 7.333298456196257 7.998186889388736
Fe 8.096863117991223 9.21068733943699 7.194475124276231
Fe 7.376908698358473 7.333707784275489 8.338610263352418
