9
Energy = -55.85193577 eV
Fe 13.610322436759404 10.128621410847563 11.425733519846293
Fe 12.694758516931266 11.944912344603207 12.43865484590242
Fe 12.819083086695663 11.580129593216633 9.90129830094032
Fe 11.139389682060811 12.820174657448346 10.925254427425322
Fe 10.714709826418016 10.703065766096039 9.44126681083911
Fe 11.404844635833832 10.150670687606992 11.43697929234525
Fe 10.268259469834765 11.7992743970777 12.825943775500876
Fe 9.278328780302221 9.887978385902418 11.880149630656458
Fe 9.12943153313656 11.712962879684065 10.58651910781995
