9
Energy = -56.52734374 eV
Fe 9.459851554558387 9.963154326105 7.524536864442697
Fe 8.21112351927049 10.756045191817165 9.27217337172327
Fe 9.036037249710827 7.37214055533708 9.777271347959623
Fe 10.49629520010841 10.888329547300692 9.343184374883139
Fe 7.608736465701039 8.806174502750801 8.20076720556829
Fe 9.495775767682689 7.671148594250404 7.599741519825511
Fe 9.698136435789491 9.512848798970145 10.940403097232313
Fe 10.916593375160994 8.576985780534011 9.2473114091986
Fe 7.537765812957556 8.920523855644246 10.512639558935524
