33
Energy = -69.70881111 eV
Ag 13.535744317667238 8.321022068499405 13.22400062972235
Ag 15.573047400464613 8.960622772803069 11.30517195128483
Ag 16.07965844018031 11.580486543833798 10.540019221084062
Ag 14.292933184824093 10.982541802710834 12.771414123159825
Ag 11.836166126460936 10.363472824999294 14.26190871583489
Ag 12.730834690610422 13.022995502440013 13.866849194812373
Ag 14.746199471314243 13.608094037031675 11.939976893801521
Ag 10.021824675847324 12.187887926848662 13.18826810300262
Ag 13.30356044242449 7.585348661213269 10.47131563053783
Ag 11.078367898989221 7.200854569412389 12.276850363495498
Ag 13.802656018141192 10.317389906673094 9.566349143805754
Ag 11.786524837826214 9.792181441979452 11.577647380540869
Ag 9.367285952201067 9.427297200778408 12.984488658045388
Ag 12.486902172936336 15.199578866773052 11.805803510437418
Ag 10.646724866027526 14.85062741732208 13.942302431997629
Ag 11.041606003409091 6.256632996797686 9.552438945539855
Ag 9.41166993317441 7.536880372997351 7.650052121176543
Ag 12.069116078850803 12.49792552241909 11.121803940067881
Ag 14.075835701460736 13.095207574667048 9.236812356087896
Ag 9.073773919972192 7.984605012130246 10.514712415250369
Ag 7.99072057555731 14.14804009206531 13.545071000380476
Ag 9.760227683667123 14.413050074627405 11.289804081324757
Ag 11.418806358213203 9.005807588721527 8.821012832595022
Ag 7.394642306058573 11.334752627831664 13.598307598288203
Ag 11.621178926435624 14.499718499643881 9.171354101958059
Ag 9.589557625945984 11.00407199953536 10.44241535744734
Ag 11.650413001808413 11.778156799605695 8.356854320002412
Ag 7.147432535341571 8.751563056193893 8.670298161156264
Ag 7.475093790275328 12.79037805735023 11.208565594498555
Ag 9.192122639453622 13.148870775539526 8.72977945949153
Ag 7.069390078267597 9.811908143473985 11.270480153224907
Ag 9.26349208810478 10.416015850987558 7.649191314117156
Ag 6.941419802524474 11.471679596766746 8.878897122868683
