26
Energy = -53.25267994 eV
Ag 7.86066501721762 11.200955557705894 13.015637554451295
Ag 8.909957247348869 8.816487294417977 14.54065620512169
Ag 5.966987720649607 10.390333083088766 10.899951040433
Ag 6.717364732580688 8.556684032649759 12.762466529320909
Ag 11.165122991812368 10.556323569130688 13.55093434167861
Ag 10.162993168933708 12.084177503309295 11.437201323999936
Ag 7.585036803981673 12.615825915951714 10.59750930068509
Ag 7.633295133032357 8.184064794184096 9.970496739356564
Ag 9.358843595035518 9.232841717669903 11.918515177418266
Ag 8.616803018464772 6.568276891241725 12.227833282291389
Ag 7.372908475089368 10.705302005690339 8.455658425750977
Ag 11.19277447366185 7.581740077046814 13.105917492206862
Ag 9.786705707437328 9.959274609840532 9.364534702691895
Ag 9.556469573013024 12.665404902497949 8.650360435409734
Ag 9.469225219316424 8.034467625545851 7.520250366002466
Ag 10.463213045466825 7.294511441406879 10.16252499777179
Ag 11.798689591600297 14.032106121359007 10.011668847885005
Ag 12.187398433498139 9.353535609730034 11.143578179843521
Ag 12.074458903032165 11.442599311055158 9.226349569206736
Ag 12.932494340194516 11.993984558310888 11.867508216849268
Ag 11.979986793578231 13.243370741709573 7.149639634019736
Ag 10.728559201040566 10.620960829722323 6.7808521702593705
Ag 12.188717429561082 8.675896201152003 8.34922154280796
Ag 14.259789541015689 13.028840571442156 8.832338341396527
Ag 14.474398510271136 10.291357590057842 9.586158712381266
Ag 13.564756310962222 10.891782245253872 6.904203812125176
