28
Energy = -57.50313812 eV
Ag 10.18256847284633 10.148463215756701 6.260397364864603
Ag 12.420184637565518 10.208865877086643 7.850526770763437
Ag 11.019371304801336 12.775446905965511 7.514712999107461
Ag 13.327139283816551 12.598352265244591 9.199627468240624
Ag 14.672930453810208 10.008624607894829 9.539143760888505
Ag 10.28046075904353 8.146204616815835 8.305693165727124
Ag 8.27003537251368 12.052470240067848 6.840459180576229
Ag 12.81205759611128 7.8828377634181015 9.37248621237598
Ag 7.778238034973016 9.381738072073269 7.573916017300159
Ag 15.021039971549088 10.767773892488393 12.188410777177154
Ag 9.823582191270043 10.842259222483511 9.053033183997426
Ag 8.725004103755687 13.79077878931082 8.906782464057404
Ag 10.90525918667142 13.083456646028045 10.54165744897724
Ag 12.254943061563827 10.515947908226279 10.777864375456657
Ag 13.261757168217287 12.91305133801723 12.112094047344032
Ag 13.552154666829404 8.346484684273294 12.065254311065548
Ag 7.084449990074514 11.460046278604395 9.41081546469863
Ag 8.210901623866503 13.051952413145347 11.540070087886686
Ag 12.79196798431378 10.58894983210201 13.75809034783527
Ag 10.787649294894752 8.02903632951414 11.261501190145328
Ag 9.7091226230951 10.690893763421156 11.879754784896624
Ag 10.839664067235374 12.670703502737402 13.442749649310898
Ag 8.247636938046275 8.784188887045591 10.286661300124152
Ag 11.570096837319404 8.02261362650406 13.958405789119277
Ag 6.860992609538004 10.517611254018236 12.019079638922765
Ag 10.347122754697788 10.279745588316834 14.946708755707396
Ag 8.238696019279056 11.803757029261265 14.061252411908345
Ag 8.779410572579888 8.521575484930501 13.236364435544843
