43
Energy = -135.08478305 eV
Al 11.06550254800614 12.0799623126773 15.435023287289736
Al 12.292069277052084 13.823871249898083 13.724416254623444
Al 9.687114909092758 9.608347329061933 15.243932365247353
Al 9.606491343712628 13.936604918665523 13.850139476080606
Al 8.369099472870676 11.76176026637441 14.718329718137161
Al 12.291353248565608 9.556720491154595 15.605846446922003
Al 13.37312783009236 11.328393808431585 13.992201290026307
Al 8.568071669409449 15.13075602101087 11.635744610649216
Al 10.994056909121484 15.949092256017133 12.412604315653379
Al 15.058505621430859 13.41110545038215 13.110757981067303
Al 10.711211441166881 11.285710615691157 12.893348055221885
Al 13.271280909729269 15.061962026337934 11.31804180969753
Al 6.321144193938756 9.727637705339246 11.524102207909625
Al 8.729555135546367 9.465194970275274 12.605399347441793
Al 11.234291051752733 8.599323202349504 13.171974631098033
Al 10.593732563561858 13.294957370613998 11.159790575835135
Al 13.139692405418835 12.378923691359846 11.492669366014786
Al 6.407104260061299 11.928586143283036 9.839261388785076
Al 14.010786449217566 8.599306162617474 13.698047854929996
Al 8.029794026699053 12.26426747525494 12.070701372631166
Al 10.622466225753456 15.433605197137036 9.538092761089686
Al 15.40754589326668 13.52650499291346 10.377485766986785
Al 8.313958960199967 13.700369764217541 9.387545186810643
Al 6.33626470304917 9.417054985107187 8.826666092062272
Al 8.904188205641903 10.670990961157978 10.01352754580282
Al 8.228248295197096 7.842178853735402 10.384261840169778
Al 10.781901246316446 8.783734208448685 10.425865317194278
Al 15.39274002939164 10.723629312163922 12.138868690222694
Al 11.57223784401683 11.21072329227919 9.679154156377804
Al 10.538682977045854 6.095491892529684 10.417796241387759
Al 14.896412864926338 8.490299915713852 10.019058845255696
Al 12.930817086863152 7.012191047698155 11.756417447745328
Al 12.946857104530855 13.639910850446935 9.046303868276254
Al 8.038664063288588 11.54048815956119 7.566698928538047
Al 14.54835766236893 11.165003791901167 9.31742796297399
Al 10.438743218051304 12.988226640372758 7.986803703751567
Al 10.827848793136814 7.468779634334587 7.910489039890668
Al 12.952375121457676 9.7803206771988 11.46016740632968
Al 8.548513446469864 8.776137635681659 7.651976779962165
Al 10.590213872406807 10.319407420101069 7.2782553152857465
Al 13.056182991997128 6.603539648855816 9.096365620967031
Al 12.885695114435276 9.191486187462909 8.308642541323218
Al 12.800912914331764 11.719700542889527 7.201930853492664
