43
Energy = -136.29766887 eV
Al 12.164354750653482 13.204046949172302 6.655896558155067
Al 12.004322499430002 10.555763747924301 6.138442132618174
Al 9.659619433271061 12.772890125417758 7.628076667532769
Al 11.500675435787587 14.197694012572226 9.165152698800075
Al 8.86130322506152 13.90479690561883 9.987093844580253
Al 14.139215665235772 13.974050710259252 8.284187174623618
Al 9.758855001834046 10.004334452748894 7.61398018660447
Al 11.293446138826086 15.602216032793756 11.502204547777184
Al 8.859369138087539 15.104745123300608 12.383309717464646
Al 11.916926968610618 11.47388495132467 8.830782243318867
Al 13.658746857960569 15.651995785578098 10.277673647348635
Al 12.835196872990386 8.983523775796701 8.093502587621055
Al 9.486522411381722 11.26658710118855 10.013698484766737
Al 16.122355118678968 12.444111333347152 9.323530124347469
Al 10.650639496074625 8.738582977238494 9.865733786056234
Al 7.884142577561201 9.017312232072431 9.447816213604241
Al 8.015274903815524 12.209090446999495 12.0553037366122
Al 10.704630363868462 12.971250238608613 11.84253018744291
Al 13.362264623742547 12.899196069833215 10.72073046177633
Al 11.265450771783982 14.577614441035244 13.993827107723115
Al 14.336109857023754 11.326264812642208 7.4297915990863
Al 14.366777217360427 10.400870462684317 9.957633869294838
Al 13.25585033703697 7.905454843210912 10.449254600272225
Al 8.702972105582282 13.531593488621748 14.430026420725596
Al 11.915267336288013 10.579961350101552 11.44581763460698
Al 8.923127192751474 9.367980812510222 11.920223554972079
Al 7.480736321500111 10.400009403890671 13.99899962866924
Al 13.762819360673909 14.704472325862968 12.819424373962113
Al 10.169533394321926 11.246487019360359 13.85086322113993
Al 11.437315357775919 8.048707627823294 12.408504483859575
Al 13.343136718127047 14.07651427966921 15.661814486788385
Al 15.492981308336748 11.885330647433365 11.963570444622105
Al 12.84763065749995 12.220841606165369 13.546607031181814
Al 14.245731974848473 9.362681203865451 12.445788763220776
Al 10.818793046546851 12.946247696190953 16.095844593647175
Al 8.427353521581706 11.643113442624175 16.18778528043585
Al 9.75415478835188 8.591441717441885 14.410263674590404
Al 12.389691068937235 9.637849559887362 14.388706666603202
Al 15.654003036564532 13.36730469132816 14.148862563523666
Al 15.432598987737858 12.498456991606519 16.64781625950826
Al 14.956555281309532 10.669589600140924 14.606594637113872
Al 10.609861052555752 10.156060832318241 16.443036164325285
Al 13.010830950506264 11.356221299664345 16.396441066951244
