43
Energy = -92.44997422 eV
Ag 12.73123695652387 13.846793647139457 6.668514789161297
Ag 12.045245166852562 11.22927357435637 6.354427923693789
Ag 10.195505328119056 12.952424570640696 7.664713750634274
Ag 11.773838532463339 15.069287184034076 9.121232192715228
Ag 9.160845527106709 14.234029413106771 9.977056855748192
Ag 14.599247363184594 14.320034117450733 8.63979395916142
Ag 9.915184541573714 10.047868422694737 7.654844959448419
Ag 11.406988845817876 16.162436110286578 11.740950845341764
Ag 9.0326030015017 15.020972288064076 12.661548296170224
Ag 12.514103347265765 12.325758980842453 9.122804653679937
Ag 13.925413342229549 16.247651563933154 10.564301009164508
Ag 12.6807385988243 9.47899975434472 8.414183967120383
Ag 9.678988476999423 11.467490517176401 10.043387188776833
Ag 16.466326113333785 12.498461933899662 9.715624799438714
Ag 10.527034401755348 8.611832986872058 10.064496868052162
Ag 7.883145631648468 9.467125322207917 9.50753243419158
Ag 8.122420011287604 12.44827202515069 12.113629627403572
Ag 11.30561148348165 13.34407686887416 11.524252420043227
Ag 14.348105012630421 13.433179001485806 11.269146246574367
Ag 11.283311538286185 14.488309167603775 14.208283790007803
Ag 14.655680189669653 11.654815121823532 7.526347030219458
Ag 14.700052239321055 10.457958055292409 10.178393110879615
Ag 13.196422718875528 8.128083375935898 10.826687147962204
Ag 8.764636096574513 13.328127639358057 14.867547415220246
Ag 12.135078649782761 10.687217857520446 11.344517238743377
Ag 8.904423794240865 9.58994524000406 12.148925503916654
Ag 7.674632224992403 10.773255932990866 14.3374669052611
Ag 13.707607760144326 15.399633694853032 13.204536710483666
Ag 10.444708004533224 11.434844592172809 13.551907944371285
Ag 11.455747106127113 8.623285822689361 13.052903493295045
Ag 13.66938685629151 13.97661995735529 15.731220394215809
Ag 16.14566200868192 11.514799751252767 12.343607715344369
Ag 13.147769413480244 12.313634603201258 13.535718396272662
Ag 14.214209620083023 9.568172307592155 13.011487329840392
Ag 11.295501722362452 12.475805813006952 16.135292086449024
Ag 8.883671774953557 11.332120662413269 16.895129277161868
Ag 9.902608169561292 9.289750481851245 15.295203767469046
Ag 12.668336877298163 10.030281945600189 15.30277206704475
Ag 15.802936753268963 13.730316487112626 13.949484511836951
Ag 16.072010916853664 13.224658360656825 16.853155626625437
Ag 15.279926507131442 11.21789522285882 15.086297746489471
Ag 11.309355060128635 10.247398065819711 17.76496348122432
Ag 13.723309083356343 11.683162116329271 17.424296045396883
