11
Energy = -29.29941259 eV
Al 8.370450996192755 9.319054168693 10.83522870143331
Al 8.358767325397254 9.379143272780876 8.131814258336242
Al 7.076970424909756 11.357715930444058 9.688737367018648
Al 10.202337481374766 7.6800873510424115 9.618626231494938
Al 9.756516676507863 11.404886132133807 9.348004778268907
Al 5.867183519561105 9.048986012697855 9.489284967699755
Al 7.588009086721389 7.092247778118663 9.278002219687423
Al 10.900118325291468 9.770367874735697 11.114551293989324
Al 10.924796593851228 9.53790495269242 7.849002116914547
Al 12.790551737311137 8.546535325487957 9.534836502493807
Al 12.47680298133578 11.175576201173259 9.424416711117864
