11
Energy = -27.53291554 eV
Al 7.911680149397508 8.350591058367966 10.502661705102247
Al 8.525983770553578 11.158237830985938 10.375410038724631
Al 9.477518689231765 13.632539637179693 10.287496309680437
Al 11.231551242658849 11.661581880988566 10.35925313714678
Al 10.394492842926542 9.261449770411932 10.465696444598397
Al 13.165651334858198 9.83063639913823 10.454641042405227
Al 13.813480404189244 12.347431257928358 10.339292932119339
Al 11.986824311693049 14.136348984274527 10.26683456512225
Al 9.836288542514904 6.629404584954912 10.605122496457843
Al 12.241155005522849 7.434524593845794 10.580677512082294
Al 6.0291586497589025 10.17103897357685 10.376698873255018
