25
Energy = -49.98269538 eV
Ag 15.451356006451 6.9076066607660405 11.357570022042365
Ag 14.564299178812327 9.441036367043905 11.244047199539425
Ag 12.921711906171456 11.281801361458529 9.817333338460461
Ag 13.939690095259113 11.9140368364916 12.35034367642121
Ag 12.811598862828767 7.340529717085539 10.808687865292013
Ag 11.593513248157489 8.939418999492732 8.859759534669223
Ag 12.280521324077489 11.026181745127651 7.173205294096033
Ag 12.125505674046769 13.673980215796742 11.022677055358947
Ag 13.335739123172026 14.370092245982631 13.475213316447258
Ag 11.92522450672883 9.864720913172098 12.035108300434578
Ag 10.880430474725616 6.222293123395702 9.096128291879216
Ag 11.426069468277317 12.309459432264436 13.527593179420053
Ag 9.600431646654474 10.512377742234722 7.61650954355379
Ag 10.620704537723958 14.992072045069312 12.962998219463708
Ag 8.825422335376068 7.898194230002015 8.380578025424994
Ag 10.796888376995224 12.812164403734018 8.743496663352566
Ag 9.642394935316474 11.03217181697747 15.178397301509653
Ag 9.236186042528061 10.400602915696139 12.544356018737684
Ag 10.027125453200892 8.140753257823304 11.014822658634477
Ag 9.290811105799651 13.661342224573305 10.873131124350849
Ag 6.920986549758484 9.867309436341078 7.695831550451111
Ag 8.704990761254791 13.043483172710493 13.516682664060074
Ag 7.914662111729982 12.341316292526086 8.829789634283802
Ag 7.958305776593015 9.816020517633067 10.210563402710184
Ag 7.057908781880905 12.052991799656196 11.522698899236273
