26
Energy = -53.41686894 eV
Ag 12.715578831304795 8.143377783515183 14.489009925339685
Ag 12.818216227239532 10.839643982348672 14.105311302484937
Ag 10.558155813245241 12.251993140650207 13.028637529620065
Ag 13.204762939238956 13.524984796082874 13.564482249738516
Ag 10.416208041185614 9.509593381350074 13.402065087969081
Ag 12.722389122599562 8.88568097951619 11.779073521184879
Ag 10.958058922963884 6.794515083580712 12.865366161548469
Ag 8.196774498510601 10.908600596534301 12.050116572144509
Ag 12.873497182290045 11.748207441830335 11.462849785365052
Ag 9.361441966510897 13.071960356800531 10.588751905695565
Ag 8.600371780248736 8.077536460834748 11.77853252411603
Ag 11.699653481669245 14.280070804367451 11.321660991795572
Ag 10.782378085624906 7.454363999952137 10.192158919003125
Ag 6.3767550457921605 9.205055270254517 10.537472728894343
Ag 12.97569000014548 10.166437180005989 9.242690906972594
Ag 10.434906284554328 10.381732470368087 10.52613188727796
Ag 7.473019051256503 11.500988492529704 9.38930321335375
Ag 13.32593227152896 7.453121586774052 9.160600594907246
Ag 11.170610505240925 8.644888210969468 7.7417259912720064
Ag 9.215618885626256 13.749383076212146 7.914732937249787
Ag 8.599997539704406 8.71690457879514 8.967138651540465
Ag 11.645492380052294 12.724707515815439 8.97034471501526
Ag 6.350580476257901 9.649243348070593 7.645597793952939
Ag 12.30024524395955 11.013141585263751 6.724392467240806
Ag 9.697994021306794 11.007964311961288 7.716808422132778
Ag 7.3679684051082495 12.03213194818671 6.648321922857325
