26
Energy = -53.44992988 eV
Ag 11.465758295026278 7.448756702173551 13.668424798040894
Ag 10.873251648277213 9.968018982373106 14.82386264571742
Ag 12.434421354871917 9.706731324661533 12.457319635437122
Ag 9.557284372581915 9.115232811522356 12.480590186956281
Ag 11.323043293323202 7.572378788102946 10.844148994993276
Ag 10.038190409756114 12.426373382535544 15.754984229527716
Ag 11.749403451824849 12.284397469115609 13.469390404156337
Ag 8.995205496092941 11.76444322819861 13.267708721606125
Ag 8.579543232029108 7.99176318276277 10.138888814573303
Ag 13.340447899861061 12.01742904559338 11.15106343541202
Ag 10.197646323136908 14.540808452165855 13.973154699813376
Ag 13.002047238337385 7.090422016992174 8.592571928150258
Ag 12.927675921222079 9.6247877222877 9.711823359012172
Ag 9.712384801230511 13.791341676560213 11.392976800897559
Ag 14.363741535263353 14.236138476017812 9.952064605640548
Ag 7.829262895999955 10.787520617210493 10.911304887966008
Ag 10.650210676139316 8.474870242980868 8.256005906856757
Ag 12.351332634270255 14.576548448796997 11.938754857754718
Ag 6.148037335353075 9.060222008004674 9.525227344315113
Ag 13.662490102334734 11.955330184060827 8.306397771444379
Ag 12.989577643154616 9.476435406841388 6.958842153962043
Ag 10.62247760825175 11.171242136858062 10.740113018046955
Ag 8.386260692202042 10.130419704896898 8.24094106469263
Ag 10.979168120094316 11.20471038311609 7.832665640210917
Ag 11.621889813028844 13.611783862343223 9.350126200767804
Ag 8.937976083614942 12.710622621105657 8.999376771326906
