11
Energy = -40.9210219 eV
Pd 11.303575410450248 7.705998320337225 9.687170832963847
Pd 10.378131289456684 9.344084489094389 7.816933340044003
Pd 8.747623951072987 7.587626162356577 8.930296127061014
Pd 9.378106350845535 7.284576776618398 11.486916574226548
Pd 9.091591300715734 11.280111176799423 6.703640793370502
Pd 9.748737128511943 9.751981950706993 10.644820203013008
Pd 10.075036415613926 11.822317460716175 9.037170807471782
Pd 7.288379766275213 8.826459066640176 10.965813287344623
Pd 7.89182110917418 10.217782324698431 8.720248710809603
Pd 6.2459396733468315 8.23328789854766 8.671965609754057
Pd 12.126154189073747 10.231803635272456 9.617789136178171
