10
Energy = -36.71456107 eV
Pd 8.36675625205297 7.7370904273387415 7.467535725109632
Pd 6.724884452962086 6.178054972958189 8.726933875119967
Pd 9.843944056059337 9.891017881702307 6.888167779594395
Pd 8.628800818011108 10.013701327593743 9.364614516557259
Pd 7.281888469796643 10.135146754968181 7.093219395661935
Pd 6.3490416623671555 8.691607903592981 9.115604245977869
Pd 10.673505862568264 8.085577075158941 8.757000105219124
Pd 11.172564046239739 10.628474905528345 9.09758122512728
Pd 8.467297304118395 7.409531510588819 10.213973281558655
Pd 10.336398102342672 9.074878267087984 11.12045087659226
