19
Energy = -75.69812225 eV
Pd 12.714818185779817 12.070030738864885 10.190228575566568
Pd 11.402098481978731 10.947653725601825 12.221940997497727
Pd 12.620724945842289 9.460171245625755 10.255823236133526
Pd 10.267012702971618 11.177104127547308 9.828991861387612
Pd 9.834269797266165 12.270965628860106 7.45139899113493
Pd 7.961325828296614 12.559171630911488 9.424804715145866
Pd 12.086320629026591 10.810056396864068 7.923323674633464
Pd 9.13507996037287 12.414525846991378 11.888200312347282
Pd 9.095757046536292 10.081970260522573 13.236645631675126
Pd 7.848984311967195 10.324505100584648 10.842993626460453
Pd 7.72827342599654 8.031573733383379 12.179615901031193
Pd 8.282782977927075 10.241804843269486 8.175814785366258
Pd 10.234231124266874 8.76545723379962 11.227136915292338
Pd 10.653361089554304 8.681163104474127 8.633038263299728
Pd 10.206659193210305 9.862500595704738 6.296222174899331
Pd 8.065080855404444 7.978247013335526 9.579491633543292
Pd 9.503808813563174 6.306200567941797 11.16976481757691
Pd 8.549040510684636 7.874410396447153 7.0051916632152
Pd 9.914884918186202 6.228671286999448 8.61186479439412
