17
Energy = -66.04905214 eV
Pd 8.352032532269757 6.296408526196448 8.998520133441678
Pd 12.938610661796398 8.261017707672186 8.092550025622941
Pd 10.685807037685029 7.324994363204973 8.844101179875702
Pd 8.446018581087003 8.831677581467586 8.488406215308265
Pd 10.20468890742698 9.145420336426648 10.619082394839294
Pd 12.733893545181818 9.50817202519921 10.303040176326713
Pd 10.929296574318967 9.894549136728761 8.0022678755338
Pd 8.151612539274966 7.696893226165335 11.11031543980332
Pd 10.891161506773107 12.428092937907675 7.468534726825916
Pd 11.375644036947055 11.753879644298657 9.926145451881018
Pd 8.909098378308093 11.463542149519347 8.841609423554424
Pd 8.867881960318359 9.55582992232718 12.852910121075434
Pd 11.514467842852966 10.588566919709383 12.41974287907926
Pd 6.544583182213465 10.590000809661992 8.255233725008932
Pd 7.40279416937135 10.218352256073961 10.68691207026627
Pd 9.220150106145546 11.856182187948976 11.512424292810296
Pd 11.379709670511074 13.146982279745801 12.128645931496338
