17
Energy = -66.74387214 eV
Pd 10.739015920547548 10.488594132691885 8.463189643604485
Pd 8.40459247845405 11.451099020415086 7.962609109529589
Pd 8.96028887158855 13.571816983156141 9.534222467013024
Pd 10.428946226813808 7.885052350815621 8.342041931929613
Pd 11.296197734377097 6.743853961990932 10.834238721966905
Pd 11.732489187124935 8.83310974581225 12.477141338853128
Pd 11.605370368667828 11.332446679964908 13.541967389769805
Pd 9.33748990661317 10.273825549352146 12.824627532381943
Pd 8.015459620979218 8.981822224795332 8.719742771258643
Pd 13.290398333237462 11.072879688786573 8.853867010050292
Pd 12.5592373813418 8.716861716074106 9.729629895193536
Pd 10.15691326002243 12.845713169084627 11.853953206040234
Pd 11.380392535981537 12.859268582903686 9.219584045285362
Pd 11.695613172166809 10.973880634572279 10.968974052915208
Pd 8.55830977520415 11.206742258054767 10.490316148359444
Pd 9.85404745112177 8.870036733554496 10.657742337714202
Pd 7.377886570377344 9.09383580923994 11.394329336641217
