17
Energy = -66.56496657 eV
Pd 11.26930392434574 8.614531750529903 7.349658408159583
Pd 11.268224560664173 7.875450759855164 9.795109975987637
Pd 11.261387121049788 11.240009867147524 7.03772233117491
Pd 12.055714944136458 10.488913954955216 9.518422772848439
Pd 9.094959790052263 6.711059202998741 10.77721720413288
Pd 8.877707446038999 7.660550499535142 8.345376582276074
Pd 8.958771979950145 9.93727533662881 6.737311243205764
Pd 9.90056003375591 12.592700169637565 8.801169183057949
Pd 9.582915865460231 10.028664456111406 9.22322596802963
Pd 7.011317969190148 9.58283454842082 8.724397276201541
Pd 11.312767221763114 7.052946053344086 12.255240924576235
Pd 7.997545988800084 9.085302849154344 11.115853182498727
Pd 9.011252909364414 7.937092756400107 13.180898240697069
Pd 7.5862498228762 11.974502898999717 7.766473604987092
Pd 10.614164310363368 9.551686343149074 11.755416216632065
Pd 10.417417741505972 12.027314638781007 11.274424871804506
Pd 7.820924006672387 11.657431069124497 10.46032729375528
