11
Energy = -40.89436659 eV
Pd 11.408179788789473 8.628970202249574 9.581273033205198
Pd 8.680735041775575 9.34914147461434 9.037649606422146
Pd 9.486452952743514 6.86972598413881 9.221704237128415
Pd 8.764901802396377 11.940875213304112 9.35692872759329
Pd 8.918779880589335 10.846175099650127 6.861213909282965
Pd 7.334614707269476 7.690809336722878 10.608938407703796
Pd 11.07434722095991 10.963467837942591 8.334575010973728
Pd 10.356323705159292 8.603496303814012 7.180487662907938
Pd 7.911217906202877 10.249202245024252 11.36901734767857
Pd 10.470341657284372 10.731914586796618 10.962344563486743
Pd 9.694816757407136 8.226933556897833 11.586578283328185
