15
Energy = -58.49554993 eV
Pd 7.539052151168693 8.473629048948304 11.26070876999958
Pd 9.825613199744028 10.808205234535583 8.354322999518455
Pd 9.946480253013943 9.127750753629668 12.500618457796543
Pd 12.219081763916021 11.86172292244503 8.621021173757144
Pd 12.158372954875832 9.079479073513085 8.802556240049976
Pd 9.915516220861821 8.413612121284608 7.291436880142247
Pd 12.06778366783094 8.182252409307956 11.27029689012672
Pd 9.841851059669635 11.924344360469544 12.580833142508478
Pd 11.345301252646555 10.656603241265 10.80753982888629
Pd 9.827161397274804 8.380787008334593 9.930506473402664
Pd 10.121595618539008 12.849786582164286 10.0453983735979
Pd 7.700116507301718 9.225237906215352 8.64818666171658
Pd 8.466771969757858 10.839915115381327 10.626689829841144
Pd 11.710085537266407 10.262809640408765 6.5244961383745865
Pd 7.749293933886149 10.347942088219853 13.169465646404774
