19
Energy = -74.99677427 eV
Pd 9.748030829187744 8.910233616738969 13.355901515607396
Pd 9.264391055123326 7.432351299068977 11.193109786093132
Pd 8.463738765126244 11.194384878446794 6.801750094101324
Pd 13.702071973465435 8.939390949284334 10.698744994036858
Pd 6.448745891534668 10.453073115487602 8.164667371380668
Pd 12.038654698344098 12.745338559951604 12.51945148780607
Pd 9.838151846536444 9.580090403728558 8.205531431901115
Pd 12.627785662150055 9.91880629695572 8.34061019390461
Pd 11.241999025674765 8.48905893901251 10.006036208961511
Pd 8.299475941797185 11.89981591438393 9.3334798981811
Pd 9.0502148995445 10.207947276726257 11.13935175351255
Pd 11.688760557906086 10.194130227181947 12.031930572424606
Pd 13.335301128842724 11.533752836712202 10.452801969822927
Pd 7.789297097576841 8.716473675404734 9.466264135258195
Pd 9.675578726923776 13.066324773583398 11.227661378351819
Pd 11.774595654879489 7.50887869827181 12.371306708561994
Pd 10.915966687219795 11.550251658502754 9.505794084244597
Pd 9.765795499041271 11.531969208200767 13.363873290225175
Pd 12.027010390317546 13.848543965721861 10.159078075610216
