15
Energy = -58.28999738 eV
Pd 10.359889760679794 11.353269804174843 11.230408424374527
Pd 11.203732308773176 8.963620669028531 10.402685207354963
Pd 9.422073158523808 9.032761422019933 12.333341909810274
Pd 9.0917034954451 12.48346996339812 9.1118876738144
Pd 8.369826731325611 10.072578574457909 10.124827730453564
Pd 11.26805016359391 11.048836118591952 8.757648140785259
Pd 10.735743969950418 6.722755369168498 11.725599086155265
Pd 10.815083244342055 6.673165271024418 9.063341043062925
Pd 8.579576026268091 7.410866139860063 10.354648520006556
Pd 9.425462762716476 11.219826680845458 6.756696357199925
Pd 7.132512754712821 10.964704436690145 7.982183197658011
Pd 9.736703761752347 8.979545166285007 8.171497993794397
Pd 6.665481419848215 8.458870643140935 8.81432558112112
Pd 8.428197855553213 6.739666887178469 7.797723266730234
Pd 7.780647744549435 8.946938407929123 6.396870403071548
