19
Energy = -74.58785142 eV
Pd 9.970953404076797 10.949679879907546 8.56092220767284
Pd 7.528637948465188 11.898027229398995 8.290399962526658
Pd 7.172440482232834 7.818953879980668 9.023208080389336
Pd 8.159083213413245 9.531192969301799 7.230130015032678
Pd 8.577995085310537 7.750872396414822 11.251276778401184
Pd 12.496986498202764 9.969061421392208 9.079963995947645
Pd 10.511508233420244 9.423639637169002 10.719502381672568
Pd 11.426451336138426 10.386372511964417 12.905432235344023
Pd 9.80178850962508 8.04837552279855 8.68460906103708
Pd 13.009511690661064 8.737569921154801 11.366693711502222
Pd 12.898679649884148 12.585898353015747 8.917634545467102
Pd 10.930850690297781 7.617605980790006 12.606622753890752
Pd 13.4190480357097 11.352792203515145 11.305289312917248
Pd 8.91266880745672 11.4265795702443 12.107744879164638
Pd 8.736089895777313 13.16944846499469 10.20269242588607
Pd 7.963021267382821 10.085300607212384 10.100385510347424
Pd 9.03425098381064 9.208240117284536 13.455600581382749
Pd 11.035253871498341 12.142773289444449 10.661634244703556
Pd 11.919746949369777 11.291613539820839 6.914507592164003
