15
Energy = -58.05240163 eV
Pd 9.571294261551998 8.624009680450362 10.800909096085215
Pd 12.232142187359491 8.579581068826625 10.605909481182284
Pd 6.911232111047276 8.579679939266665 10.605967957112405
Pd 10.957804073917114 10.910971041209674 10.617153964615628
Pd 8.185451267811988 10.910793168592468 10.617042139157803
Pd 9.571789983584901 13.138709911128831 10.433276132412814
Pd 10.870098083035456 6.288916117465224 10.622983784645276
Pd 8.273051475045287 6.288806911220207 10.622963930074373
Pd 9.571586055546115 10.012577852852514 8.388216710434625
Pd 12.240572835634513 10.057018118393392 8.373473342132097
Pd 6.902925508942177 10.056954354110774 8.373546425533934
Pd 10.907926031597022 12.355408439283273 8.300601162532983
Pd 8.235530651051686 12.355306587352155 8.300485974956231
Pd 10.89338172544165 7.707899927065407 8.456019590457224
Pd 8.249836127194243 7.707989504021655 8.456072929906775
