13
Energy = -48.32654515 eV
Pd 7.335907813454736 7.690106855054241 6.462897517147839
Pd 7.450791647166551 7.697595147773116 8.989379919863104
Pd 7.507096623406543 7.692067632611612 11.51364085293432
Pd 9.858407332833316 7.689684191416671 6.248895260739993
Pd 9.98782433787502 7.705463729686435 8.776095905480478
Pd 10.072209135761984 7.705272862147683 11.299032229933342
Pd 7.339942592276249 10.230106703027777 6.462895320708903
Pd 7.452981004980646 10.224143791036486 8.988862718347562
Pd 7.509779757923445 10.23167199720026 11.512361727613753
Pd 9.862227474608636 10.228934534068518 6.247552956695056
Pd 9.989205746834184 10.214427292196964 8.774603015562127
Pd 10.073885849425043 10.217192175684778 11.296815439270414
Pd 12.045454243083832 8.959046617910433 9.912680635702982
