15
Energy = -58.22100064 eV
Pd 8.93649770572898 11.344449017135009 7.74458272994601
Pd 9.129222383088303 12.063022648704745 10.341910458740193
Pd 7.018374309076751 10.370757267107168 9.56665744451384
Pd 11.39705749913877 11.370716581904263 8.9903711799485
Pd 13.085839490932386 9.825934801848101 7.802069756441419
Pd 10.630123794296825 9.206369190492234 7.241622013446196
Pd 7.986265252090112 8.683776056869336 7.5791742304419705
Pd 8.183912451551748 9.721823834778458 11.925726978571621
Pd 9.485654919441659 9.572796535878298 9.612388170986456
Pd 11.913053489651753 8.551574542693444 9.719168436665612
Pd 7.483983963422441 7.740051237613282 10.17132463840717
Pd 11.062798863106536 10.339094808026525 11.555875620761046
Pd 9.38586882007726 11.774877591507712 12.908095252809158
Pd 9.951988723219753 7.742703178330696 11.454509401420397
Pd 9.743054969870855 7.0714998451915765 8.795493861581738
