19
Energy = -75.42698913 eV
Pd 10.317927823048434 13.619849719509027 8.77885302358798
Pd 12.164114103448865 9.809459501133915 7.405833173302207
Pd 9.11315170975597 9.462973547440086 13.337651325982966
Pd 7.168036187332217 10.233697822207915 11.557624550124673
Pd 13.414330957364138 11.074820646206684 10.763047351489039
Pd 9.21801470399342 11.777517770894994 12.135021425297577
Pd 11.45528340539943 10.309916306655861 12.26356878105768
Pd 10.837425458297538 7.764598286433612 12.219724069513212
Pd 12.053961273703447 8.817776445363034 10.015884040753898
Pd 11.252204730426001 11.268950565863827 9.325853984175687
Pd 11.505983534695678 12.885799292378563 11.326166464971742
Pd 9.748021299957113 8.961451498736748 7.924258494924115
Pd 9.97571871593369 7.02743477081221 9.790013158796341
Pd 9.60416918431124 11.480780748252203 7.312125731004016
Pd 8.398104449848763 11.859274708575795 9.614536438544365
Pd 9.432684135607865 9.591274832484572 10.44016974998536
Pd 8.137334075062595 7.6258645522307855 11.624856538840927
Pd 11.78978336935295 7.235217599707197 7.897498092741445
Pd 9.158923851306735 14.129037215425024 11.058162826823127
