18
Energy = -70.24582578 eV
Pd 13.476946780880727 8.221958373925215 8.044398490552375
Pd 8.506388826111515 10.326049549666418 12.278058390196602
Pd 8.95958642783088 10.331625754610178 9.633440571805261
Pd 9.420420714463274 12.532140810346453 11.15660443621697
Pd 11.19143284688184 11.820710034588744 9.246446104235348
Pd 15.454661182473023 10.814792397811809 11.339113464943694
Pd 13.098047248941173 10.750096616832245 7.698921583281024
Pd 13.198499173762553 10.883225350750179 12.621694862740375
Pd 10.302362084618373 14.272862297251335 13.024131285718159
Pd 13.800062753251684 12.182824614759934 9.829884002283713
Pd 10.112877593898853 13.238273795490171 15.4282621353214
Pd 12.043332633496892 12.934429174918174 11.553352274219964
Pd 10.994642098101506 10.077333416549683 11.308486181021358
Pd 10.616028713180343 11.398012608496508 13.537080091104313
Pd 12.476573525676956 13.108448485088484 14.16188171655271
Pd 8.24604544169717 12.685757103324969 13.586791478579254
Pd 13.395323360907005 9.609699939066902 10.252759505275412
Pd 11.166153170941719 9.17714508231256 8.750062378246946
