15
Energy = -57.55626446 eV
Pd 8.831061770708116 11.189094641022916 7.683655818699855
Pd 12.271021242243723 8.300439555281615 9.904795429130115
Pd 10.752321343588504 12.728668755518262 8.605438677763582
Pd 10.913306659334854 10.03146239534188 8.562419152142404
Pd 14.064805815125428 9.814417250027127 10.821651091060147
Pd 10.34382140595551 7.520942347250993 8.43392282363329
Pd 12.0594469367675 11.443328494123005 10.565633617231871
Pd 10.517772120707653 13.380153844391456 11.231560973454208
Pd 8.714741276758453 8.869502766458615 9.87819319741484
Pd 10.622932499649465 9.397290734746651 11.494050755262464
Pd 9.036491896140822 11.49772729813585 10.226861182111646
Pd 7.108171587667877 10.164297684123385 11.38314480551726
Pd 12.551689474773847 10.345401756668883 12.861233788597655
Pd 9.082083479214706 10.948311366344472 12.76994433744592
Pd 11.086505372332374 12.324415337940012 13.533872636925489
