18
Energy = -71.50985763 eV
Pd 11.238784841714722 8.681053620317805 12.832530962149857
Pd 13.42352474113533 12.057265395993946 10.941243678027949
Pd 14.353093150952809 10.116118739631103 9.364280098925146
Pd 12.116705526744125 11.307361516035808 8.671850564517188
Pd 7.951747035535687 11.175599857813058 9.845769866666982
Pd 8.492774590916067 13.710720068953465 9.94051222450261
Pd 10.070841719364337 10.77585168094384 13.952394941724148
Pd 10.087895699304225 7.550664533155402 10.719764261635817
Pd 11.695418354477967 12.667048601174384 12.895490667692354
Pd 9.988638885112183 9.75386915217688 9.018102696667027
Pd 13.523785542950119 9.537200600327083 11.869342841835543
Pd 12.233277796284794 8.66876194665927 9.787676486842212
Pd 9.751195129481804 12.285610081805492 8.091124706710811
Pd 8.812959022016543 9.603924916790342 11.89971652152451
Pd 11.051234365704017 13.205658849288994 10.304572229194166
Pd 9.113821622381135 12.309866185604236 12.064355453914251
Pd 7.771714407195602 8.551833699166265 9.72683282288663
Pd 11.124812329626913 10.720249618403422 11.221971298223043
