19
Energy = -75.64906715 eV
Pd 7.902655182490744 8.12644036329824 8.805276402446422
Pd 12.253824757805496 9.323985700791306 8.353737656806912
Pd 9.25159155546355 11.82221456773924 12.029325743866464
Pd 11.573016215853208 11.919520513808102 8.184736729132172
Pd 12.72036954573674 8.669973358249967 11.02183290246682
Pd 11.115033307262486 13.191227852434091 13.313248552452729
Pd 10.304453143466908 8.950787994312877 12.556287673448649
Pd 13.457823544501247 11.065913454244459 10.053964390856358
Pd 10.571092284713071 14.261490707619343 8.73540588556956
Pd 10.251770155015368 10.901299255449057 14.254118798300043
Pd 9.638723807632068 9.984618431070452 8.046810731162855
Pd 7.1594069210350835 10.642450869586193 8.827775411321666
Pd 10.329268899837338 7.935906068225558 9.780121287456797
Pd 11.26444373785627 6.67905917720888 11.838049261412262
Pd 12.273546254167066 10.944923244813523 12.490874379354644
Pd 11.583472432375151 12.984920017269381 10.75004528234071
Pd 9.021776276361884 12.331515234277466 9.443041043597784
Pd 10.809907237641696 10.479018221403098 10.351514251761897
Pd 8.33574118233676 9.655993070635454 10.926683257078812
