13
Energy = -49.22844969 eV
Pd 9.030053835936263 12.003171816509065 8.442274326507937
Pd 11.486613978098585 11.459033871020791 9.19447162786696
Pd 7.44044639936243 9.967978335732754 7.614507043145912
Pd 13.784365949867736 10.66941750069143 10.086440170992391
Pd 9.923389448909495 9.485320785008176 8.1898970927632
Pd 6.962515120337772 11.03577117942899 9.944895229992039
Pd 11.742341830431856 9.48597116402428 11.1810955403679
Pd 9.413323456307303 10.604219732606273 10.698403553286031
Pd 8.028673324137287 8.47713261587045 9.798133453906946
Pd 7.2158607398789565 9.604314502927751 12.121715649685502
Pd 12.462648948298638 9.029286478348757 8.556171000861585
Pd 10.608938774697629 7.501938609636556 9.778589988950133
Pd 9.493527393566001 8.309570390633002 12.033565261008594
