11
Energy = -40.9832476 eV
Pd 11.250739146341253 11.447764416880936 11.101776701238276
Pd 7.809168876000909 9.97194567616493 8.786675991804257
Pd 9.915073588436464 11.632768467101782 8.844866809249783
Pd 12.193591751664254 10.148043800830381 8.976437862612848
Pd 11.502443236012823 7.570024682676838 8.828157908463
Pd 8.838915626733858 7.387979222135415 8.84714773974203
Pd 10.107150109938548 9.32064052159567 7.502931661060191
Pd 10.117023030663614 9.169617824381653 10.391251367213586
Pd 8.56169920950834 11.11880543295838 11.08872967690905
Pd 7.5958281237845275 8.516825790854703 10.982938863993397
Pd 6.281887850915132 7.889104714419314 8.822605967713715
