10
Energy = -36.83706894 eV
Pd 10.749502045955106 8.58328170768022 10.361488717957558
Pd 8.436520475746901 7.217202162801743 10.65226983544044
Pd 8.539496216040712 9.389818635336988 9.176642233003564
Pd 10.785943969872934 9.435052289204936 7.807970557557296
Pd 6.497699202142964 9.40965108598146 7.505267396743134
Pd 6.189191743708153 8.58092296274275 10.04479969169971
Pd 8.667262734403504 10.921314747542269 7.044826797203845
Pd 7.233847117832606 6.959195675251674 8.283043975741345
Pd 8.737202247794558 8.37530801599966 6.470409551126319
Pd 9.970876000959072 6.9680100682120125 8.468327598495778
