10
Energy = -36.20316793 eV
Pd 7.501019020013952 6.8848804091766835 10.548349506224989
Pd 8.461115956803072 8.924432032033343 6.937802140657921
Pd 9.264709254142835 8.457776784856813 11.522307244659348
Pd 9.269675781480045 7.187050991163372 8.686488771858132
Pd 11.227360127893762 7.225836943202321 10.410108093277787
Pd 10.344950961282683 9.456452282667211 9.300059127252771
Pd 7.638909862764234 9.311395689658525 9.54676056882637
Pd 6.476780543714058 10.495816808643806 7.526486638948206
Pd 10.67404409135648 10.286623665150739 6.882232891534019
Pd 8.782435022641671 11.403036216043846 8.287075576406068
