13
Energy = -49.81562624 eV
Pd 9.787201060525923 7.420102614917317 12.179199717321382
Pd 11.770116428177083 11.761905010577253 9.961604
Pd 11.018974109576114 9.583789362700164 11.314164305827308
Pd 11.018974109576114 9.583789362700164 8.609043694172684
Pd 9.787201060525923 7.420102614917317 7.744008282678615
Pd 8.72170667947786 8.380460926286208 9.961604
Pd 8.953598422496007 11.043564043692703 9.961604
Pd 8.524194446292922 9.776064999028554 7.66123009139091
Pd 8.524194446292922 9.776064999028554 12.261977908609094
Pd 10.148526915300897 11.95744558635672 7.807602163969363
Pd 9.843409887096788 13.548974495150281 9.961604
Pd 11.254227470539881 7.291142349467253 9.961604
Pd 10.148526915300897 11.95744558635672 12.11560583603064
