10
Energy = -36.31101912 eV
Pd 10.444593646562357 6.810959763286106 7.210606371253951
Pd 10.203620704714803 11.473277685644213 7.998943119894779
Pd 9.111620022742816 10.10215229770488 9.91521750229826
Pd 9.320864530982313 9.138848990578252 7.3127613439020465
Pd 10.138838512816575 8.425795928679072 11.609102138176633
Pd 9.210652932009648 7.358698758530723 9.430165269040204
Pd 7.667897534433603 11.14530086594393 7.923284479402781
Pd 7.608462506324663 8.38983999985039 11.272549128326453
Pd 7.895896223493796 6.9032598316155225 7.168259790215083
Pd 6.932086660703779 8.806914819829716 8.733711625070113
