17
Energy = -67.08013488 eV
Pd 10.555709694441045 8.56376044267043 6.385040684116064
Pd 8.347176276315885 10.117838831628404 6.426081756279881
Pd 8.252754356021178 7.42828866401143 6.6642291914998655
Pd 10.5673101812117 10.970641629872254 7.562827996469834
Pd 6.58563176457762 9.008978100123713 8.039703804339206
Pd 10.288412527173236 6.71200388021886 8.651008632252077
Pd 12.104120453968685 8.84150873748653 8.452355067362411
Pd 8.09942421265621 11.233082683326117 8.881347287524248
Pd 9.21712268999876 8.963565105836048 8.934714776335221
Pd 7.511612717767705 6.571203338676714 9.002686442814596
Pd 11.120135260850622 10.649522048230367 10.06151456141603
Pd 6.986518434920015 8.608320403100182 10.551931997671954
Pd 11.333263860025186 8.085565943225186 10.85255869199249
Pd 9.326435718024037 12.212547565043966 11.034489922653437
Pd 9.017876044445158 6.942762195333219 11.128680832039867
Pd 7.001238600651398 11.064945069030156 11.30683502592138
Pd 9.23416989444068 9.57437804967529 11.612906016800707
