18
Energy = -71.66133924 eV
Pd 10.740546998089057 12.35589504208523 11.85674787654127
Pd 9.156298524084173 9.251203130601757 8.079241362882623
Pd 8.342228646552675 12.763645375775422 10.61723730228777
Pd 13.126564073073908 11.205616038924811 11.788423203137489
Pd 11.080211094133132 9.8039714697118 12.716226398081867
Pd 9.002376178036052 8.346162407592136 13.331689702706488
Pd 10.756303651879357 7.297264914925207 9.116984699433813
Pd 10.663296609425345 13.256998609491747 9.296707232562767
Pd 12.871052751879224 13.605817044988447 10.718853583367052
Pd 12.698714190469339 11.474903155494584 9.156866034619735
Pd 8.547420628958625 10.689273989047772 12.20763854526255
Pd 9.00112428606953 8.518219949381056 10.671993534574646
Pd 7.305007865910033 10.394223593795 9.802886581415502
Pd 12.20951949208833 9.107375595722612 10.402358065262339
Pd 11.78944959561518 9.393423326773823 7.7816573485167675
Pd 10.239704345871672 10.696293111680335 9.927016572925035
Pd 10.970694355389766 7.2419179448767865 11.8657837592284
Pd 8.676612895093177 11.905143985955315 8.083963795075782
