10
Energy = -36.25860151 eV
Pd 9.283307681036256 12.67653508714341 9.797998966443764
Pd 8.69809376902832 10.534236518652055 11.069699182457775
Pd 8.742733995324587 10.647227734945131 8.334717239004087
Pd 8.23329122721041 8.260891143298057 12.152368998914959
Pd 8.17727767912854 8.285402611853414 9.59315376443759
Pd 8.310686165383126 8.480708931358263 7.0432603654951285
Pd 11.07638016383207 10.845473957866343 9.741820305491292
Pd 10.512479194051952 8.490805451888148 11.011520379127438
Pd 10.552973434373953 8.588886758076795 8.275463777800574
Pd 12.67513786917436 8.839322415422753 9.688730756835586
