19
Energy = -74.82808972 eV
Pd 7.078391968492645 12.49490452077535 11.355706244801418
Pd 11.43847975829219 12.49493935650534 10.492775331499606
Pd 11.599899775204038 9.82992320382355 10.409545274738177
Pd 9.213371341118751 12.017055887484936 7.4897497237121415
Pd 7.298513957077052 11.158490776537283 9.173260174515608
Pd 11.086187537228367 13.723757167979173 8.232394310949605
Pd 12.803386705942534 8.566939003185654 12.4179009807813
Pd 12.629269905159394 11.276978020172901 12.422915005041927
Pd 7.248795979168146 8.570218971992974 9.303805964867415
Pd 9.52847952381087 9.690845976057986 8.576603458116274
Pd 9.221786925952648 11.067913231831387 10.980741345871817
Pd 9.490045260452254 7.06132975787397 8.784042268083388
Pd 10.577242424766519 7.243064756232687 12.946068560134512
Pd 11.484857904310559 7.231132890892085 10.471978217713197
Pd 11.79257686243775 8.44929080171038 8.098032278975511
Pd 10.467413711356327 9.905196794108885 12.940055944085374
Pd 8.95496443676043 13.396521650887916 9.759246458862501
Pd 9.076027497979128 8.418317539423944 11.10829144868022
Pd 11.702863460986865 11.151444715989362 8.095299038775254
