18
Energy = -71.54922994 eV
Pd 10.495963225134119 9.345331304110323 8.09413244706666
Pd 13.593829466481576 10.84280112419624 11.203071431891807
Pd 10.107518386493307 10.014421895108066 10.746724765074347
Pd 12.206422114360898 8.67740578431002 10.313136940135081
Pd 9.032594653084788 11.691830738706619 8.848385701532456
Pd 9.736868743796618 7.459089911838685 9.748968863392319
Pd 10.81578690815608 13.657756872408603 8.594383159971574
Pd 7.990916942389318 8.478950015876634 11.676073280039637
Pd 7.9577601762921795 9.33800190491919 9.12957183053895
Pd 10.779489442903042 11.646969426667713 6.874857540895106
Pd 12.318416747177526 9.305491715279423 12.945098842529195
Pd 12.431097191326758 13.418126797224247 10.768323877044741
Pd 7.909435651502822 11.225736363457436 11.291842369542987
Pd 11.920852142866593 11.308452862821037 9.257280178126164
Pd 11.347082341189509 11.644121384910655 12.347223379129126
Pd 9.554830157387517 9.970142551830243 13.309352802086657
Pd 9.765454609452854 13.096222188072893 11.016487351006578
Pd 10.441062294924965 7.616310195685108 12.28311863073777
