14
Energy = -53.54497604 eV
Pd 12.447200397622101 10.710905088422304 10.372200693472907
Pd 7.957396668052874 10.703901444871061 12.7866384777774
Pd 10.25301935486444 10.791896810216604 11.703313148242783
Pd 11.29078074070669 8.399198141478992 10.810025097493213
Pd 10.425679365738302 11.91455771759391 9.19132972372085
Pd 7.937129276316316 11.621766984506236 10.409415483052458
Pd 8.734276413674909 8.459355663736718 11.886591085004996
Pd 8.214139092083268 12.669190439668423 8.114250177620125
Pd 11.472581226885334 9.531625631007357 8.311074047121801
Pd 8.906900096905428 9.457719763081636 9.56809976828581
Pd 9.072783193870556 10.440741941847007 7.2583774797364
Pd 9.81980299752624 6.315518723983493 11.063197046190664
Pd 9.853711053895703 7.275209782781213 8.712182056342034
Pd 10.250484527202623 8.333301219685017 6.4330366399108545
