12
Energy = -45.11157192 eV
Pd 10.200699837361475 12.66011871192994 9.979991
Pd 11.157923556099233 10.545468777561334 11.307794122802433
Pd 9.077972254712293 11.877511568628897 12.260803685036809
Pd 10.882009745287705 8.082470431371107 7.699178314963187
Pd 9.077972254712293 11.877511568628897 7.699178314963187
Pd 8.80205844390077 9.414513222438659 8.652187877197573
Pd 9.759282162638524 7.299863288070058 9.979991
Pd 10.882009745287705 8.082470431371107 12.260803685036809
Pd 7.78767766736846 11.5024245984793 9.979991
Pd 8.80205844390077 9.414513222438659 11.307794122802433
Pd 11.157923556099233 10.545468777561334 8.652187877197573
Pd 12.172304332631544 8.457557401520695 9.979991
