18
Energy = -70.96017688 eV
Pd 9.488759345602219 6.838548690803355 9.948327868772488
Pd 6.959663364947713 7.1413601315017115 9.26241718314067
Pd 12.063561552150935 7.5545188604667475 10.434337749115123
Pd 8.78415913887382 7.24774662687487 7.360171412043065
Pd 7.671590169963091 8.010048531306978 11.677273073965539
Pd 12.463053528071876 9.277297350808789 12.515487526212986
Pd 10.70827359379939 8.70991685272841 8.481440566230017
Pd 10.102214786696424 9.026426567292235 11.374940894320446
Pd 8.180020502822746 9.44754693478955 9.42823964207827
Pd 10.859176142533169 11.450774436735008 12.334911046794554
Pd 8.109385434418863 10.559883132483323 12.077166828365002
Pd 8.959639266318487 9.833634890074583 6.926344676026282
Pd 9.495532830065844 11.58318839629314 10.147392848103461
Pd 7.999841298085102 11.939842797077588 8.083381372074113
Pd 12.159866714449077 10.207307224406971 10.093071030658122
Pd 10.945562676550518 11.33270805396227 7.954542226708638
Pd 11.854269379196484 12.7998383468783 10.063162539421024
Pd 9.872878605023395 13.707584988488403 8.448417577735334
