14
Energy = -53.52252271 eV
Pd 10.34897702654359 6.509417112513133 7.827210982418537
Pd 10.600394995112294 9.096067800532651 7.998932399822336
Pd 11.134834760845699 11.848581501236003 10.132499899994066
Pd 12.134905644492353 9.470164158184188 10.086335521648968
Pd 10.551309389614115 7.359156981663896 10.23889841121638
Pd 9.530390861416917 11.430409430582664 8.124291585524974
Pd 12.63922417595133 11.01057805143423 12.14319047219904
Pd 10.904795448813958 8.917976678333275 12.37365689421639
Pd 8.358812628001596 7.990434681922332 8.622240014275526
Pd 10.052593130242403 13.797248269567362 11.438479508508843
Pd 9.98224242883675 11.398726441957725 12.452649007864938
Pd 9.270097384441994 9.72162694844244 10.462645196219956
Pd 8.311818007904709 12.233090934806272 10.35295207442693
Pd 7.272523139274031 10.33317544644253 8.863702691745589
