18
Energy = -70.50223363 eV
Pd 13.985385329132667 12.47271853548951 11.478588815151321
Pd 12.07820887322238 13.592969973487717 10.09974239307881
Pd 12.906288106250372 7.66936526082288 13.072124180059763
Pd 8.808764791568315 10.848209346319795 7.378095388757564
Pd 8.176457651574022 13.217465250925466 8.611450627291976
Pd 11.416560080633737 11.745814175948095 11.904972432860754
Pd 9.695078760781072 9.889615322289615 10.964968408529849
Pd 9.837456347186551 7.349309863588848 10.181406810844232
Pd 7.683337469177643 10.916078253388935 9.816461505427378
Pd 9.006764684554128 12.848114876433616 11.134362346871685
Pd 12.737742775671226 10.930130123180732 9.721379681518542
Pd 13.514644485829928 10.078873006869111 12.368472933787414
Pd 11.01565857549976 9.40302011525106 13.214651844070568
Pd 12.111224550890347 8.53462846497819 10.747488232244754
Pd 8.147003622592923 8.618076182218372 8.614256534252432
Pd 10.400085650332501 11.942194297093936 9.096512413922634
Pd 10.741755049336303 9.300709918106126 8.60937812527552
Pd 9.13550888583354 11.199587216036416 13.158777718213186
