15
Energy = -57.90060452 eV
Pd 7.818734739668591 11.887378174998632 9.134533473897571
Pd 8.438190573991333 10.25432785639544 11.547180112304517
Pd 6.476939644398267 7.601148168771623 7.638450401677888
Pd 6.901402631526846 7.232902492481772 10.313220770790409
Pd 9.424414951896775 10.934208540994508 7.241432463020763
Pd 12.63724370087807 9.919138562763981 9.465351743553542
Pd 10.224191323886059 10.962342848542086 9.762546410840287
Pd 10.636221115552582 8.758344635563963 8.256190834608148
Pd 9.38216130636101 7.8957611324872605 10.890498653935783
Pd 7.995363709188749 9.286030415866918 9.118697526501597
Pd 8.733009539149792 8.439635840768094 6.4788997406097915
Pd 8.860860525610626 6.727158696052942 8.5637898670063
Pd 11.245588773453303 9.510587078419853 11.682882869130443
Pd 6.824414736923489 10.27077509305008 7.048622167970905
Pd 11.824335250366104 7.403675074505847 10.131419336387662
