12
Energy = -44.81944057 eV
Pd 12.713086871376037 9.255702616867358 10.904693942501051
Pd 11.24449232095817 11.206145497333004 10.137243980451654
Pd 9.301661546996687 12.714593832390367 9.165694736336587
Pd 10.246703247640127 10.73592049591253 7.673135351766091
Pd 10.87646330827792 8.676237695203799 9.213047106609222
Pd 10.284748306568668 9.277198301904518 11.845351120611166
Pd 8.614395754654064 10.34833306408533 10.016853819431635
Pd 7.730183841128584 9.327612295038486 12.194644408481693
Pd 8.584016971978405 7.683295133209116 10.398712121699775
Pd 9.778649737503638 6.499180090600922 8.40926757113867
Pd 8.53492051819177 8.658505792913536 7.821106247347285
Pd 7.626161542233415 11.13570025723872 7.734486659894924
