10
Energy = -36.74708813 eV
Pd 5.209863044018091 8.591513831806571 8.614185942104099
Pd 7.385371228822803 7.237913913161653 8.942020878457912
Pd 6.1963328458911855 9.927480239963653 6.63250418334576
Pd 5.9548160336102205 7.258169617629519 6.427006844397404
Pd 9.557623798148345 5.848969771431488 9.122418489473196
Pd 7.889518841041725 5.518386673702047 7.051555256888912
Pd 8.28044772094129 8.392139483341474 6.698371219092775
Pd 7.534166343295726 9.84920677590432 8.970817702909702
Pd 10.252570312998278 6.724517856459717 6.78742379017771
Pd 9.900558934259536 8.493586062406631 8.755814220637808
