13
Energy = -49.24480473 eV
Pd 10.421984899201448 7.259828788237177 7.109364161971556
Pd 8.659256027522678 8.904575761133078 8.281246875167746
Pd 10.583378651432017 7.739002205246271 9.737444100306138
Pd 9.89967759385089 10.17061286392154 10.243618465995638
Pd 8.374480177271424 8.308954821182335 5.645004071611227
Pd 9.857974138806222 5.335955797867213 8.858393501294575
Pd 7.885833945682857 6.41198375144496 7.5204492882014
Pd 5.552785241188358 10.499584863371993 9.257598294670835
Pd 6.658631763009885 9.926124356992263 6.9861285739635335
Pd 5.924531639444333 7.5306782784411865 6.218717160087746
Pd 7.471134307413643 9.439907864224889 10.568417641081599
Pd 8.161292542855557 6.882761207924034 10.197044836328432
Pd 6.056545272769434 7.951968199000117 8.821871669825166
