19
Energy = -76.3058898 eV
Pd 13.064191366341118 9.288368416584104 8.853820817024838
Pd 12.56002037485755 7.63797980515725 11.05201320055581
Pd 10.430157939056322 6.018105872712616 10.949285156520872
Pd 10.819312178620423 10.046538694665395 7.566498445023348
Pd 10.848416383591045 7.821202971716872 9.077670170342664
Pd 12.307329678367845 11.83827818388286 8.88386360196799
Pd 11.945371482978667 10.244908097336529 11.052861771990388
Pd 8.697707476969269 8.359572370621375 7.617446856453483
Pd 10.198558900548583 8.373646859313544 12.073382108141175
Pd 8.36151473471998 7.568822475048723 10.187089027080503
Pd 10.896522283949261 12.69283281879531 11.043994472032898
Pd 9.653998917820896 10.030840733950706 9.944401189149584
Pd 7.163362579806146 9.912463154941364 9.280572792238747
Pd 7.773004866769469 9.53713996182726 11.926519958898934
Pd 8.282686126094237 10.864906291788113 7.017920816760866
Pd 9.957350445408077 10.879062661735945 12.838295424440316
Pd 8.293390633182891 12.020480347658665 11.081646316413796
Pd 9.712217449743031 12.331043474903277 8.695098149680462
Pd 7.090164745124091 12.52160990919083 8.787700030976561
