14
Energy = -53.6839992 eV
Pd 12.638098818179301 7.612957538623906 9.15775984506101
Pd 12.167750127217234 9.240819537761086 11.236661011225179
Pd 10.620116592779231 7.543789154263116 7.437607336906983
Pd 11.362656310982736 9.88934522115831 8.69553714484808
Pd 9.940683314850311 8.921738022763783 12.608853484277404
Pd 10.170350800329173 8.017952336045846 10.079572554596842
Pd 10.069254309155754 9.905843658526955 6.363712660318961
Pd 8.395651460566004 8.78718555995564 8.16674154699237
Pd 8.56655128471283 11.172459903055685 12.81825869760308
Pd 10.301113050137285 11.092985331771759 10.83817035682541
Pd 8.11932904759352 9.566673325284892 10.737752833835376
Pd 9.114621874361394 11.2920792979006 8.368054857166511
Pd 6.569940984095503 10.559650203289623 8.845733032646043
Pd 7.924230976377091 12.2828624102814 10.471251881204827
