17
Energy = -67.56332241 eV
Pd 10.830412697561755 10.26987649103174 12.303101819223983
Pd 8.40997069173126 9.147436819384042 12.756659922042141
Pd 8.742027251163892 11.73248179293147 13.007539592015386
Pd 10.084378240342607 8.052824088088864 10.922267485681248
Pd 8.018016333544233 10.683094173256997 10.6577498931868
Pd 9.935791189602773 12.649926123461759 10.832926329533645
Pd 12.550766660076347 11.665394294976952 10.776009863348836
Pd 12.627478112905521 8.941093976276552 10.72962094414647
Pd 10.451284139378606 10.366683612448186 9.711138112497594
Pd 10.462773341247406 10.55180765920806 7.0313203589068936
Pd 8.48119747151941 9.305442452628148 8.345339274694917
Pd 11.2060083650464 8.225097401121596 8.431828937395698
Pd 8.642516171683491 12.038789432048905 8.415877503670835
Pd 11.288931373864846 12.681209247627624 8.517033701855613
Pd 12.83023408954369 10.367726217968757 8.40456405856049
Pd 7.4781871833583295 8.020243208271587 10.512804780938493
Pd 9.032324057289523 6.771376037331676 8.83099375954767
