10
Energy = -36.11503774 eV
Pd 8.594696369629933 8.019494964282888 10.765523897488412
Pd 10.06617859574253 7.636996075624957 7.521107499946868
Pd 7.781676270654229 8.490592377120684 8.425530391062074
Pd 10.886351867169592 7.199541434300269 9.855812006201024
Pd 6.131356020509167 8.888078548888942 10.435722002419638
Pd 8.036354488281262 10.54243716197468 10.102692987004108
Pd 10.688688715451342 9.727309980949608 10.38991228190096
Pd 9.890647749897568 10.171079676472466 8.05090643376859
Pd 12.132967252975066 11.24593277934787 8.833454660485813
Pd 9.946781502508994 12.237966222159681 9.774286983217007
