18
Energy = -70.60948803 eV
Pd 10.122708795721998 9.036349866051662 11.636908551530304
Pd 13.930761721385606 11.725889281206438 13.629356039451771
Pd 12.896832826962617 12.742975788994672 11.448060969481544
Pd 12.678702854753158 8.997107625910322 8.052060983084399
Pd 11.772017982430597 13.090098284935783 13.971986313229786
Pd 10.853464789795035 11.102381885110399 7.841045408815133
Pd 10.214628172989093 8.699955907499875 8.997552686727728
Pd 9.11733436240945 13.309740255299854 13.592749330451673
Pd 10.645811799740132 11.635873086961919 12.18971464952092
Pd 11.697597009470993 6.635367957440811 8.615041406220882
Pd 10.834782368527941 14.508832807747051 11.85951281323328
Pd 8.629636052665429 13.236672138524145 11.00275854130064
Pd 12.405769255618257 8.039374416086076 10.663362703290403
Pd 12.140755878936995 10.656372976426935 10.034757636535875
Pd 10.941256310367713 13.062237067119169 9.62111341250684
Pd 12.564468726254502 9.89423780618146 12.491132026071664
Pd 8.18582993976478 10.887898283826935 12.34760365203673
Pd 9.209332778036107 10.92040306208971 9.912723938666497
