12
Energy = -45.3764258 eV
Pd 11.01100021484188 10.247442170448311 9.799395
Pd 10.920468626373419 7.627270928429401 9.799395
Pd 9.98110292994871 9.105996136296017 11.93753517829968
Pd 8.613858808353228 11.382189836570802 11.134141410106002
Pd 8.613858808353228 11.382189836570802 8.464648589893992
Pd 8.354043786844148 9.110857031222771 9.799395
Pd 8.75177090249314 6.887943362254799 8.462716648510836
Pd 9.98110292994871 9.105996136296017 7.66125482170032
Pd 8.75177090249314 6.887943362254799 11.13607335148916
Pd 11.07567926212811 11.52946640609842 7.496228498247184
Pd 10.462403517273637 12.795978436280157 9.799395
Pd 11.07567926212811 11.52946640609842 12.102561501752811
