11
Energy = -40.95724713 eV
Pd 10.003439052000877 9.75134650144922 8.879161092456412
Pd 11.900282828816426 10.05600119697477 10.694524156544922
Pd 7.293214968114461 8.847685617532631 7.999220290271605
Pd 8.01742197011451 11.420699113986892 8.52502404262589
Pd 8.567981884755454 7.332165848750521 9.83458885915122
Pd 9.629581925135469 7.588310431660281 7.450503789886571
Pd 11.182296620741674 7.579449861579062 9.74714083422384
Pd 9.815008759330848 8.835635679901635 11.702645072402566
Pd 9.5959326616975 11.412328844963042 10.864107682355018
Pd 7.609221963375571 9.746761168613144 10.496654577067552
Pd 9.017228975638343 10.061227234588806 6.438040993293259
