19
Energy = -76.0519766 eV
Pd 12.665638604658248 14.199295011079558 10.175563873877215
Pd 9.52318270933089 9.086630353632241 8.761465287036954
Pd 10.259935096190961 7.934240003962008 12.43710088417563
Pd 11.93390347475233 10.342891317236633 8.903484434793036
Pd 9.16496547228548 10.235902541321028 13.451599161527852
Pd 11.76718639859425 9.941898127614943 13.360082415936681
Pd 9.241096986725287 6.891172997306202 10.20467480439009
Pd 11.636389077142317 7.9944583748693 10.169866237503589
Pd 8.301476286016989 11.370606452138112 9.77776221330885
Pd 12.320677345415715 12.76934256981694 7.862014436497579
Pd 9.860498328956655 11.422735394463723 7.58533882797204
Pd 8.074830105605377 9.026552798397187 11.15830732644032
Pd 13.270504348220303 9.717110068458084 11.246206983408321
Pd 10.441322302263442 10.267762069978009 11.065084948209696
Pd 10.551457066699204 12.749018623145002 9.758655883875386
Pd 9.432637610204933 12.522473453058161 12.111652478185942
Pd 7.116006506522949 11.266483463110001 12.143148264909184
Pd 12.121481711631008 12.195011322669856 11.932449451600506
Pd 13.864480469629681 11.903566637795333 9.888390449435926
