19
Energy = -75.53896753 eV
Pd 6.753846743834283 9.29663588072615 12.696336250116355
Pd 9.327232101841478 9.307858823852532 13.068582854177365
Pd 8.244733917611141 8.768452201815744 10.62508053765455
Pd 7.938635395666871 8.371334442159505 8.013296940226471
Pd 8.38287485331416 10.984144551638177 8.836593843582676
Pd 9.443846580815682 6.63567935388707 9.51906667845252
Pd 10.065830875416992 10.754693843581206 11.044493103985523
Pd 7.581423669512143 11.35684799444116 11.355852792212485
Pd 11.951655012138582 9.939273633439317 12.745248612698287
Pd 10.850690648066648 7.998065387823436 11.303772098978166
Pd 9.313500160940059 13.12124646650719 10.158404485286058
Pd 7.357209781236162 10.399626812844952 6.511336862731492
Pd 12.072110131197404 12.377361172434671 11.051764162749391
Pd 12.524801389525935 9.905617611013332 10.14806116804625
Pd 10.296776643327645 9.040267503134194 8.78604040567974
Pd 11.070791802948818 11.79836185060035 8.672232101461885
Pd 9.946291530924533 10.465673692600923 6.655169509135873
Pd 12.296759424296452 7.43745816488617 9.151765923013446
Pd 12.467141374170291 9.874819171679905 7.492155100733709
