19
Energy = -76.36002581 eV
Pd 12.897157788970004 8.063981922869178 8.84858512913004
Pd 10.752487938602611 9.105929306240991 7.631467470048135
Pd 9.439682270230751 6.802968522493587 7.633195413554021
Pd 12.247827497339102 9.040986217045964 11.23053495735701
Pd 12.53207793692802 10.648972007700369 8.99993042220294
Pd 10.551710664805341 7.488488549294286 9.866417606173131
Pd 10.23633054766087 11.704850896613259 7.83723392630568
Pd 10.016560733379704 10.201873157772313 10.049142125564321
Pd 8.229672742845645 8.936652964833078 8.461679598056167
Pd 11.755981047049278 11.742887684374473 11.419864322692433
Pd 11.93777271745336 13.183402901586668 9.195680404813977
Pd 7.794517837969672 11.482049334545701 8.79541222699763
Pd 8.024186390472318 7.215687687977221 10.425842380369101
Pd 9.623680196845296 8.551413189520401 12.142249591603097
Pd 7.441534718658087 9.755115142419186 10.92805375702147
Pd 9.553878200370594 12.93035861428321 10.268297391987554
Pd 11.334006195597723 10.085930437410044 13.440525213210195
Pd 9.235222415128277 11.256337101408937 12.417220963525553
Pd 7.160960667472406 12.342014249490683 11.223619321349428
