17
Energy = -67.36612215 eV
Pd 8.436842860155881 13.142152429662628 9.399837266538123
Pd 10.132856242952597 12.11320767423916 11.126044068443042
Pd 12.189253225078184 10.624669074039188 10.141112539906874
Pd 10.531183539249358 11.92516814697997 8.420186638598066
Pd 7.639840651967151 10.99667502237971 10.693503228145884
Pd 12.527049590015649 10.459090924336762 7.545672146696001
Pd 9.757354383456892 9.688868290600128 9.79500716481304
Pd 8.715081052209722 11.089823167822574 13.089890328514644
Pd 10.818772041815448 9.739461268375914 12.317939253188968
Pd 11.794423238609937 8.23771440875081 8.81565340326319
Pd 8.304293280905771 8.687550791515742 11.898099528223916
Pd 10.06839487062679 9.477298602650258 7.158692522975845
Pd 8.004573244216537 10.844323897782152 8.03678470068102
Pd 12.781743439772558 8.339229298466174 11.293845969434322
Pd 7.338603521979385 8.632933675915288 9.3923565250536
Pd 10.345013044107178 7.353873857746608 10.90103162155348
Pd 9.31417137061705 7.244788174445874 8.426220999583947
