11
Energy = -40.59388505 eV
Pd 11.390475126638925 9.835023811536376 8.77928370398856
Pd 10.816807388831123 7.687588581000399 10.293900000081896
Pd 10.616724209406321 7.470748516682252 7.622679329936877
Pd 9.247182781666437 11.535915809551701 8.79034187941237
Pd 8.67867678033508 6.3685939105788165 9.117092568165702
Pd 8.953555066060717 8.949546829605964 8.98728266981566
Pd 9.958752881276384 10.207344216949556 11.025849817735596
Pd 7.971039247234495 7.722418100836589 6.907588005679158
Pd 7.126288550050757 10.22638626465122 7.6291582493806605
Pd 7.302361645065643 10.466689863890887 10.306364098560481
Pd 6.503846335679184 8.08334057939854 9.13925300220291
