15
Energy = -57.13660764 eV
Pd 11.684027092198475 11.35362404684881 12.069120446133237
Pd 9.650173533561825 11.814768472585092 13.620009242310964
Pd 12.768275165287001 11.204262798429033 9.62969241650492
Pd 10.034534356516346 7.156564858658973 11.427030264479646
Pd 11.919136522242471 9.075393022872138 8.041752124678833
Pd 8.759922782072797 9.001316584212164 10.196125268137912
Pd 13.88580589640576 8.873081060691431 9.69809199309259
Pd 9.25090560052838 11.4654270174844 11.102726795827177
Pd 9.329113611352906 8.827138936140871 7.669110537227942
Pd 9.820055639156706 9.361414799125862 12.752331837496307
Pd 11.065191566648032 13.1419009745205 10.168216173275995
Pd 7.0471886904747825 12.33747950797168 10.345373805032562
Pd 7.696865744485989 10.705611768948854 8.541954457761834
Pd 11.400082817687654 9.129397426410797 10.55389503819916
Pd 10.23216126298235 11.108335713409847 8.690740620649136
