16
Energy = -62.32040884 eV
Pd 10.55068190837024 8.059271313875861 7.770250584285195
Pd 8.251386579116188 8.130224962001465 9.19605341682163
Pd 12.376848022323923 8.985009234358342 9.534870378632068
Pd 13.630760598690333 10.375345905060836 11.385187590883833
Pd 10.527451629123716 7.094423902237607 10.192296644326689
Pd 9.979475535164791 10.028563842622802 9.405321579267737
Pd 11.930770755066545 8.392883825895241 12.094902592215728
Pd 12.076256175026373 11.657024672355337 9.629087691592433
Pd 9.33546864877929 8.864310667378957 11.754398255852436
Pd 7.530393839951589 10.767641019202626 8.879955769039361
Pd 11.124188194296167 10.904587104730163 11.91119190383136
Pd 9.542223280871486 12.647751800532308 9.133868992779664
Pd 11.5931139283532 14.198013683466481 9.470190431177798
Pd 6.874082192911577 9.420252849617736 11.057646418619774
Pd 8.532012306419238 11.442051748123806 11.316384298754262
Pd 10.3170244338916 13.356340086008812 11.58596783896437
