19
Energy = -74.28028211 eV
Pd 7.905769304455857 11.288777609582032 6.625744013453961
Pd 7.660342952414639 6.878166038017847 8.063001834990137
Pd 10.19090662463563 12.029244575698039 7.52564358416748
Pd 7.902358683116981 8.00917710867126 10.393295591064632
Pd 12.509606642556497 8.28813894424699 9.79999285696125
Pd 10.175563491238496 7.349312531930342 8.684766769312422
Pd 9.835902582313281 10.116940073079576 10.361099144167884
Pd 11.163479511761157 9.740433621070059 8.062214534916452
Pd 11.84117876730975 13.245919249460773 9.006625059169206
Pd 8.238268236949505 11.90069992779064 9.198955249987154
Pd 10.993740494321003 10.86687295107213 12.509931276637923
Pd 10.09918135801567 12.764591218046336 10.804765717890222
Pd 8.455866659273491 9.370374765259955 8.218120074386324
Pd 7.400308639487782 10.452254703041476 11.241861583588847
Pd 12.381256368801623 10.960005573583183 10.050045561495653
Pd 11.307062270143344 8.532244385212906 13.560206574092929
Pd 8.684295830689855 11.995835766415462 12.79756065076807
Pd 13.204727677077594 9.452677392349322 12.077691977674204
Pd 10.421552773855344 7.816239987353842 11.268240364986637
