16
Energy = -61.44594618 eV
Pd 13.477850514778433 10.83040438281629 10.426623455880724
Pd 9.989189685488556 12.66666547070564 10.09751138898515
Pd 12.506387275867624 12.879816590099384 9.048034746006163
Pd 11.335628512292812 10.5455554713368 8.820601063594522
Pd 9.115022236789317 8.220711075761852 11.196563736569273
Pd 11.732026205658721 8.937802556986338 10.952150747055397
Pd 10.50833923946096 7.997489045347116 8.846299613015383
Pd 11.516821721273445 14.734476448839471 10.564040081143235
Pd 9.444664686175306 9.68809047413557 7.18524987536504
Pd 7.799714940348573 8.107892016066721 8.861777710211122
Pd 8.824677479640492 10.454670462363676 9.614626546887578
Pd 10.089341389389201 10.698923680056179 11.955602369152732
Pd 10.61996632475218 8.451014164963135 13.303105436750764
Pd 12.014383309846082 12.53109007217624 11.80823896185547
Pd 6.829214024049523 9.437266889831076 10.905174630735761
Pd 12.59769829550571 10.274073136752113 13.012363052483112
