11
Energy = -40.7181738 eV
Pd 9.50216174934103 11.54572923866478 8.80918090054108
Pd 7.183800407202032 10.088582154602157 9.056956422693494
Pd 11.462313490393766 9.702396288328137 8.015039606526898
Pd 8.44618318507671 11.105236388626466 11.217873958287727
Pd 8.960892947288492 9.527017245278499 7.22600013968737
Pd 7.642477109573312 8.589912419265191 11.33987413542374
Pd 8.61510781374763 7.366866921949918 8.620219720078337
Pd 11.300512187102438 7.2972856497670575 9.161693352335329
Pd 9.805995307086258 9.203817080363349 10.040093868172056
Pd 10.53019395890489 7.498216115061877 6.69904283513484
Pd 6.199958104291491 7.724189764518637 9.425106253891357
