13
Energy = -49.38184553 eV
Pd 9.548211799239274 7.488877469472689 6.16983156592571
Pd 7.427907471374019 5.784389115286735 6.436099258722854
Pd 7.0176804351422595 8.18997408834856 5.334678888048646
Pd 8.495572181832783 9.959163612943815 6.650407279874054
Pd 9.103822255366467 6.073259944367579 8.498318818829203
Pd 4.99646064191404 8.61147475244316 6.944662617975761
Pd 7.36516735526277 7.973192729774741 8.01750453633689
Pd 9.811838776654 8.674864610330143 8.617396738137224
Pd 5.413852363695393 6.202277978283172 8.026453061862151
Pd 6.467427993359966 10.4220860185751 8.246083351785028
Pd 7.058031188739654 6.5123936515951595 10.131546233838815
Pd 9.5141861335315 7.258490423746154 10.840409877202285
Pd 7.76601243362745 9.153814362294181 10.277888114051114
