11
Energy = -40.60651515 eV
Pd 7.154699951823847 11.954651245218265 8.995239411216792
Pd 8.952245135144697 10.344649759601491 7.944969832433595
Pd 9.677587975755587 12.5766410257006 9.281824347462447
Pd 11.041853732424274 10.506637721297144 9.87301883480566
Pd 6.661368148649756 9.375833901454785 9.056983549633467
Pd 10.934746256251987 8.552308576178032 8.192647209479578
Pd 8.51119976822955 10.49207931515137 10.71576069308234
Pd 8.801252757430627 8.049685641388466 9.572393981913981
Pd 10.296914106644856 8.661371493342836 11.620731841492786
Pd 10.90356972985954 6.567048424452377 10.022340561963182
Pd 12.629599162255058 8.517254815644279 10.286730914159133
