16
Energy = -62.20703872 eV
Pd 11.437496385759884 12.70131501988333 9.224444620403007
Pd 10.06499970253477 13.118379672571342 11.507984691267316
Pd 12.120732268737143 9.413033477785454 14.576791255561185
Pd 11.003041084937273 11.416118878461177 13.379771597083646
Pd 9.2937230052728 8.701794547568712 10.17993221444209
Pd 8.985015033649946 11.674390894913667 9.494115408265504
Pd 6.999893659107415 10.105588905919117 10.264043490398759
Pd 12.615591321523441 11.536245910879414 7.227753047267205
Pd 8.787625288746051 10.70854310140544 12.082617948738799
Pd 8.174590226351224 9.661604671734342 7.9641992613896
Pd 11.097703515097276 10.533586240459204 10.781781430208545
Pd 12.742881214304138 12.488585919824947 11.615195915071293
Pd 13.399139037090812 10.797320217125288 9.625162381059106
Pd 10.542634166466044 8.738716736043283 12.607498043906137
Pd 13.17705423460712 9.9348633505937 12.250068815281942
Pd 10.781433175084208 10.050192868001375 8.237915290027464
