16
Energy = -62.42116975 eV
Pd 8.74023834311772 9.029550250568459 8.47373201482589
Pd 7.009369318644703 9.373702592475068 10.394200131358096
Pd 12.040734060332381 9.981205796021863 9.271190122064363
Pd 12.307263740120227 11.08724132827374 13.616805871430207
Pd 9.657768706214403 9.249186930176709 10.803682117399728
Pd 11.007761188907203 8.382060574044495 7.497414531760601
Pd 8.24120946702895 11.249385075937292 11.743142333612747
Pd 7.845985299819773 11.506545457474177 9.057933461180404
Pd 12.607187390229305 11.837685174881697 11.12736347360983
Pd 12.124850192390541 9.185370100658096 11.842134487245575
Pd 9.958301750022395 9.969204486520495 13.292470199914828
Pd 11.382138589168568 7.53198305492667 9.945883748371214
Pd 10.154803134624842 11.072905158279431 7.65923414005837
Pd 12.264582041449703 12.494226226197185 8.590392777470433
Pd 10.212531882022692 11.91083492800147 10.102003433066933
Pd 10.381637852595432 12.591938475722683 12.589655189297357
