12
Energy = -44.55014596 eV
Pd 10.769251218628414 11.658559017800712 8.272690141308285
Pd 10.556054077828316 7.951727043199823 6.120505693607886
Pd 11.019334571782512 9.142540468309123 8.335279595051196
Pd 10.586133521325362 10.532694993667567 10.569411966964806
Pd 10.607986083325649 6.542143155304566 8.288478917097951
Pd 10.038816939873126 8.826185571367054 12.398078594159813
Pd 8.559373777566075 10.364334406471798 8.623598976887806
Pd 9.288515674460124 8.032835258906795 10.116616136105609
Pd 8.044032458496751 10.106653313025392 11.388112779046294
Pd 6.680338308965893 8.734814428389024 9.478870567307954
Pd 6.422662743558457 11.28983874101721 9.771115826117311
Pd 8.452467224717278 7.854277166525261 7.670808336479774
