16
Energy = -62.63734484 eV
Pd 9.46149178722005 10.342821536729307 13.556707025036646
Pd 8.403297752035815 12.222406696591188 11.873395329605458
Pd 9.190141768272042 11.593006515011625 9.30026914765775
Pd 10.56033865389245 13.478505590912649 10.460204401421546
Pd 6.720445708343003 11.20177642981284 10.083828578330486
Pd 12.637232198111837 9.194805690132638 8.209872107962047
Pd 7.9505930794238155 9.391641250387108 8.58151563938487
Pd 10.366367459102177 9.062502330625497 9.544759345482264
Pd 10.779321903563217 11.116848361288804 11.467488348851
Pd 10.680506963981935 8.428271899739526 12.095075606937334
Pd 8.348545526135215 9.497242120980111 11.259243339619955
Pd 11.87806091566623 11.594577902066789 9.09216797269815
Pd 12.229176372220547 10.140977186427946 13.393875729555644
Pd 12.897932865160483 9.722624551124687 10.807151542078214
Pd 12.135441771441588 7.270853201096382 10.16188746584837
Pd 10.320521731055592 10.287294866607622 7.250571567088101
