19
Energy = -75.83068488 eV
Pd 8.332354060319354 10.779181001356715 6.6642885714540085
Pd 8.958344460598767 8.27407500570282 6.414724979341637
Pd 10.924768955644357 10.03008248490985 7.035765107806236
Pd 6.89432089852425 8.940604051955592 8.249863567209854
Pd 7.216493553705527 11.665954144430042 8.861950835926809
Pd 9.86621452990742 11.99781316785759 8.396529072012886
Pd 8.476051047716467 6.609131459705051 8.348197296220214
Pd 11.011547058151637 7.5658376566165835 8.035430425383053
Pd 9.20287586568175 9.38627262866529 9.152735064287677
Pd 11.703484731747956 9.657056693722732 9.587626696823422
Pd 11.627415995307373 8.422381884358629 11.915029713567337
Pd 13.221059869729846 10.525776114417786 11.612582249965936
Pd 6.750150721061534 9.979393920372793 10.817528501881164
Pd 7.358675948933183 7.437682015023692 10.570362265408056
Pd 8.954181689381688 11.505050350162882 10.85622049848808
Pd 11.497552043304058 12.152519111478323 10.412875735259524
Pd 10.03387855826509 7.032635291844333 10.404877914957618
Pd 10.789273165352057 10.85633657501564 12.656359313517555
Pd 9.034654695468918 9.035514291205178 11.860350039289902
