17
Energy = -66.36111591 eV
Pd 14.131221223700543 10.026790804791228 9.170011480426542
Pd 13.611293905766207 10.110808812597645 11.810066626869355
Pd 12.809971533007618 8.03365143067822 10.200011955134938
Pd 12.556770467651548 11.898269909006217 10.093584300906569
Pd 11.73756794246494 11.995328986302106 12.713954044243339
Pd 10.756674575553014 13.61842720816099 10.954918848398073
Pd 11.58987472047684 9.658283167105003 8.496854071760003
Pd 11.14323952630238 9.858592733802315 11.096555151038475
Pd 10.12254923556202 11.945839726433512 9.058937619806713
Pd 9.161899459748069 11.542896507087887 11.487201203426215
Pd 10.146284037428984 10.056289875461035 13.539862481593355
Pd 9.358865903304315 10.314084841767441 7.150573073899801
Pd 9.160690681799796 9.19340088760925 9.467445014424879
Pd 7.641744708376176 11.848497356440557 8.320266898223588
Pd 9.372622648812056 8.064214908569694 11.781207680956594
Pd 7.124661739792663 10.38410809074585 10.350510553334825
Pd 7.63250185844329 9.675988665529202 12.78382443222299
