14
Energy = -53.24792965 eV
Pd 10.831734 12.660167064873278 10.831734
Pd 9.003300935126724 10.831734 10.831734
Pd 9.482522217933727 12.180945782066276 13.070479217829838
Pd 9.482522217933727 9.482522217933727 13.070479217829838
Pd 9.482522217933727 12.180945782066276 8.592988782170167
Pd 10.831734 9.003300935126724 10.831734
Pd 12.660167064873278 10.831734 10.831734
Pd 12.180945782066276 9.482522217933727 13.070479217829838
Pd 12.180945782066276 9.482522217933727 8.592988782170167
Pd 9.482522217933727 9.482522217933727 8.592988782170167
Pd 12.180945782066276 12.180945782066276 8.592988782170167
Pd 12.180945782066276 12.180945782066276 13.070479217829838
Pd 10.831734 10.831734 14.909570815903457
Pd 10.831734 10.831734 6.753897184096539
