12
Energy = -44.49102272 eV
Pd 12.173981026165947 11.444493613287717 11.436211379839959
Pd 10.927531245052911 10.317325681581934 13.459405180768206
Pd 11.340112116101425 8.878686180961731 11.276617858097131
Pd 9.486038050486204 10.83324473914672 11.241056359919826
Pd 9.110662865309992 8.545226760407408 12.759672091292696
Pd 8.525009269635408 8.549763095688482 10.276244376775876
Pd 10.610000329006292 8.495181629200859 8.765913683142392
Pd 11.124090585215967 10.9916418381173 9.153974862372802
Pd 8.483997777277867 10.763665899488732 8.761290997928823
Pd 10.243701886021949 10.247125038363253 6.7901996549672505
Pd 8.1858023394397 8.330115856846529 7.67107584750469
Pd 7.6957452495477146 10.502120748286721 6.292678850082468
