17
Energy = -67.25580577 eV
Pd 10.077256303211913 13.945462535763657 9.8974351490531
Pd 12.165037939209194 12.495841551598325 9.129744614658831
Pd 13.276480547444406 10.746535335464035 10.72182129847987
Pd 11.155934193381517 12.301850982975216 11.67672794330451
Pd 11.919046337808524 9.944786794071286 12.84772287703841
Pd 8.52817661376418 12.013269977826981 10.87002605566291
Pd 12.53619059746634 8.188751470126556 10.883064229334769
Pd 9.785255397352845 11.706467088691708 8.50725575032755
Pd 9.387351796504545 10.642171102333114 13.061725164356766
Pd 12.140259715485122 9.771493787891089 8.509532281474803
Pd 10.498105415702971 10.140406853458979 10.457842782574417
Pd 7.466520052210747 10.523968945198305 8.7971160695265
Pd 9.618338565176415 9.295253617378496 7.553741901162814
Pd 10.108108891098844 8.060311344724138 12.24084493020793
Pd 10.27386947319547 7.744985418929188 9.588919202908459
Pd 8.093714185151548 9.347829299293819 11.098758751592417
Pd 7.778356544502882 7.912452146008999 8.922383378308778
