14
Energy = -53.77656032 eV
Pd 7.699415891214533 11.680227341722505 8.800534768137608
Pd 9.674298202663653 9.857785935689254 8.339764965622344
Pd 10.018292582466552 12.433616354561183 7.71941415972462
Pd 7.297802773637624 9.072655987682207 8.485917042075371
Pd 11.922180174178914 10.888205622570998 8.788460751120322
Pd 8.326704583604627 6.774038061796357 7.865537324856869
Pd 8.117445345909616 10.078758680104194 10.856884550456979
Pd 9.977864780625438 12.007385205275133 10.270654006413604
Pd 9.794562815624717 10.994706410480585 12.665042603594951
Pd 10.698184834444396 7.573182467834184 8.455066156918733
Pd 9.23797977889202 8.447720823729627 12.658622195483593
Pd 10.895837590674384 9.400737724962976 10.834002804180285
Pd 8.826431919338857 7.558119834607865 10.26323217415634
Pd 12.855153881277666 8.572963805333647 9.334588463096997
