14
Energy = -54.15457478 eV
Pd 8.939126536565107 9.691840464479457 11.44276872013667
Pd 11.574716785633957 9.939361669212788 11.839412468736219
Pd 7.852213270122917 7.249994586357972 11.766370305393103
Pd 10.462375440537647 7.482903260603545 11.431896642195305
Pd 6.669137407460059 8.965016262524301 10.142178205259567
Pd 8.814530116684939 7.605686336782695 9.277193572240598
Pd 10.953981857300114 9.154519466772177 9.429028307599767
Pd 8.504491481729014 10.469387577748533 8.951982037635865
Pd 12.669550399017716 11.14361644861037 9.684417119991997
Pd 10.24975273508058 11.835256101417551 10.432075541756205
Pd 10.755034299363073 11.212282808039543 7.782830900714357
Pd 8.508278699001163 10.827545780848551 6.337500552842939
Pd 7.2028699159111795 8.755532008335713 7.476008121794537
Pd 9.873810055592795 8.6969262282672 7.036206503702187
