11
Energy = -40.47143432 eV
Pd 11.19584276084576 10.26014608452958 9.79864248615459
Pd 8.10488898139371 8.763066553985277 10.798662903033382
Pd 9.241521812331994 10.933264483567998 11.339930003350272
Pd 8.492634024519328 6.200474104273366 10.212580485376778
Pd 11.053575239046712 11.057489101631491 7.336162376633203
Pd 10.057197906394654 8.063922833734742 9.233215123380583
Pd 7.843354302194622 9.410766156254033 8.290361767297611
Pd 8.30928650649408 6.8827054870987165 7.586563958142245
Pd 9.891839944069659 8.865049025877692 6.791250226829733
Pd 6.338895054291367 7.493849607307882 9.31143665017016
Pd 9.009594991114751 11.607898039042333 8.839825474237797
