17
Energy = -67.06174651 eV
Pd 10.686981119097867 13.477315159753976 10.68750268855865
Pd 13.023408978410698 12.449188672458789 11.294372423100963
Pd 9.40677673438608 11.229194630313598 10.297633279011452
Pd 12.832141263295092 9.85846731477109 11.130992680965003
Pd 8.525152468632514 10.282339288209897 12.688976449830625
Pd 9.878203642414762 12.809968333005937 8.178098228272589
Pd 10.925047696431704 11.365393677464342 12.446741850806683
Pd 11.779327477645198 11.339274091524047 9.230801798133381
Pd 12.470207919449091 7.268598653214551 10.953124717992983
Pd 7.861845425163229 11.047553679451255 8.100907262602322
Pd 10.34961021168342 10.298531886720545 7.26174896224617
Pd 6.917604142329052 10.49740867009544 10.559591305274258
Pd 10.422738923021727 8.881820257315292 11.51705527141491
Pd 8.980852922881061 8.944670185980536 9.02432099492417
Pd 11.638925149273087 8.643866071718143 8.903232335719995
Pd 7.875579776470022 8.105189210963257 11.218485174723291
Pd 10.010296057468947 6.750280295799366 10.077974921876649
