11
Energy = -40.10577318 eV
Pd 8.288941231906517 8.670784885360835 10.14114439532023
Pd 8.852008766711617 11.257236768937748 10.10318552407684
Pd 10.1810110483371 13.310768404564497 11.125599323341524
Pd 10.879998919337154 10.819808025900628 11.688114254923672
Pd 10.56184488918008 9.41771222841083 9.128514851235499
Pd 12.901215351576178 10.11203467128087 10.24228689922391
Pd 12.80395566404666 12.598013425251018 11.148828688561112
Pd 11.24539263158538 12.029573855383727 9.114525507877786
Pd 10.273039926890862 8.305834066330986 11.729486094058688
Pd 12.156044555075448 7.649037969103312 10.140479873424761
Pd 6.470331912607003 10.442980648102406 10.051619690702154
