22
Energy = -87.92070001 eV
Pd 12.79446789060922 7.619386293250764 10.867857431348298
Pd 12.761732832745173 8.71930236492982 8.3669421727932
Pd 12.236759000544756 9.055637334509324 12.92924416556365
Pd 10.577527984590256 8.087684234222266 9.665523388795439
Pd 11.118314336808869 9.265870599381278 6.431877263029944
Pd 10.486944626607828 10.157376779267143 11.28219945252143
Pd 13.117742653481669 10.209175072729117 10.674577398318714
Pd 8.183626522195661 8.807770653635009 10.435809890004734
Pd 12.579581305405258 10.718750684682957 14.896155300019696
Pd 10.959508015991913 10.68819933357831 8.606267111760715
Pd 8.96924768681313 9.147610810309017 7.922851121514149
Pd 14.014534913691453 12.680832802983417 10.822138486766816
Pd 8.038032505686015 10.555504576313918 12.446871821932483
Pd 12.243817786008046 11.936154374714462 12.634778241949153
Pd 6.267936318700228 10.627963846804166 10.496469859951292
Pd 10.185671894947875 10.716732555642647 13.899107433647494
Pd 11.501780413722827 12.729095481844876 10.136283185751466
Pd 8.663659636167683 11.3253086784288 9.643061557046806
Pd 13.35849973632176 11.615747739293397 8.44037643636486
Pd 9.730414506480681 12.703472625828857 12.18239063546476
Pd 7.1935325903044305 12.940973240743364 11.44328165476043
Pd 9.153376723996864 13.83628055513636 9.902632467436865
