28
Energy = -115.14987195 eV
Pd 9.335774274994895 13.899204893246734 9.973741033249638
Pd 11.173959361377644 14.746642578773729 8.211256705754508
Pd 7.958894724014207 11.68752106537828 9.21041332681037
Pd 10.345362686396959 12.23641125704366 8.176485544132683
Pd 10.49543048448546 14.094492909574498 12.32196126886292
Pd 8.808836690735383 11.971806141854886 11.773873637507664
Pd 9.681802966878221 9.778837410114967 8.618649305078005
Pd 11.86905420188721 13.173770087447181 10.229396865096271
Pd 10.907902727018543 10.727953736505377 10.782313847276145
Pd 11.908920330908726 14.11597214167234 14.533041157051825
Pd 8.175443486667431 9.561352344507544 10.762333200896373
Pd 10.972539044325275 11.76484650564492 13.379309840711464
Pd 12.907520342973992 12.728304361906641 7.754277832604948
Pd 13.310008406352674 13.696037028936285 12.38157461620178
Pd 9.236899967586277 7.371913862471853 9.560680940185959
Pd 11.705495401479947 10.300034260975274 7.015089210787477
Pd 11.413962520904045 12.074045908060194 16.095088813396796
Pd 14.44125484895791 12.85125229126692 10.030805215609261
Pd 13.123759792190622 10.584773370179814 9.26413457764785
Pd 11.75886568704566 8.299584025056815 8.910405901578066
Pd 8.464883262836086 7.347523589283574 12.108238909871377
Pd 10.7016384933231 9.758177748322126 15.315934786525748
Pd 10.89666326368316 8.130930947633429 11.46804343305236
Pd 13.438370961144045 11.179568100362864 11.822253850920871
Pd 13.405175996584918 11.812988710796215 14.374422050163677
Pd 9.40545973017604 9.65582242767819 13.107922648527742
Pd 12.31682816013613 9.376255373444002 13.354258111868333
Pd 13.428826419367024 8.663511156294057 11.053627603061772
