26
Energy = -106.8699538 eV
Pd 7.16512002387137 9.531684027889368 12.34176376625291
Pd 7.871407243462388 7.95539499680185 10.425879091255839
Pd 9.687822877487497 8.92897619664329 12.126205324390927
Pd 6.378223594149146 10.127467544532315 9.640133519483898
Pd 6.631074479914161 11.963552150973054 11.701775172322764
Pd 8.847381288458593 10.747361411122155 10.156686491892719
Pd 10.391332175527698 6.985078115487789 10.424936542996013
Pd 8.140641483825222 8.786011482797997 7.99396089569332
Pd 6.924078044202208 12.823572990323651 9.262363751092506
Pd 9.134040046866726 11.459121439703145 12.757841991397243
Pd 8.655304959992366 13.570889391386803 11.125518778163043
Pd 7.75086260085888 11.269418725881748 7.391761995120126
Pd 8.657899681924071 6.264182463904954 8.576660886748815
Pd 9.623806347411794 12.889364899086052 8.689876595732422
Pd 11.76026839530298 10.488303889029813 12.741888359748431
Pd 11.991810827923636 7.734936470411545 12.309597612818605
Pd 10.959576233649212 12.406433908684429 11.001086299823065
Pd 10.6745044061796 7.856755865417562 8.008802103713196
Pd 11.461311217676217 9.774383726056158 10.145034237105575
Pd 10.204145879007482 10.471274240300108 7.730073262496607
Pd 13.968584996684624 9.240232001601624 11.64512116731139
Pd 13.467700992110919 11.783541767795011 11.09006604290477
Pd 12.245322237189535 11.908564463594834 8.673336543133262
Pd 12.91999051191507 7.6960147499072695 9.59651891705139
Pd 12.581511022998361 9.468180403898604 7.365143557597485
Pd 14.259181668628214 10.099546495411072 9.20540208784372
