21
Energy = -84.5151585 eV
Pd 13.229690221603557 10.469711308429105 13.059405862667797
Pd 8.023962334072174 9.181581103546966 8.985491576309132
Pd 12.513883110920029 13.06047636037481 12.7068005532992
Pd 13.214996390148679 10.16039916256769 8.72813716524485
Pd 11.31663035264191 12.068437372172738 8.944519304079904
Pd 11.038047519257862 9.092412944222799 13.250434471034236
Pd 8.987528684133311 11.430644080734796 7.775895759707049
Pd 8.71847750297665 11.31298075260387 10.40699999117062
Pd 7.137498688616982 9.506027994680933 11.532071989299606
Pd 9.66769298646467 8.713874196910325 11.037949265302222
Pd 14.825251410082284 10.053105937320007 10.939341215808632
Pd 13.493908771308694 12.23363705151159 10.398903838258915
Pd 9.859844163399273 13.22620061814918 12.080115315325939
Pd 10.654130233800517 9.533542879401002 8.760773934916271
Pd 9.309915272717555 13.652437874852152 9.437137974347309
Pd 11.191441952386512 11.093488101296558 11.392556937765463
Pd 15.096333973287217 12.221172733336843 12.491517987317929
Pd 11.722158738390466 14.260318973012678 10.431795252377103
Pd 8.528037880260797 8.273307147514817 13.401931339791057
Pd 8.964792149343491 10.864614529273483 13.02562763514813
Pd 12.38752609461673 8.872724601129743 10.888950082450025
