26
Energy = -106.28674304 eV
Pd 11.152154154341085 12.968211902750882 7.736877479171553
Pd 10.757391622478792 8.616278178923734 7.447863630660377
Pd 12.471070446261777 10.664210847447363 7.831925157676493
Pd 14.479203204987135 11.646162344762642 9.17341335456652
Pd 12.039666529173154 12.137001223053934 10.0360435317452
Pd 9.948686950969265 10.749260345138904 8.794542912797692
Pd 12.888356095999567 8.492501833212819 9.067962364430256
Pd 9.147191581235768 13.212931770888424 9.377450382758154
Pd 8.348507225561457 8.65655320414015 8.69638404449221
Pd 9.52158653495982 14.680354214194322 11.500374588493779
Pd 11.907932453859733 13.822339601328858 11.946488412206605
Pd 13.835731788764585 9.93613818779754 11.026302527887431
Pd 7.590331803441432 10.937976199066252 9.95690353385001
Pd 14.259933689091707 12.524856623224352 11.704158296705298
Pd 7.4064872296556405 13.173919873717146 11.469417348914337
Pd 10.41959708158192 7.370677063229836 9.823506877654896
Pd 12.727557742726823 7.082907186825932 11.222070101360634
Pd 5.524827754383888 11.414305358297314 11.447219237994748
Pd 11.210366030146915 9.617050648417694 10.863368976351229
Pd 8.694508796386373 8.96505098316107 11.28175008901355
Pd 9.773794493913961 11.918638257024508 11.650743742731118
Pd 12.160844895630047 11.386516944923656 12.786494284449605
Pd 7.595215102388106 10.77227916119326 12.835673175404205
Pd 10.39807223380479 7.324749388029154 12.523037941597991
Pd 10.027820287483035 9.876833037977091 13.419433885667193
Pd 12.513572831576727 8.852704182077103 13.181002682221745
