22
Energy = -88.25994106 eV
Pd 14.742912063234053 10.11267856019178 9.878071581089138
Pd 11.578269557159652 8.136349209634144 12.730049683131286
Pd 13.122868262289558 12.142546090480485 9.80445149232243
Pd 12.888862789107984 10.23004613828758 11.637960309943137
Pd 12.885775963155776 9.378889029627372 8.284410982461601
Pd 11.022314273218733 11.172641562804145 8.659049327359453
Pd 11.163776687939224 10.644203730331775 13.591391054956656
Pd 9.809728527114778 12.9618870068955 13.350952302057127
Pd 12.126150175815981 12.790654901509653 12.178935240007744
Pd 10.833282402341943 13.574483383259455 10.010795478114408
Pd 9.051708516550093 10.935412572265978 6.900860875823611
Pd 9.678840614863576 8.598621795219334 14.462051683566285
Pd 10.44120148617978 8.6881347867565 7.538366121339441
Pd 10.036557088197615 11.316776698806537 11.241245008762746
Pd 8.66458660230971 9.652178615761814 9.244253854810143
Pd 11.280006971134886 8.910371182087383 10.210111753353852
Pd 10.146464355576038 13.35714540162471 7.445187448069368
Pd 8.440948863976237 10.70447220229661 13.502827564799349
Pd 8.506683670141642 12.286056939739593 9.181791966285676
Pd 9.105523508164305 8.731643014944623 11.785343618915041
Pd 9.402433936905174 7.203426327986143 9.587663031941178
Pd 7.369982487594297 10.85518411931159 11.143951090051397
