28
Energy = -115.88667674 eV
Pd 12.101162857190653 13.933560452336135 8.322585169611239
Pd 11.49821037990588 14.216270251481562 10.880550524260196
Pd 9.688085180127809 13.438832913520027 7.420766643207727
Pd 10.560217066077355 11.071750433673857 6.851680731482851
Pd 13.135778704845809 12.941498310126562 12.808814153187482
Pd 13.022952164551056 11.586601846629446 7.60397901360902
Pd 13.395713219524493 12.313374297734105 10.169633693064888
Pd 9.10398924229824 13.643179128086636 9.926600341863278
Pd 10.799702265382956 12.058104274139575 12.1851491946075
Pd 8.974171239499393 13.882848306706798 12.510396434361567
Pd 8.477724906150835 11.273272548644412 8.661664869180232
Pd 12.277701665325536 9.072557470505375 6.891280839514724
Pd 10.073718947756293 9.068600858876197 8.523956545910963
Pd 10.925049627673733 11.73849737272706 9.485857103630696
Pd 8.32898147670554 11.473850394010947 11.379462333826762
Pd 7.9465672415770525 9.076177851490893 10.312885164695905
Pd 12.771483022327658 9.685831726428352 9.458871011623032
Pd 10.429468006660883 9.629678956403428 11.108649840621577
Pd 12.94825251316509 10.421212357929218 12.01831047447577
Pd 11.603556042269144 11.418318434824238 14.595784461677885
Pd 11.974822424058067 7.243006230519456 8.831375882810907
Pd 8.904038279356543 11.692652196562115 14.021610591513758
Pd 9.770568305895269 7.127698515415167 10.366623189161018
Pd 8.605146338582161 9.18896574829921 12.970226449623873
Pd 12.305091850083635 7.816730808320336 11.42859663290409
Pd 11.357294574796802 9.02333491253069 13.60400638128781
Pd 10.018399316495215 6.939199579139943 12.911971896701639
Pd 9.633750999090994 9.664877986427822 15.412305988427477
