27
Energy = -111.01344315 eV
Pd 10.66131371 14.505381572472682 10.455171297424547
Pd 10.66131371 6.817245847527319 10.455171297424547
Pd 6.539727219889056 12.137959571005277 11.51594561001579
Pd 14.782900200110948 9.184667848994726 11.51594561001579
Pd 14.782900200110948 12.137959571005277 11.51594561001579
Pd 6.539727219889056 9.184667848994726 11.51594561001579
Pd 14.662271667027428 10.66131371 9.174099370955718
Pd 6.66035575297257 10.66131371 9.174099370955718
Pd 10.66131371 13.067503426470056 7.977696106841174
Pd 10.66131371 8.255123993529944 7.977696106841174
Pd 7.964961746412996 10.66131371 13.46506641016084
Pd 13.357665673587002 10.66131371 13.46506641016084
Pd 13.001991797761686 8.358270147351071 9.559809579767078
Pd 13.001991797761686 12.964357272648929 9.559809579767078
Pd 8.320635622238312 12.964357272648929 9.559809579767078
Pd 8.320635622238312 8.358270147351071 9.559809579767078
Pd 9.207428239552742 12.953417912545834 12.34073614356943
Pd 12.11519918044726 12.953417912545834 12.34073614356943
Pd 12.11519918044726 8.369209507454165 12.34073614356943
Pd 9.207428239552742 8.369209507454165 12.34073614356943
Pd 12.041600733860298 10.66131371 8.261742228701294
Pd 9.2810266861397 10.66131371 8.261742228701294
Pd 10.66131371 10.66131371 12.912802685962772
Pd 8.573606321583327 10.66131371 10.974930063373703
Pd 12.749021098416677 10.66131371 10.974930063373703
Pd 10.66131371 9.362623442652765 10.329645597856596
Pd 10.66131371 11.960003977347224 10.329645597856596
