25
Energy = -102.47825292 eV
Pd 6.478367946200166 9.499351083276435 10.198612029513072
Pd 8.546716409886285 8.064921949439931 10.842398552848001
Pd 7.281465684127645 13.42587649329674 7.800484070486106
Pd 7.176778149346513 12.316290031831214 10.241119353035431
Pd 10.611311114443053 6.722324722678498 11.806215678079715
Pd 10.377269747375795 7.286917423654156 9.028805106475778
Pd 8.312901617820767 8.774855397047526 8.158966317594682
Pd 6.566585536991622 10.9116298469281 8.013914226668888
Pd 7.893550370615418 10.499222552600182 12.163740262547396
Pd 9.864701445408416 8.920484717525465 13.105210396727973
Pd 9.115840739816262 10.61855504374324 9.79840565687287
Pd 9.52228435472296 11.391230825992075 14.022418385762368
Pd 12.42214774462525 5.885298097345149 10.046864501864665
Pd 11.089995530400909 9.183006692233311 10.768894029155362
Pd 9.599378494580948 12.537802739907823 11.65139444712596
Pd 9.01974628870204 11.391727345857486 7.262936344431749
Pd 11.670560507859674 10.99549698063867 12.581033502743146
Pd 10.954970989612113 9.703707003854701 7.942611381010939
Pd 11.646585965623576 11.76978079771814 10.02322501231696
Pd 12.958724472094824 8.26060013796013 9.099841694610488
Pd 13.094152859672567 7.718654756731384 11.808903211588255
Pd 9.565607855911793 13.263631926165722 9.09568266619123
Pd 13.673554378490246 10.193281427064736 11.027809150947535
Pd 11.511438052855839 12.298802963692056 7.439109250621982
Pd 13.43611589064252 10.724866468420453 8.369861587506927
