21
Energy = -84.09641433 eV
Pd 8.383084000785393 9.671531008866136 6.7180872211524285
Pd 10.74299930019765 9.067837544040648 7.65918542786841
Pd 9.098940032201298 11.322570129736516 8.68557104417491
Pd 6.555985167771122 7.944167325054145 7.532512428075024
Pd 8.678035589800215 8.451354696479122 9.180313741119281
Pd 6.584425079612228 10.389928527026346 8.588915284817999
Pd 11.744341258833307 11.395979668070492 7.916182708145411
Pd 11.02386887809124 7.378494341058297 9.595836656363188
Pd 12.939164124696624 9.336641050282605 9.300848358199476
Pd 10.845681192480047 13.175912766181762 9.59931413613052
Pd 13.170917636232991 12.07173006060277 9.983335228043039
Pd 10.797272133689129 10.31375663450563 10.470108782751064
Pd 6.241526332057084 8.260830653270286 10.124403051535541
Pd 8.860726826503768 12.586751834462714 11.110993304879024
Pd 12.387750247334218 7.99284850740888 11.64290976503291
Pd 7.77362758602504 10.224536594994232 10.95527891837664
Pd 13.535331984297775 10.35065052952224 11.831947188053707
Pd 9.658419985132817 8.348368222472482 11.764910374952478
Pd 11.433030941849184 12.250714193716282 12.143326670434039
Pd 9.189368831066817 10.82090339095378 13.013878794193884
Pd 11.490972886525187 9.779962336477636 13.317610930884168
