22
Energy = -88.31959801 eV
Pd 8.550027242674291 8.981369328619875 11.649333130885582
Pd 10.945021312431752 9.056368785752 12.833693940470273
Pd 10.362623397873298 6.9597250215239965 11.411961190588146
Pd 10.062577204644308 8.59197266626149 9.42238133275368
Pd 10.059792492322687 12.972306784935643 6.885150427781016
Pd 10.909871658085263 10.874903948317687 10.486839487334139
Pd 12.384430281294657 8.566516404435678 10.626624247397416
Pd 11.952510542146522 11.694351623841964 8.111926321770746
Pd 10.947562216946416 15.056794951638084 11.086358212452026
Pd 9.951033968194825 13.244221114944501 9.456163537810063
Pd 9.445201435216298 10.784333069272616 8.139062952152646
Pd 8.191961700129466 11.442043292245797 10.469876520427988
Pd 8.829516049450596 13.639425747253362 11.855584450905306
Pd 14.690593664424656 9.180211621823839 11.730951236915255
Pd 13.26800151009821 9.052353661929434 13.933637526080169
Pd 11.490331957804614 11.059979366180597 14.488341540350678
Pd 13.651847315990798 10.689793989427757 9.784314161742142
Pd 12.887446922487012 11.130974507552155 12.275789694013406
Pd 12.532409410220016 13.056935812866145 10.393286998027628
Pd 9.507571003114073 11.252794406377918 12.746429457169757
Pd 11.313729674525858 13.197253006474824 12.871050700263533
Pd 7.537594634114779 9.253023685324914 9.192781574346627
