28
Energy = -115.19797382 eV
Pd 12.965062741559944 7.994316376146299 8.279434617309576
Pd 10.579454496488632 7.13936763924484 9.268734911029803
Pd 8.743385481586316 7.260898812552649 11.203492762361247
Pd 13.023340151082419 11.622913146792117 13.777637185091258
Pd 14.178422357079937 12.872140359472686 9.473004189140536
Pd 9.598203777869356 14.004404972187313 11.123898360059385
Pd 14.42442652951073 13.159511886471869 12.229007984609302
Pd 13.336121813666708 10.984607913281494 11.182705187140884
Pd 8.589707197423463 10.685515731559818 7.339649430303247
Pd 7.336631039552414 9.45466842255703 12.0505951976272
Pd 10.766772989322051 11.414465714978471 9.93443879204402
Pd 8.549350118393578 11.108417233076306 13.85867834478463
Pd 10.968363823863493 11.96620632545367 7.3324396250062005
Pd 11.247006924506112 7.0149051746083595 11.994982549472347
Pd 11.910306781356244 8.99512668344977 10.407368972095034
Pd 8.438417832576919 11.696411007072927 11.346589874961658
Pd 10.886586114153358 14.137410674577904 8.813041075880765
Pd 12.2032143105158 13.542022353216263 10.969217942633414
Pd 10.022142960071319 9.426407274865875 12.258242066509156
Pd 10.84940916498932 9.363270749671468 7.663976984183696
Pd 6.660862671710832 8.191375453471652 9.860758554180666
Pd 6.847993257443909 10.826788775015709 9.41766163096537
Pd 12.616370025619608 9.13224701388426 12.983144703510057
Pd 10.763702704848596 12.082796722591805 12.623192963523
Pd 10.95478299416882 10.23788830219989 14.68238618841769
Pd 9.000945811110235 9.340172565636736 9.569004661443676
Pd 13.024251635211327 10.739908405319044 8.541386311131417
Pd 8.635145474271388 12.778476762172277 8.929061820354988
