21
Energy = -84.75412073 eV
Pd 12.48419492207838 12.362965001620651 9.052698620006492
Pd 8.033423811669675 10.026303338857813 11.416683440663723
Pd 8.143018312493203 11.340977781817607 9.114277277095974
Pd 8.832894428461495 8.53438252276598 9.210776160394525
Pd 11.126997443837356 8.292170778264373 7.718136453858357
Pd 11.815011590908728 10.898396617637564 13.89878736688509
Pd 10.65560158675106 9.490097067145845 11.947621075857981
Pd 8.785470726965727 9.4000973347383 13.826844588514628
Pd 11.594183918063125 13.383872354880168 12.727721929265458
Pd 13.011711080900362 9.594875428917724 9.261096687673675
Pd 12.503033248942282 11.31736530655751 11.416371261123574
Pd 9.249445933833242 10.102131210137765 7.029928162569567
Pd 9.572438590740113 11.765320259430496 12.884124807705193
Pd 10.102885548247162 12.59242472153698 7.800137998683623
Pd 7.6914935059115725 12.644961250200048 11.324444091044409
Pd 8.885526227391612 7.5524428942494914 11.725808594619519
Pd 13.162488893786739 8.745681262070075 11.766262694856694
Pd 11.926008588061887 10.733070516941272 7.01424239305109
Pd 11.19745908137402 7.6242552223781574 10.257248325158754
Pd 10.578565666139317 10.427930746317651 9.495069317790351
Pd 10.216631507969678 12.869270653658248 10.472438130284424
