24
Energy = -98.34963135 eV
Pd 11.004069015216391 10.890839016554972 8.116806168952582
Pd 10.996656385115438 10.872457714480543 13.848427416696392
Pd 12.35874422191211 9.016363329233245 9.495981517042162
Pd 12.35258679199077 9.03786913870339 12.453697918882378
Pd 13.20266630268285 11.591054156672081 9.481622806518617
Pd 13.1695007609636 11.627975147603491 12.452421857051695
Pd 11.007200095808289 13.148232654769195 9.53957335764326
Pd 10.978041556773531 13.186164605995904 12.479894025262357
Pd 8.812296628658393 11.59411448084211 9.507419220182172
Pd 8.829477520308782 11.582570525557779 12.446084266399518
Pd 9.660108526929243 9.037560739667175 9.495289704497988
Pd 9.649146528425083 9.012283447130269 12.442043919194163
Pd 11.021706053452224 10.855432084090834 10.983309364534211
Pd 13.628001168796393 7.27380090701796 11.000881578989791
Pd 14.512949071068531 9.75774336782566 10.985507244570558
Pd 15.256426401175235 12.273433804486082 10.994399034818636
Pd 13.199357315088939 13.887303361872773 10.93707250061911
Pd 10.993402854228982 15.386479274469469 10.950704549129668
Pd 8.814378671027393 13.887445278402163 10.994379442405277
Pd 6.7539291429193264 12.26919203141402 10.993469978625628
Pd 7.479171808895264 9.737613523355936 10.964463006446932
Pd 8.366904240349527 7.272504006765619 10.947996361419646
Pd 10.998033481441754 7.178834548885852 10.959377835041595
Pd 12.500615790516276 15.21817607058032 13.082379051955666
