27
Energy = -111.4548757 eV
Pd 12.288983121014782 12.51029690497882 12.205548317445166
Pd 12.353730593262028 14.386197252790014 10.296305778152734
Pd 11.240125221080985 10.246466093780414 13.110872763973434
Pd 9.57104061838216 12.212875003715078 12.049976659526767
Pd 14.019588294054794 12.307339075542329 10.04284589957833
Pd 8.759591168866958 10.585850635053408 14.0317398634824
Pd 12.998285529371088 10.086891623499797 11.078793545383562
Pd 9.413429720944258 8.205508741800637 12.989112818040372
Pd 11.88922042809307 7.830087044466607 11.999424741353328
Pd 11.285724627599306 11.794367653873012 9.908863736625651
Pd 12.575182351198249 13.146380400664757 7.924144053037564
Pd 9.765735346836905 14.007705755313024 10.075001027995915
Pd 10.012290608523251 9.65592278695605 10.838522394944011
Pd 6.925880296841553 8.676321038029881 13.702454733350047
Pd 9.996371985195452 12.756046539147539 7.6638784697312525
Pd 8.482823947889846 11.696946822566277 9.640799495771384
Pd 7.57125141059262 10.29753539191945 11.697412428155515
Pd 13.005256780119495 10.526748485697592 8.29505968136038
Pd 11.907176534954315 8.306836743062075 9.379720560190007
Pd 9.79421364654918 7.020863537474061 10.519341240084474
Pd 7.933349477898543 11.015136067070602 7.189758718137911
Pd 7.301270861652372 7.625832322608935 11.327129387608846
Pd 10.252021294809657 10.151079043824835 8.009203015790337
Pd 7.933220272353322 9.11546995176343 9.176961184396285
Pd 11.972183151903831 8.63746791530242 6.752207293772301
Pd 9.809688454588958 7.548326991013673 7.863105526900914
Pd 7.704964524612461 6.462930547957888 9.024538738960397
