29
Energy = -120.25779778 eV
Pd 14.96555353091989 11.684863406560414 11.261757058269485
Pd 14.171871963896077 9.609312716685235 9.724049280464499
Pd 13.033850312755167 12.003319085564913 9.55220865762066
Pd 13.296031633196968 7.546998788582743 8.339521135584228
Pd 12.824825960524024 13.15395898522782 12.10510499035372
Pd 12.848763507358484 10.306214677273047 11.99690077461949
Pd 11.077835002341923 10.22973909803839 9.77719925251677
Pd 12.254353122743636 8.016724388931479 10.738290700096979
Pd 11.28456755089912 13.926668604804973 9.91455151823272
Pd 11.111802032281537 12.308157782489733 7.784042160032976
Pd 10.673427242600008 14.801851663515464 12.275658100906286
Pd 12.408837120563277 9.962447806827257 7.583490985584836
Pd 11.436129044111508 11.057353633797423 14.032331851111968
Pd 11.58741206227099 5.757617422492467 9.518073799051567
Pd 11.48803322301171 13.619609455218331 14.45879402201301
Pd 9.271838928077907 14.228629315253624 8.330142267869814
Pd 10.637209168046667 7.886395944018368 8.313576093340805
Pd 10.58652162842306 11.980709737997806 11.654983116644306
Pd 9.76413293529129 12.029916559339906 15.791947420353047
Pd 9.75947909787631 7.109358467476153 10.840590406574949
Pd 10.47858637664608 9.226821538915257 12.31477176442492
Pd 9.649388708569893 10.088513116881936 7.281729742513657
Pd 8.964825942237205 13.052783999190432 13.484385712888233
Pd 8.606786521512529 13.747172298283724 10.903162586425156
Pd 8.807372540410734 11.796369590221824 9.114168720961283
Pd 8.67071577488778 9.23661885592878 9.6955332328386
Pd 8.122715276960406 11.149678630076918 11.575952857045865
Pd 8.778454307411447 10.376374405081878 14.025135468826315
Pd 7.906934745054958 8.558566691445778 12.21815637912119
