20
Energy = -79.87842556 eV
Pd 7.265981143721562 9.265383868285678 5.324933555519697
Pd 5.417138605483728 10.133518336558867 7.009768000900756
Pd 10.774813457114062 10.611429160079773 8.380604172634595
Pd 8.094978261964405 10.75749159154764 7.3393736131049465
Pd 9.574890119696922 8.841864994252457 6.511613572187432
Pd 6.970592779420333 8.069162765494397 7.667424135463237
Pd 11.255192837275562 5.281393748109872 8.27310768574711
Pd 8.990267355798318 6.610189943319652 7.9565056986055565
Pd 6.220309223080916 12.295907594462356 8.360418410494624
Pd 11.403861451437448 7.904772017344518 8.008316685065978
Pd 9.06641591271937 9.041131969654824 9.372715131077987
Pd 10.142396812398239 6.550778876215176 10.312798088028815
Pd 6.351152044810826 9.88352020221438 9.472007908408901
Pd 11.662771717126354 8.893056058511352 10.464973424454676
Pd 8.410860148594258 11.791320318645464 9.687314593344013
Pd 7.4142158106705045 7.411729078091841 10.358624137026814
Pd 10.263651165859327 10.910087854863322 11.192251417198316
Pd 12.787011893590254 6.597390838641347 9.885441877018327
Pd 9.54481745885551 8.360008123405423 12.040655898363495
Pd 7.661743698140538 10.062924558060127 11.654213893113628
