26
Energy = -105.79542831 eV
Pd 9.746428609047998 13.769816045187973 10.198031450109944
Pd 11.65049391580516 15.103479656561863 11.676165746632915
Pd 12.391001725449517 13.239047706970412 10.03186116998898
Pd 14.856289023061025 12.204801884347898 10.608865991579727
Pd 10.781083143680695 12.784731158426872 12.414802116673194
Pd 8.479894752128011 11.797498220220328 11.63280613677863
Pd 10.533851156351256 11.186483423366212 9.794292725140023
Pd 8.011860814867003 12.060778118719675 9.090696786460638
Pd 13.420422925383587 13.307590460052547 12.664782389241157
Pd 14.723909873206475 10.999078553394316 13.055421435097294
Pd 13.189183210369782 10.983455593310437 8.93880902530042
Pd 9.285990558836218 11.624681140331688 14.227764398717307
Pd 12.086875368070242 11.244063924375238 14.141740586772638
Pd 10.21481328676977 9.281773323319506 14.863310398979914
Pd 6.4485921621754745 10.138816376507384 8.193777806033602
Pd 14.551990911610293 9.435739420730691 10.700315841832941
Pd 12.61563071909062 10.94214472415848 11.557790516232792
Pd 11.469724549098954 9.845163287310584 7.385910945483126
Pd 7.965065825590288 9.514388003953064 13.037750092390981
Pd 10.424261572754064 9.910025708141827 12.368130750565038
Pd 8.97990980473994 9.817508029239217 8.0143306368843
Pd 13.370493915481353 8.34218239850359 8.468019091375735
Pd 11.686896486749921 8.776449957435165 10.348486522366112
Pd 6.672785826971242 10.125609517601626 10.77032839672421
Pd 10.480938907801114 7.634341485010595 8.36690199429968
Pd 8.94351818331169 8.912259111224062 10.43081427674033
