27
Energy = -111.05714553 eV
Pd 10.739125725388197 15.5025722583305 11.266634172983176
Pd 12.559416032782872 15.411060395464194 9.255913481662343
Pd 9.959942882266423 15.135380287400244 8.706751873578376
Pd 13.03380399280682 14.302486237762492 11.594506468144251
Pd 10.820295539920783 13.464983425089782 13.13450028183867
Pd 13.95169212711127 13.218544024340753 13.6756553128
Pd 12.085868866544892 13.076768568395478 15.551234233873323
Pd 9.58093082479681 13.277413500868795 10.590396802058407
Pd 11.654920151897073 13.025677919681092 8.567279532951124
Pd 14.145631280561782 13.249437932069963 9.360192698748863
Pd 9.101956948316694 12.713470680886449 7.915332275497492
Pd 14.532953724632792 11.78046512788293 11.508559676942786
Pd 14.650736591499959 12.212751010324027 15.948126309432261
Pd 12.34092842484736 11.20117883301631 13.376119108527547
Pd 10.829596754406486 10.60871284323536 8.08429318882537
Pd 12.745110629377026 10.483358868807324 15.827148379384742
Pd 8.781117119721323 10.89135009676505 9.780524616447119
Pd 13.28633603630146 10.660350581086407 9.32968046281602
Pd 14.833895637334912 10.488648961871004 13.866418762778338
Pd 10.14799342200245 11.300939684061815 14.850992061720772
Pd 9.464423380405522 11.225685731072092 12.315677315271483
Pd 11.864860113023 12.07366986048016 10.998504730817743
Pd 10.979216155036292 9.651142298268375 10.523476471575345
Pd 13.358481904102398 9.339424843311809 11.719484024791486
Pd 10.823943415032051 8.784216967655924 15.598068380812482
Pd 13.150926286692293 8.387989248425189 14.217753918276072
Pd 10.856047312482364 9.077257906022744 13.034235282546168
