27
Energy = -111.51630005 eV
Pd 12.856321536596392 15.408211583383322 10.731922488504736
Pd 14.552302951600051 13.62812074265437 9.63026356160684
Pd 14.92249465517696 14.44225562619297 12.219749523860177
Pd 11.796862040943196 13.367512405193805 9.393818979999478
Pd 12.597649790539005 15.050394393609793 13.362884474784208
Pd 15.827516939061876 12.024159756721588 11.415358135684544
Pd 10.738741825240474 14.077931375442674 11.699853405609833
Pd 14.634164483378326 14.597690557839025 14.928101503427985
Pd 13.340197168369782 12.393682334475708 7.530777175570009
Pd 12.967577103598176 12.573979490625197 11.605866821707389
Pd 14.60387024257216 12.193002801557194 13.71461521935149
Pd 14.456797534956962 10.947685286151506 9.485024163926138
Pd 11.846488398663716 12.617533103573912 14.095233536402462
Pd 12.86534702184439 9.821374897096659 7.674218808443552
Pd 10.74527231846117 11.481834040043767 7.965510383898573
Pd 13.900645769489243 10.132660106867387 12.080370018189756
Pd 10.076946831225627 14.86969056196273 14.143192994212026
Pd 9.79787172605546 11.857435977391662 10.564261161903305
Pd 11.997191126594311 10.412280100899206 10.057923784961256
Pd 9.290284760481093 12.382777441402194 13.174868875275756
Pd 12.875330849917782 10.2820478501888 14.650678307376102
Pd 14.01674089185183 12.384121544624072 16.211177823829168
Pd 12.07421845204092 14.321080728537936 16.01564639960613
Pd 11.220128839852277 10.585609648721434 12.486297698001868
Pd 9.60385129377626 12.945597089587913 15.860596260413386
Pd 10.145727522201836 10.490660118659907 14.900509441105719
Pd 11.641953900546875 11.592357793358413 16.786877545801083
