28
Energy = -115.90865252 eV
Pd 7.591844167178757 11.730394451383424 13.720457859847702
Pd 9.539438782596843 9.988707418263413 13.888318907731895
Pd 11.50702916867443 8.215605635297084 14.131379013589234
Pd 9.870124857575554 7.9904210121613914 12.028398583969532
Pd 7.970347010842308 9.908863687902782 11.797213186528905
Pd 6.067419327816047 11.788197143910859 11.475692205149732
Pd 8.445979729275553 8.140780454540174 9.850903080732612
Pd 6.529969569268938 10.074166520270445 9.57166353401008
Pd 7.001218214286964 8.288824995259715 7.635460441337056
Pd 7.832577428903279 13.794161796725357 11.916179844638664
Pd 12.600130613286622 7.758498897798257 11.746992199893887
Pd 9.8561454171417 12.108155802525753 12.314568384067426
Pd 11.737944165770786 10.21608448855123 12.37588487015307
Pd 11.069800246856516 7.654487695446935 9.628024592589135
Pd 13.713225291634398 7.263022177754899 9.429393602571986
Pd 9.975525247510294 13.98156063622498 10.41915289288014
Pd 8.225912891981046 12.095512892094268 9.882708755000879
Pd 8.69413773712556 10.32808452488256 7.934946166481905
Pd 9.622153231731195 7.814564685971037 7.4059395295099035
Pd 10.183044818766852 10.199698443227168 10.185834070106658
Pd 13.043308530609899 9.789547177754379 10.089342808599897
Pd 12.172709875534391 7.332201399004157 7.1940895752489284
Pd 11.311082323870298 9.840932291648956 7.718007560862432
Pd 11.949700448208606 12.169086446681185 10.650433411771786
Pd 12.167974596466378 14.151260524268514 8.902661053762833
Pd 13.940740258979888 9.328963292754565 7.62710812404135
Pd 10.357603944453153 12.336873531227631 8.214572459820436
Pd 13.067491321288081 11.721526476125598 8.2456454552792
