22
Energy = -88.81561325 eV
Pd 13.659995044577098 11.446426333551006 10.195919575934544
Pd 10.50346259468302 11.210978766330287 6.864784108572348
Pd 12.245270434843526 9.909131856941615 8.341302306952779
Pd 13.821022091838152 8.47823418687983 9.894697699048164
Pd 12.039999448295127 12.62529661317259 8.55505168658765
Pd 12.507712718924303 7.12348756908652 12.042173658048291
Pd 12.668255655567151 9.741719196117915 11.781537069512872
Pd 9.359997840890827 12.385117658916382 8.875096095446398
Pd 11.633319566665724 12.797203649612767 11.439827140096408
Pd 10.710846313027778 14.568791107052768 9.69073164362531
Pd 9.485260106169033 9.29031767936391 8.339356299932193
Pd 11.458077485352478 11.151181186871128 13.520487324139651
Pd 11.203443764626961 7.976174896612193 9.939592644104716
Pd 10.687328439407763 10.671593084236191 10.298299951629078
Pd 9.973166827663617 13.309608816122113 13.49534670949794
Pd 8.85466100463999 13.447034843815967 11.125659889515264
Pd 7.661027197382595 10.639621372667756 9.688156555003006
Pd 10.496829619862284 8.707070364433788 12.936774895264351
Pd 9.928434807445878 6.464326094584207 11.698291054431746
Pd 6.83587878008621 11.9817244808036 11.68418598718444
Pd 8.744759151762828 8.682846656757002 10.9104767826141
Pd 9.138274957389955 11.011615777283783 12.365318090665019
