20
Energy = -80.5283175 eV
Pd 12.185578037871034 13.409988371448618 10.893643736165473
Pd 11.639767598940368 11.898343699883078 13.005320121028129
Pd 9.603909237721496 13.275789735071202 11.77732430403178
Pd 9.085184312713086 11.15858944682982 13.334411899392007
Pd 12.689362235060571 12.10645512844456 8.636175881609454
Pd 12.793584749806172 10.717923187624251 10.898955621524372
Pd 11.06173631659874 9.311268338352614 12.793226315244619
Pd 7.747157584325124 11.414518363397237 10.951803800906234
Pd 10.240965250768038 10.784322589709086 10.78082149168522
Pd 10.185655556819757 12.868358189050836 9.206160715902536
Pd 8.351200891072427 8.984870315074168 12.03135325825253
Pd 10.159755180760536 7.009998784478023 11.93477760530617
Pd 11.984335177926315 8.191652871620443 10.468931861837518
Pd 8.27618708425092 11.236508616373907 8.373684921008865
Pd 10.769783789890312 10.349476720890882 8.200126449530018
Pd 9.470078566929578 8.397971888948623 9.771363551889522
Pd 13.25462030471109 9.45549606233823 8.569846381094068
Pd 8.71607003420101 8.870006642261558 7.311434281161067
Pd 11.223941938823534 7.7277306735581535 7.908291881820385
Pd 6.9974347924107 9.247688874101996 9.565091920394241
