28
Energy = -115.47114871 eV
Pd 16.60091221047154 16.145896390743015 10.882258017780028
Pd 13.238613974519115 12.439695185287652 9.750263884172032
Pd 12.682188168324418 10.308204654183777 13.199926798012262
Pd 11.266879917664783 10.724176598017971 10.265177214733988
Pd 15.252172200768946 9.805433974884997 12.692752227079227
Pd 10.657823704665754 10.786553633485873 14.92682606855387
Pd 10.238932873524487 14.875141606767833 11.96227522416211
Pd 11.968383729263595 8.445887024688997 11.473209112692523
Pd 15.139758078341044 14.186576339921922 10.026100775074152
Pd 13.836884036917317 10.04261282501909 10.563982886932948
Pd 16.655155997604542 13.943623539632831 12.222850323634791
Pd 13.960109694328915 12.616714618715438 12.31970229770808
Pd 12.394638929996512 14.818570133024476 13.552386895551415
Pd 8.937036040332185 11.909671142014778 11.20191776588344
Pd 8.361966317266686 14.302910924896102 10.19775840857906
Pd 11.244899057468022 12.442366546479954 12.322355436947152
Pd 10.071298475784321 13.47670306370887 14.378613301433994
Pd 10.039300705622134 9.846079297114748 12.529736334298775
Pd 12.516305038272105 12.562345407589117 14.876654712891469
Pd 10.747873090416359 13.309324041719462 9.686316403645796
Pd 14.60293618335931 11.06521894131501 14.951708577556907
Pd 14.588900639026416 15.610275920948128 12.416740677429363
Pd 7.912809169476152 13.83266488861291 12.761513539891892
Pd 16.70163544693832 11.792172085720626 13.581629289913705
Pd 14.893828864645512 13.743574383245587 14.435903391011712
Pd 15.912737776394543 11.702335816977412 10.855455141571467
Pd 8.375106677009715 11.43118542607207 13.78390695074559
Pd 12.648750575899525 14.77451524982443 10.862403300501008
