24
Energy = -97.61304149 eV
Pd 10.971963651839863 12.976366722951504 7.851976120039583
Pd 13.47680231869311 13.038193847621223 8.651270316729876
Pd 11.25461413163381 8.165216902613741 7.604839865230704
Pd 12.154339563471954 10.689989580803683 8.433539134534753
Pd 9.661781107864483 10.669546885746172 7.46903929861828
Pd 10.24093065369702 9.362970178256319 9.665805301343223
Pd 8.981883713568317 12.44278834280179 9.417193944355791
Pd 11.607102774831397 12.672378672303942 10.572275634864958
Pd 13.913921059150473 11.0744921789638 10.362786641373313
Pd 9.564118261746486 6.119625510848143 7.990126262577208
Pd 12.762699181403676 8.678744419895176 10.074682051782402
Pd 8.366530692685759 8.394257000487787 7.6209409361127936
Pd 11.176504841880613 6.592479941514632 9.981016102737433
Pd 7.242494267096908 11.87688057648177 11.402370339919838
Pd 12.186214605200608 10.326203178438226 12.141514348980797
Pd 7.699592999253577 10.033243568889768 9.550052089609636
Pd 8.54078429026003 7.464423664149859 10.209978979221082
Pd 10.527528022102615 8.159675325920913 11.982502352428867
Pd 9.756145216123244 11.037391883283231 11.49960463756366
Pd 9.312110913545453 13.729372208346213 11.710141080820318
Pd 11.190234349082713 12.516161887864696 13.281289370541517
Pd 8.515237945723216 12.065634407679124 13.748725864572418
Pd 10.175848533644514 9.956274380411507 13.89450122536679
Pd 8.005902995602458 9.268422341541745 12.183085158372423
