24
Energy = -97.26843616 eV
Pd 8.220913058509574 12.073638258786545 10.206881208295156
Pd 10.571433152440292 13.546184814104867 13.610527973751871
Pd 10.266072294870392 10.340140209010091 13.740628354570651
Pd 11.044322039812235 8.79077620448414 11.634163138871129
Pd 10.75397313109737 11.73494866056363 11.618802112993258
Pd 13.401645833777598 12.843302282423304 9.782861064688202
Pd 14.100561205942226 9.26052513052525 8.773722224851687
Pd 9.235863251937635 14.234683197135688 11.378736484238358
Pd 13.276047292682069 12.372800571024852 12.562531605483128
Pd 12.215761546868894 11.021511469704928 8.278373004272838
Pd 15.388601027663528 13.715912158137307 13.742665483301796
Pd 12.86789506568107 9.778296945829865 13.315387533644891
Pd 12.022347767958271 11.861112229877504 14.922268840021086
Pd 12.873873975740564 10.436229025219664 10.750466141708902
Pd 11.837035474867589 14.412613379478602 11.337315161379179
Pd 8.399668662742075 12.20400043935279 12.969112068755413
Pd 14.439355024835967 14.606446293295804 11.444176971587684
Pd 8.554846265574625 9.842265852424061 11.704986783555903
Pd 11.677765632238417 8.36904638510398 9.0718320716037
Pd 9.990805614792869 10.286143004304883 9.510938157192825
Pd 12.907282675181618 14.745046778476153 13.772699847979972
Pd 13.806621277720591 13.498048427607513 15.867398650100743
Pd 14.62250298965364 11.296851802647577 14.60895795367721
Pd 10.676704750848927 12.99399063960274 9.357257422204857
