20
Energy = -81.11572268 eV
Pd 7.193604160235639 10.214355759910337 9.029669130838911
Pd 7.53812644145431 8.666552083817068 11.256047879564315
Pd 8.82157387127923 8.496011420329399 7.557708420725033
Pd 8.546309257395407 9.76382282820748 13.424754905822404
Pd 10.085747143368879 8.086169999545525 12.141762511219195
Pd 7.939607842765474 12.749837235975528 9.138480580572741
Pd 9.175140635422121 6.973196800102686 9.810813016201104
Pd 11.959926075102912 10.638908655161263 8.582237850836895
Pd 11.612521263855546 6.574314902608769 10.662150219801832
Pd 8.1042628364804 11.33251199937467 11.36759216921157
Pd 10.956421247547366 9.542714515605725 6.420069021156988
Pd 9.327818328986142 11.148426023998926 7.643036870536757
Pd 6.790809010542481 7.623816409093359 8.96194431104072
Pd 10.685233930163708 10.756417521431816 12.301014704570296
Pd 9.748027434405401 9.657412813346422 9.919646882255604
Pd 11.371999910460502 7.9707115236436445 8.461568755623677
Pd 11.103016432062436 12.999413674701763 7.787825958372197
Pd 12.301060297736985 9.090995312980045 10.81071129279714
Pd 10.300237235707595 12.337868908029069 10.142732535297352
Pd 12.704687799790282 11.673816809367763 10.87957570148664
