29
Energy = -119.27775325 eV
Pd 11.364241383640149 9.47338680036504 8.51773276952752
Pd 11.874478401943549 11.02587166324357 11.157486046415245
Pd 12.154966878916923 13.698254862328362 13.225761689463159
Pd 12.062347480172878 8.3970207087244 10.889950198720305
Pd 10.087795004293888 7.250260987082905 12.092432208726313
Pd 10.747862861001888 9.57673603167107 15.332453916282315
Pd 14.488008927802282 12.373995110734874 13.081498249957583
Pd 12.439761964695002 11.842379583760678 8.635586486475711
Pd 13.350809189471645 14.295703521523563 8.788060827920418
Pd 9.526110711533024 11.254093635816544 16.850868552964474
Pd 12.21124135781599 8.284483442099065 13.549468991354361
Pd 10.245962802260234 11.606275465994539 7.156553625538573
Pd 14.032172231039228 9.884244861748845 12.208235651563033
Pd 9.740690111713787 11.941367858251303 9.747705832065746
Pd 13.843233836650864 9.745758173612625 9.502931096733182
Pd 10.075597750895959 9.714865265404997 12.814611986312192
Pd 10.685239240407896 14.047189489229025 8.277902614090804
Pd 10.677917285075054 12.652020859782729 15.053947425559981
Pd 8.505335724645859 11.131444523225536 14.446118672338313
Pd 14.260713008101233 12.199328955798741 10.479556973297731
Pd 8.839502068291525 9.500942699287828 7.742075614328477
Pd 12.356253290235125 11.043642864315592 13.8942998271819
Pd 13.955662787988434 14.569608727042162 11.457303050778599
Pd 11.569699113642141 13.685326410173058 10.701334592992175
Pd 7.39069782635297 10.956633529827725 9.354105584578088
Pd 7.8943115786151905 10.871371005007852 11.905894860526544
Pd 12.336992034060444 13.251477224454884 6.448029053075438
Pd 9.925007292883203 12.4389631773236 12.453002325576994
Pd 9.461679815418222 9.305505554458556 10.335213719754808
