23
Energy = -93.38199027 eV
Pd 13.953619411601178 10.31421338351457 12.790121611050965
Pd 12.555724069653246 9.137633685317907 8.923586586724312
Pd 13.14263664070702 11.315304076497174 10.401748657450968
Pd 12.111656476602459 9.018098442142998 11.520501212706941
Pd 12.182889533159518 9.938033106348453 6.37403596723327
Pd 11.626583599562167 9.394811335451411 14.111492982325975
Pd 10.244083657777036 8.680488141615509 7.536175283907644
Pd 11.828517328445843 11.74752189220261 12.661504006236116
Pd 11.713481183326818 11.71162994795534 8.179788730333186
Pd 10.360913384692667 10.435609087385096 10.10678109900779
Pd 11.01957846057605 12.982511302526246 10.459874136794411
Pd 10.366176650389457 11.659342797930904 14.81488298119165
Pd 9.690649642503441 11.020082457924644 6.460065827306175
Pd 10.016295635706326 7.70597701019478 12.551984057997348
Pd 9.156905129214065 12.528592256740808 8.54018628825567
Pd 9.381493966557917 12.816931272132587 12.70105980590652
Pd 10.43987913260437 7.724749176964023 9.963681384825692
Pd 9.491419004566739 10.219747445269782 12.682366670282228
Pd 8.190289447828325 10.071255313793772 8.538954680295658
Pd 8.591419583525065 14.070488480586278 10.554154557504443
Pd 8.185502218739945 7.448559926272371 8.679612771124763
Pd 7.940220388976748 11.514389289227145 10.81159640331696
Pd 8.087757546552226 8.834271039652753 10.938760529611729
