28
Energy = -116.20261149 eV
Pd 15.338755286937037 11.270836175752969 9.627119095943149
Pd 12.815713582921894 11.249399114219298 8.859393277901818
Pd 13.654542692471345 13.10113341972369 10.637029681149205
Pd 13.938982837279397 10.463093505124524 11.666908288092062
Pd 11.673573796146647 8.97417453919433 8.114298566745783
Pd 14.053788687424031 8.959601552611558 9.41237699148541
Pd 11.572783723526605 14.206281956874898 11.89257530174537
Pd 13.121436280460557 12.480384759883444 13.260391667936423
Pd 11.261919927690458 13.414488145720254 9.299960804581916
Pd 12.423829862409375 6.842161415302109 9.42963158033482
Pd 10.278906440907793 11.23293596523204 8.085612943885291
Pd 11.872675592783814 8.868737448168433 10.98513064640544
Pd 11.993105218226232 10.082754494921687 13.464905005920523
Pd 11.495744710424576 11.488316833873688 11.175072859457515
Pd 8.65576265271036 13.295951728465646 8.58733384755929
Pd 9.892350761222074 7.73105919617751 9.706773578290646
Pd 10.402114360813309 12.33820842409487 13.506170058179539
Pd 9.118522902466562 8.917639855834754 7.4124783924484134
Pd 10.761216666184065 7.741552795249262 13.006898489535395
Pd 9.290501640810547 10.325036471234263 10.311368607561427
Pd 8.39254100086791 7.692840130287348 11.833921116565477
Pd 7.575545247901454 10.846338551198183 8.357710886996594
Pd 9.300235483497962 13.006545763738572 11.12863440157641
Pd 7.735061202317267 12.048344968405724 13.02761393654906
Pd 7.330963602363265 8.457480120170226 9.44116187229863
Pd 9.337700908371415 9.936195762601749 12.91369230662985
Pd 6.961408225878275 9.93381107962591 11.588066768321807
Pd 6.911271494961246 12.255650616287793 10.42872381587776
