21
Energy = -84.06558875 eV
Pd 9.991438284024195 7.004511683291933 8.955200082966414
Pd 6.437424576408581 8.506053323479634 11.689427003559555
Pd 6.867800549254119 11.13131849847147 11.785191720195963
Pd 11.985439852396974 11.704206321338049 12.245230077478036
Pd 11.264428356110335 10.064968760296237 6.507520631521438
Pd 13.21833314794771 12.5472828528276 10.014427837083378
Pd 10.827532561376248 9.353626917585636 12.819162264094963
Pd 9.531599836503705 11.010431877914728 11.15599354779001
Pd 10.701633102355704 13.315506070517857 10.534575751206495
Pd 9.029122996716268 8.292803970962739 11.012809815163797
Pd 13.347931902247842 9.340330732901927 12.26009840397993
Pd 11.68446236305281 7.661794209189247 10.865148198792852
Pd 8.312790835850986 9.551577537035959 13.25978210909962
Pd 8.120436184836427 13.316718348396062 11.081214678711317
Pd 7.340165241528072 9.864027065760583 9.588404080385965
Pd 11.207548788244054 11.929225352520026 8.342950531578225
Pd 9.741115192133362 9.594792007224404 8.604923622811425
Pd 12.02930905049327 10.152687351696523 10.155663779894786
Pd 8.651781774630978 12.064729570998654 8.847658622609496
Pd 12.15891519145769 8.328155243580253 8.263119029242466
Pd 13.472303286954448 10.669271569831006 7.95855803247896
