21
Energy = -84.42976824 eV
Pd 8.033944488421156 10.329513044572128 13.43905190688788
Pd 7.68676394257626 12.812886462014726 9.892456719178362
Pd 9.31046404172494 11.430409244106865 11.416195190856648
Pd 6.954740142006424 10.403326313561733 10.995163927799483
Pd 10.361156319749691 13.360604204995248 9.974675641833793
Pd 6.809797960842808 10.87089444909854 8.339221815958844
Pd 10.680687971666739 9.821392838429396 13.079472757766926
Pd 8.746242417414422 8.485995981056984 11.7367509582952
Pd 11.937581636354496 11.541350243138847 11.421765558342896
Pd 9.498212202400243 11.20712893541154 8.582301457155241
Pd 8.106310243034674 8.82065182433529 9.202936040388135
Pd 8.536743112386947 9.508725953415949 6.690918898168958
Pd 11.225618675540604 7.474059177514809 11.906279094099316
Pd 10.848262880761672 9.45651354739961 10.200376056710931
Pd 12.090031650104926 11.77562597917922 8.815217686567212
Pd 11.18051186419193 10.445760210886489 6.685520945834019
Pd 9.57556265682733 6.735549143998595 9.919751724478516
Pd 8.38540355968839 6.845270783444158 7.516460020307954
Pd 10.59414321577763 8.153383485222976 7.834977042532321
Pd 12.248820524784321 6.9292791263337605 9.546355800638642
Pd 12.846800009819077 9.303442586208606 8.501841531234634
