28
Energy = -115.35766969 eV
Pd 9.20012388045538 14.13096292155849 12.892711655099777
Pd 11.256978216283622 12.604276145517453 13.594104490915575
Pd 13.26166064070058 11.051628019368927 14.22028266097192
Pd 9.028658657841975 11.497709741859316 12.51429014106465
Pd 11.057168249554676 9.924389501678169 13.247222381828852
Pd 13.857859182129012 7.106476873972493 10.971919431519396
Pd 7.9366552254137135 13.297612194077905 10.725677166079612
Pd 8.913863362581743 8.928958999800175 12.07911068200479
Pd 11.315331478967908 7.828257895521323 11.509148069888077
Pd 10.688203406829311 13.028473109609893 10.979453138169958
Pd 7.628383921329126 10.69861655568111 10.449481948331107
Pd 12.791316896548338 11.514232361082893 11.638612847453244
Pd 8.927730258524113 6.4154372266186 11.423526602180761
Pd 13.477919034847119 9.091381575813822 12.5140947127877
Pd 9.417229130340644 12.325334785762836 8.784424689645006
Pd 7.261450589929726 8.093626116647728 10.064478725925564
Pd 10.400325675244432 10.23970093598823 10.330565692745154
Pd 6.717281880788867 12.420841681042324 8.557969213611193
Pd 12.092362481271216 11.879716055232288 9.113741728191298
Pd 6.124077474261958 9.826750753823818 8.426184365172347
Pd 9.700631979379496 7.6859934266778405 9.319369895009809
Pd 13.048442211519328 9.455496953566852 9.870120861499505
Pd 12.176309805092307 6.998330080111424 8.958841037026053
Pd 8.236741881918599 11.715667932103907 6.474464080352779
Pd 8.628861136683113 9.713008774037682 7.999318342227663
Pd 13.335983956473115 10.48929585716493 7.298217771050862
Pd 11.208519697004037 9.155094859576934 7.843850922699826
Pd 10.836740198587567 11.433112813196702 6.725705167284037
