24
Energy = -97.57342477 eV
Pd 9.413310963882674 10.19590216125541 13.023890007503134
Pd 10.175311809647239 11.062279436753434 10.641802429770573
Pd 10.12002227423098 13.144167326229129 12.173866125329722
Pd 11.802766021855327 11.286350195393103 13.204700857848565
Pd 7.193209410350364 9.224448674899516 12.223707475597582
Pd 13.69896482122956 10.09220312058835 11.595409403282783
Pd 7.672060519186322 11.947965884242551 12.41927497867287
Pd 11.581088743542248 8.79987890797349 12.402547591514347
Pd 9.315726114670394 7.539250025536192 13.104440222155375
Pd 8.239682690874014 13.422070040233063 10.32140527503894
Pd 12.50336565721165 12.224538939160583 10.815806041030152
Pd 10.762663118845765 13.757833559515452 9.593795832029253
Pd 8.97293950913065 12.108981941201804 8.205941313903171
Pd 11.437738464454945 6.210681721207182 12.458590833969442
Pd 11.770072563435676 11.453706771586731 8.41866205381316
Pd 10.853998856801113 13.497503922167189 6.998045547944381
Pd 7.7082335842184815 10.662756108302638 10.015289997038357
Pd 11.942060950017536 9.177770090461118 9.794043400124025
Pd 11.075518722050514 6.758628908036965 10.030076211279134
Pd 9.200471916563865 8.344914063928048 10.680504838107362
Pd 9.529867766350215 9.52067565943756 8.365156945113158
Pd 10.341156197374037 10.959045205950627 6.254911426141745
Pd 12.001242955036691 9.06203242493184 7.21571674942313
Pd 10.315636647186002 7.173525189154603 7.669524721515007
