23
Energy = -93.67714765 eV
Pd 7.126920021973502 10.278171895389256 9.840756526599872
Pd 6.564533036078225 9.198219662287434 12.374124236668413
Pd 7.7211024742764645 11.60466501372624 12.289755845030577
Pd 7.4099625456463345 7.524590207653886 10.466871303482971
Pd 9.197713042682631 12.06200680558126 10.261308026785917
Pd 8.54131556975396 11.104489690299236 7.735842465865419
Pd 8.935166442283263 8.52979219817325 8.690143734208043
Pd 8.623195569076492 9.78104851957087 14.0377306691834
Pd 9.11445566010392 9.481509711596576 11.306622271520116
Pd 10.512829470275445 11.269204692926682 12.567386353283066
Pd 8.439618937386783 7.308672107666302 12.925304432271647
Pd 10.881862458087568 10.518899109747164 8.684446550450003
Pd 10.099302489269544 9.091357265481578 6.49263343268223
Pd 10.403912714551481 13.171406996031418 8.311416689079623
Pd 10.80001737981291 11.657966722133729 6.1382957931157165
Pd 10.819848109953071 8.508918016887522 13.18504661784509
Pd 11.945174341626638 12.10010360109932 10.455619836992588
Pd 12.680183457623466 9.788351821659637 6.695843458203169
Pd 10.218341136737678 7.195466269144425 10.749253649862068
Pd 11.63880547530144 8.033059275764774 8.641973171030019
Pd 11.862291167776704 9.406692092076504 11.039484447842964
Pd 12.870293955622891 12.264197859877113 7.787745388560868
Pd 13.521926194821901 10.082408267575595 9.221026582760551
