21
Energy = -84.69744022 eV
Pd 13.342489875251411 9.759631067499217 12.204897777686586
Pd 8.67830053680805 12.234563774678117 7.993443229442419
Pd 9.40241908466979 12.7365940195968 10.559414227531711
Pd 13.007583741821367 12.66833602810794 12.453920762343412
Pd 13.940919935211467 11.09554627416997 14.389266686102387
Pd 10.329978297368902 12.87324068412822 13.05757918269526
Pd 10.910160091623213 8.592584685652257 12.358695569246683
Pd 10.562996967788973 8.916542889683653 9.699783152034746
Pd 11.076049496880023 11.22554213952329 8.413228881585985
Pd 11.435358506264867 14.417153906138639 11.163533843693639
Pd 8.52461822672181 8.243571911542881 11.323892361641715
Pd 10.792700263182544 13.8694900959508 8.63568222386025
Pd 8.359373840691752 10.398449778767022 9.853253620351783
Pd 12.90913885575287 12.653497223408353 9.821775361430028
Pd 11.285349222948692 11.07263439231711 11.167308035647897
Pd 13.177719129550795 10.041507120162166 9.530532363335354
Pd 12.717663506543234 7.698511215866879 10.646532838877144
Pd 9.043947102130751 10.593956684267424 12.47378833241677
Pd 12.195020033120436 12.91685194337106 14.968024811752803
Pd 11.35733470740669 10.597209624399422 14.011045640384172
Pd 9.212434934529114 9.649223039811135 7.494456513837465
