22
Energy = -89.02768725 eV
Pd 8.927954502600935 7.86710583519739 11.463987949297257
Pd 11.780336509464531 10.43033656440087 14.148389249129956
Pd 9.387011188236372 9.435922598751919 13.546870885723129
Pd 11.424455141954983 8.87131138134821 11.957193338673289
Pd 11.050920776414829 7.400502200540671 9.801300159402267
Pd 8.615690536035972 6.528557013799213 9.207364400433022
Pd 10.599581280206955 5.986427835596058 7.531210935507286
Pd 12.644904264443086 9.617846115634066 9.63279339976371
Pd 12.87961480141201 11.085696886071911 11.82187241665592
Pd 7.840045046639233 10.41357452146708 11.64311921164783
Pd 10.284667089823794 11.525785115279369 12.160265832669237
Pd 12.105314025490115 8.167662990903088 7.4931220090722634
Pd 9.917845735381565 9.927444774052343 9.90887018039372
Pd 8.849783482428721 12.47286951722577 10.157009911881786
Pd 9.472664363433777 8.453510392680474 7.602313043661436
Pd 7.421262033635055 8.881682745104518 9.361691248851466
Pd 6.518246801293139 11.359306434390351 9.561368604985226
Pd 11.540074624409092 12.15866649526271 9.815896990448474
Pd 11.131126237460457 10.62436408123108 7.533417475477651
Pd 7.388849240709128 13.372276342152194 8.055650892349284
Pd 8.42606909510316 10.874257112022967 7.786091854297882
Pd 10.011534916027584 13.000350241167066 7.830153815544705
