24
Energy = -97.83257974 eV
Pd 10.25368710084024 7.618820658643348 5.692932526621079
Pd 8.770669563303924 6.868349890639124 7.640880698385775
Pd 6.925349757543884 8.773801453719047 7.432406873767998
Pd 9.508577461118916 9.504345130163168 7.403799483131547
Pd 10.716184402921202 7.600297865848875 9.229290436988485
Pd 12.01494354132457 8.682556250105417 7.226510575792673
Pd 5.730234521798208 9.413501895070317 9.779195212515145
Pd 8.254931697410877 8.510908951626325 9.74156615399268
Pd 7.618765909854536 10.972160114972992 8.744767275435338
Pd 9.7128027212273 7.5523303120499055 11.75006740185044
Pd 7.051566777572591 8.45540376911564 12.028235342211742
Pd 12.242348680467385 6.942111692224794 11.2903045389544
Pd 12.397183040615953 11.100614459694706 8.209350680312745
Pd 6.85913114902594 11.156987526334834 11.373951690657064
Pd 10.52196341886076 10.314628557714894 9.856413952535076
Pd 9.84862408889621 12.112100232930544 7.892401436974667
Pd 13.021454860225454 8.914893365350089 9.681018368090582
Pd 11.693251535256653 9.396827736948186 12.065443724249647
Pd 8.983491120934053 12.526705616902763 10.40352307703114
Pd 9.092066560394903 10.081551588469946 12.144731965510296
Pd 13.160689953453064 11.302621825787945 10.836662660916419
Pd 10.977925082873329 11.979338869564945 12.20234606961427
Pd 11.496134163198672 13.103015322252515 9.767900147296318
Pd 8.47917463804794 12.507276172719333 12.978529976171439
