25
Energy = -102.51376452 eV
Pd 7.329364593925258 9.308964445041019 7.0606283229227245
Pd 8.961050952776207 11.110479542233154 8.205625905406809
Pd 9.90505732393823 8.878412498296022 6.878484247988756
Pd 6.702254800932132 10.299514776564996 9.420482644787494
Pd 10.735670938130633 12.635668061247136 9.510496291728371
Pd 11.534702912336385 10.666475133384244 7.814274817241272
Pd 8.29069674116081 12.152108933445136 10.621091351718801
Pd 6.124395133866916 11.18949668703795 11.852412693683503
Pd 12.437342675329003 8.311672349720123 6.77868429494488
Pd 14.065189109584741 9.837670854534387 8.121815689581728
Pd 13.34217195587346 12.382292330233204 8.663492075486817
Pd 8.629585778709025 8.353939594197131 9.12768009223244
Pd 11.450620428949772 8.139493167915798 9.193710752871144
Pd 8.321045011468762 11.345328879617828 13.30637775245965
Pd 10.132259153490773 10.14489837091606 10.488212190762951
Pd 7.888153820657734 9.274966939145632 11.592096152795634
Pd 12.887784142477466 12.85132628283022 11.228071205473134
Pd 12.745436588810708 10.356455006639584 10.29707599911817
Pd 9.820674254816353 7.420730794071808 11.268165337089615
Pd 10.48939906381299 12.254506670258152 12.138636771300584
Pd 12.284086508065048 8.26327696006734 11.804828583202363
Pd 12.407478549339473 13.160337821446054 13.799363029713358
Pd 10.198198487311833 9.377355636479397 13.049877578411289
Pd 12.58212011212916 10.66736225377972 12.939544724377896
Pd 10.561790380582524 11.431234532289942 14.676749306233333
