28
Energy = -115.72765033 eV
Pd 9.988277283588536 13.19664781831877 13.613187206338674
Pd 8.587770020688799 10.96868499051762 13.748570583273112
Pd 8.862486022446804 12.15112477522047 11.371945845672014
Pd 11.109719738456706 11.027729940629579 12.681481709806555
Pd 11.297270643143746 13.441508111841069 11.337998009334896
Pd 7.262705109992353 8.683405612564922 13.886180515520666
Pd 7.288834276356631 9.970469047667631 11.57885602753658
Pd 7.787398451466023 11.119933509303117 9.19436375996026
Pd 10.117354522085174 12.532305469843381 9.120419997266392
Pd 12.201288196889562 11.161726508897601 10.301988387354378
Pd 12.638465749872243 13.591921036574938 9.05953370490798
Pd 9.702527145227627 8.732760843434864 12.819036626304651
Pd 9.864453462350816 9.79522426561015 10.350574102715685
Pd 7.736993315427752 7.192969344624064 11.762313430449371
Pd 7.657062750725965 8.452271513272617 9.484018665612174
Pd 8.84090738466368 11.950179856381427 6.830327167382021
Pd 12.121902758628007 8.763848819076141 11.708826757277036
Pd 11.540116301141596 12.435658126431914 6.891017376543562
Pd 14.666550922998065 12.058574459743271 9.568075733555204
Pd 8.217481741107319 5.840854468744897 9.559002300075761
Pd 8.025592959636056 9.438953789118374 7.066655452862374
Pd 10.498753313172296 10.110437700843221 7.7441329077546115
Pd 10.258803168076447 7.148814278798389 10.662364260090632
Pd 13.136702296557248 10.628654233227566 7.951934037490966
Pd 14.23285144116012 9.459951466630605 10.078555250562733
Pd 7.2835162754639615 6.939581515350704 7.284134000486404
Pd 9.76923961255406 7.531904692595281 8.012257877755934
Pd 12.036335459871768 8.403519674814428 9.047407630403612
