27
Energy = -112.077811 eV
Pd 12.6603165260653 8.018614525590362 10.953935566870086
Pd 11.440362070178189 9.852845714758232 12.396456494471956
Pd 12.807937454884216 6.7800420383418 8.580016563062848
Pd 10.8004200962965 9.398448092758345 9.678252534221173
Pd 10.476182863485707 6.800410199607461 9.908917669035006
Pd 10.303931033990546 7.499093180449309 12.4625940621799
Pd 10.407244068567987 11.695837506500473 13.966022334309624
Pd 8.500048009763264 8.584200636794415 10.827934985904506
Pd 13.23292466136263 9.435582472794104 8.619064124008922
Pd 13.51387137726484 10.621858360065529 10.94312834215771
Pd 12.981735691414698 8.288906611841623 6.305350360534123
Pd 10.660081848774578 7.820033395953666 7.399150476769932
Pd 8.843344749890829 9.628543800844838 13.23900451446134
Pd 8.281232005003767 7.416229863190337 8.484296834762487
Pd 11.751128950221585 12.456619060618348 11.71973047554106
Pd 11.834748613434655 11.733581883606961 9.144655928996807
Pd 9.42649001025874 11.300851269849947 11.2435455797292
Pd 11.429635064515889 10.374928458631045 6.817401631841673
Pd 8.997294812045192 9.893044035785989 7.840889411431685
Pd 7.809687612083758 12.120165074902566 13.509992921182462
Pd 6.871864280442772 10.710482976331878 11.43815532763871
Pd 9.644136155806907 13.84222245159268 12.547724397686313
Pd 6.659361306508904 9.450184817196204 9.089031139899694
Pd 9.873284589688886 13.503552475412928 9.890781299762386
Pd 7.842391527104085 11.839149919222804 9.144757014615017
Pd 9.86876200609133 12.379703700292774 7.467816489871972
Pd 7.425571554633419 13.406647621087801 11.171817550506457
