21
Energy = -84.00939375 eV
Pd 7.025503600056891 8.682321326312826 9.800139284304457
Pd 7.067232276786805 10.940024011871401 11.133643296426909
Pd 7.399716209485066 8.555282085439597 12.428308703640532
Pd 8.836773271144459 12.742448698981526 12.23318832606712
Pd 9.162550163403546 10.155765236639443 9.250741850684488
Pd 8.507630264748157 7.761913083086855 7.857733164115498
Pd 8.348790786425134 12.653468110480416 9.62394616627943
Pd 7.602249467457656 10.891847552096417 13.766866999300133
Pd 9.794535275014502 9.825799412858592 6.704068960925647
Pd 9.99590577261788 12.34320680572213 7.625185810704568
Pd 9.863964399028227 5.803084626236592 9.081172933672736
Pd 9.367865171350521 7.800382722986529 10.701975210478269
Pd 9.466000893848165 10.176133721684264 12.05668805461589
Pd 11.867650652052657 10.586395800966713 8.220923271507663
Pd 12.288403307362243 13.200752041755424 8.686930988121132
Pd 10.784249527871467 12.034431125942305 10.490401881812234
Pd 11.055349087507878 8.111337044250941 8.35718402699163
Pd 11.553569549532611 9.443205764530985 10.818146124077197
Pd 11.914785087629337 6.830782153247554 10.455349393326818
Pd 13.394537422671362 11.280747097234096 10.206790029138105
Pd 13.513346237270799 8.707335020543509 9.241126960392409
