27
Energy = -110.34402766 eV
Pd 14.779020976664368 8.140057808936486 9.960417473822702
Pd 13.951697180474598 10.482732033779623 9.298381489274876
Pd 12.446121548949767 11.430730836451001 7.242554573323701
Pd 12.388677446476212 8.20184519471638 8.865496071480452
Pd 9.85484036502661 8.426401618358662 8.194485634352802
Pd 11.189637874109724 10.521019138632532 9.399934478252483
Pd 13.059982679702186 12.973952856184459 9.306092769611732
Pd 12.847936994677376 8.926626628898713 11.472682607914763
Pd 9.899054434510067 10.775393634152508 6.977573716480033
Pd 7.602656366503071 9.514539146836517 7.422502277458881
Pd 10.47818926155077 7.951946765695129 10.671306359377457
Pd 12.85126292967888 11.522986942976411 11.522900902504967
Pd 13.455802972309364 8.726102309758934 13.943367111952687
Pd 10.32937907384254 10.446066999350576 11.86803456638007
Pd 10.499195291932502 12.933180754631195 8.631555010378259
Pd 10.927067339207694 8.285397571773858 13.330159930716022
Pd 11.892868396303731 10.783874325112551 13.933233994597561
Pd 7.981925292137573 11.890830205435575 8.417950418807191
Pd 11.29770217602554 13.596626981858288 11.182173738919085
Pd 8.477047265053116 8.22760739951916 12.262519558239164
Pd 8.383441964296225 9.805155945763284 10.036880435578729
Pd 8.95400798119525 12.553582186085727 10.772012167895108
Pd 12.475829335373376 13.30085309496072 13.516689183887694
Pd 6.5014467859710745 11.701700259969822 10.632329082448388
Pd 9.910027697617362 12.621195372292421 13.343580361361406
Pd 7.3724878517514965 13.23058838393246 12.740167775133195
Pd 7.846394213858378 10.682707299136164 12.708720005050093
