29
Energy = -120.89742842 eV
Pd 11.977985177379946 13.96247163130115 7.418406283007159
Pd 11.531394096502034 11.393500316233192 7.083575020727506
Pd 9.46771029231458 13.158416010654488 7.718973984256479
Pd 10.958751911677272 8.77184343668019 7.2437063337714
Pd 13.322342309368722 12.276580142601961 8.962347255037226
Pd 11.089830235076969 13.60175301535022 9.835616964870729
Pd 12.569483561288422 9.698405718421128 9.04303695730474
Pd 8.942801216485629 10.547451938489118 7.020565472000265
Pd 10.197334232852 10.982279616678385 9.319435312656916
Pd 11.207439478858397 7.464730571667575 9.686204596618472
Pd 7.104350057393919 12.102743323190385 8.166261669537974
Pd 14.493262152532916 10.568924029648226 10.653052286757262
Pd 12.05758284632841 11.513160325879328 11.191868732895452
Pd 8.865963980565898 8.429901156706885 8.74067693034098
Pd 6.602092640917458 9.516416324310974 7.735577693473552
Pd 8.53503316447517 12.74602308463633 10.332765735603832
Pd 10.008189583733047 9.267857571933353 11.243261720396452
Pd 10.258392731851243 13.078034389944754 12.314946595148122
Pd 8.779619091468843 6.836359840671723 10.893108483730087
Pd 12.652168613458326 8.76220415206333 11.578360841894497
Pd 6.528132120263587 7.810883939515697 9.834385257502488
Pd 11.059672010712125 10.757551973374758 13.450876161550278
Pd 10.965291131608089 6.892204336728545 12.3546061985308
Pd 7.467144697926659 10.318847991197282 10.13693703468528
Pd 8.553853442634503 11.058302519204602 12.488855760123247
Pd 13.685204828124515 10.53682644329071 13.207693749063342
Pd 12.152385485865768 8.479362635865463 14.206183623302465
Pd 7.3686764468274415 8.661289925081139 12.22155366752336
Pd 9.483658567730027 8.656731461671733 13.784275386619603
