23
Energy = -92.8659219 eV
Pd 14.224723617727694 9.43684936990118 12.260304977471115
Pd 13.127254915368015 8.914380217941385 9.947502062262842
Pd 13.049653933591303 11.514913178711105 10.919969380267538
Pd 12.895143752018512 11.281191131032905 13.531389137992983
Pd 12.691091842817062 10.94924424155685 8.343500931419593
Pd 11.548211892770926 9.322065200501841 12.355678407431894
Pd 11.124100946497443 12.899951714689244 9.616405577976806
Pd 10.922880178381806 7.706552642931789 10.272272993912217
Pd 10.732903626210275 12.011278192966186 12.166986528803939
Pd 10.660969989203494 12.074165385109419 7.090247683920846
Pd 10.642455777356673 10.351495554035523 9.955456963221472
Pd 9.93807544511926 6.87683116667211 7.974145612174478
Pd 8.946528254938462 13.76407747527237 8.34569851701167
Pd 9.478068687005536 7.588882599794188 12.500903661758477
Pd 8.611088992178605 12.517543467001216 10.734071519343791
Pd 10.513222210931659 9.405541471607243 7.5472570646750805
Pd 8.686246008298841 6.262380543017792 10.339309130225143
Pd 8.893028842327567 10.061850758133268 11.873638267283138
Pd 8.561463837074031 11.126685468990582 8.33558890931405
Pd 7.045708139622536 8.158429085885523 11.471392549303815
Pd 6.55209538538252 12.756954969534673 8.9852065108939
Pd 8.471888999507975 8.670433968738404 9.260623807990578
Pd 6.797130758578577 10.499755278975979 10.250467660074333
