22
Energy = -87.96120078 eV
Pd 7.55275614355997 12.703593375203154 12.426378831462928
Pd 8.791537499713538 12.628997491733795 14.646186469719868
Pd 9.783627570323482 9.923774443517276 10.769417590874236
Pd 9.533716087508138 12.619723879963201 10.822047533217429
Pd 8.903501177182314 10.457483637550947 13.16038997779636
Pd 7.2667210540425975 10.550869514145553 10.907139175156242
Pd 12.920707707143523 11.208502701141986 7.2373152296029
Pd 13.340405533295646 12.002464879487496 13.361394969261816
Pd 12.083637509780626 11.60646746274711 10.969660518254218
Pd 9.931127934908757 8.043560564328075 12.57928265823974
Pd 15.75394111278355 10.976734997210736 13.335932551677232
Pd 7.127600248037832 12.912988569591239 9.80415885831202
Pd 11.13329401274202 9.813716784706525 8.594019062294922
Pd 11.518795116152988 10.065541832099811 13.092776682023496
Pd 14.848283169281471 11.945225911811113 11.121308070404828
Pd 13.664427318301508 10.118441888767464 9.493509569325687
Pd 10.839225548051012 12.637424588402181 13.12246865250365
Pd 13.500512106106697 12.943570575110929 9.128867736147317
Pd 13.947639928750274 9.593400583950071 12.117911245069562
Pd 11.95959595299115 8.448132635712646 10.859309733543055
Pd 8.678652270342425 11.111368674450896 8.62675074557957
Pd 10.957970667758277 12.424299713497271 8.64827380711576
