21
Energy = -84.60576836 eV
Pd 12.21860839344865 9.16538092417247 7.141739724916075
Pd 11.953758793041555 9.222479578276948 9.772792176514018
Pd 12.135988006235353 9.830082063004717 12.26202456149448
Pd 11.85448704691933 6.793963810482967 8.723362114464184
Pd 10.952905253948984 11.15085592351854 8.375327410075489
Pd 10.259423584609552 11.588359197206458 11.784430407223589
Pd 11.998080881705887 7.1249527136794875 11.407253171042527
Pd 9.980881326688747 10.164543685333246 5.95566718454697
Pd 9.864261006252821 8.319221987769263 7.914995133289314
Pd 9.98064712342114 8.453629196055038 12.457180757800451
Pd 7.794940577848445 12.668926008240904 11.782992794970365
Pd 9.420576807988342 9.742783501557287 10.2086096519743
Pd 9.309348014530936 12.545626394567202 6.854012441602798
Pd 8.191246051581729 10.288766115222996 12.801520675618683
Pd 8.953824800496431 12.4447693998978 9.475797730977614
Pd 7.520044579774175 7.993163537435973 11.563137212537686
Pd 7.796489466902107 8.484365705976616 6.324852086745033
Pd 9.605999475309952 6.980190477502319 10.185641774098153
Pd 8.04753045014649 10.525645744644027 7.916095441379326
Pd 7.383498686711152 8.173642097818087 8.946283301055848
Pd 6.951772494934435 10.499046135829197 10.401737481556353
