20
Energy = -80.16932774 eV
Pd 7.4697718690024875 8.723385350154699 8.459076539717413
Pd 5.962747277480666 9.937356870657926 10.33494972465259
Pd 9.732785575640706 9.741527955484157 7.431849415148589
Pd 9.689876864071671 7.501107875428236 9.091414847026138
Pd 8.119197660359347 11.136056926123246 9.340345772276432
Pd 8.19294392502034 8.753830830952 11.032662725615326
Pd 7.699390503254721 11.2179974349266 11.950916867359322
Pd 11.974410914948969 6.44363294234914 9.729772972015532
Pd 8.605551426626135 12.04553061085942 6.917714940925129
Pd 10.536196954075034 7.650919267775874 11.688686625821537
Pd 8.700639601836814 13.688271535870326 9.204752897843244
Pd 9.961792691207826 12.418222454503892 11.11974438638684
Pd 12.00177464002635 8.572825935717992 8.067840385065791
Pd 12.271133765981899 9.052534096941889 13.206741613062714
Pd 10.684405379545073 12.126192263357243 8.485424974120287
Pd 12.786862020429334 8.765406206632488 10.650919670745898
Pd 10.473013385568827 9.91291378742487 10.039631644904073
Pd 12.88240996160739 10.926464703664017 9.011073651207642
Pd 9.96970296840512 10.143151979057645 12.668183309311353
Pd 12.278487719026584 11.255955266738289 11.610079012827441
