29
Energy = -119.57309359 eV
Pd 10.476478978794225 10.47117514 8.358229225543095
Pd 11.835656124894703 12.838203794385795 11.894059624785202
Pd 10.476478978794225 10.47117514 12.584121054456903
Pd 7.741504953319072 10.47117514 11.89399238168681
Pd 7.438614916592838 12.922738347169076 10.47117514
Pd 9.866815921775476 14.319456469941892 10.47117514
Pd 9.120539628657612 12.802733110354197 12.872099937130193
Pd 11.301422032361309 9.018628720813158 6.456535911588419
Pd 13.170353635352733 10.47117514 8.069380667100546
Pd 11.835656124894703 8.104146485614214 9.0482906552148
Pd 9.120539628657612 8.139617169645799 8.070250342869807
Pd 8.798345671962274 10.47117514 6.457975587486141
Pd 11.301422032361309 11.923721559186989 6.456535911588419
Pd 11.835656124894703 12.838203794385795 9.0482906552148
Pd 11.990593283469613 10.47117514 10.47117514
Pd 9.716305468235111 9.164345546203407 10.47117514
Pd 7.741504953319072 10.47117514 9.048357898313196
Pd 9.120539628657612 12.802733110354197 8.070250342869807
Pd 9.716305468235111 11.778004733796585 10.47117514
Pd 9.120539628657612 8.139617169645799 12.872099937130193
Pd 11.835656124894703 8.104146485614214 11.894059624785202
Pd 7.438614916592838 8.019611932830925 10.47117514
Pd 9.866815921775476 6.622893810058106 10.47117514
Pd 14.113087770405851 11.883671735362432 10.47117514
Pd 14.113087770405851 9.058678544637717 10.47117514
Pd 13.170353635352733 10.47117514 12.872969612899452
Pd 11.301422032361309 11.923721559186989 14.485814368411576
Pd 11.301422032361309 9.018628720813158 14.485814368411576
Pd 8.798345671962274 10.47117514 14.48437469251386
