26
Energy = -107.03501371 eV
Pd 6.998160548761506 12.945584321152728 11.552435197051873
Pd 8.389331298780208 10.83821653748185 12.194336495919684
Pd 6.691822723952282 10.730601978727549 10.064764770132472
Pd 9.74209077979061 8.677551254842536 12.881733924352334
Pd 11.946795870950327 9.299755766685426 14.291015821920782
Pd 7.85063505122074 8.436024870921766 10.976600261804718
Pd 9.559445598645233 13.273178142858445 12.287351063017246
Pd 6.516286150454926 8.533231993620126 8.633979424442478
Pd 12.185711503777496 13.25556725367047 13.022542140675306
Pd 8.866693273240525 12.306456496256418 9.778202430017485
Pd 13.583265562372475 10.670817024552978 12.754135593960005
Pd 11.034323507968038 11.009791955547838 12.474788270923451
Pd 8.420983122556802 10.337276074061412 8.061511010525559
Pd 8.036207309023244 8.3437750583407 6.361981169424676
Pd 9.083348973339792 7.698277761091954 8.65027560358582
Pd 10.180565055592616 6.972753356866338 10.916740420743405
Pd 10.035660792077417 9.823960656017897 10.266363161430693
Pd 12.250776412254277 8.477649925850958 11.7727858277968
Pd 10.83612826528499 11.437196000665027 8.22557215148973
Pd 11.37646714173442 12.846557074064833 10.447306363142143
Pd 13.98726771367734 12.687956523024292 11.113779018088229
Pd 10.518841861147832 9.130226731834911 6.857200074094775
Pd 12.838073298989412 10.469077371391307 10.156506722729091
Pd 11.745370810471735 8.216681923003794 9.114000212633657
Pd 12.953839406528386 9.973364829287602 7.5286878370750685
Pd 13.24428317067513 12.521946873792372 8.531996140209936
