20
Energy = -80.05642626 eV
Pd 10.66796914065499 9.135805311920944 6.9512866762079435
Pd 12.781530882300778 9.47302030966573 8.515595131495665
Pd 12.395307399121567 12.11503945548179 8.543323783483448
Pd 9.139304746098258 11.265549240334739 7.243017944597829
Pd 9.968889258201086 13.241977698549832 8.868745755834615
Pd 8.432985751336068 6.810865141731868 9.921087458367618
Pd 8.329113930786056 8.992598139598053 8.390204651405364
Pd 8.015584415714363 11.437425126226502 9.665324367021741
Pd 10.704445961912338 7.931121514408279 9.328538009816075
Pd 13.455551624876417 10.807768539829587 10.689456733148113
Pd 8.62771047470787 9.17825711713684 11.019464754401708
Pd 10.48402111655268 10.560468430971122 9.465105417879784
Pd 12.839179808412313 8.151110747522756 10.84238292950369
Pd 11.406454812241028 12.534347891418067 11.03479486729911
Pd 10.398505547875402 7.401380893423072 11.931110650104108
Pd 7.660203796968736 11.227042270465622 12.339445008434575
Pd 11.27971518568231 9.96273806858474 11.928197523492804
Pd 8.874346833997379 13.328621626785548 11.328865118902506
Pd 9.259424566362043 9.32016790156021 13.5242365777142
Pd 10.054001148158068 11.898940976343775 13.24406304284816
