29
Energy = -120.02606974 eV
Pd 10.631841138399828 8.826373074168064 8.535315367397887
Pd 11.715936637806818 8.742275141320444 10.960685871154428
Pd 8.3611656596936 8.063757036006427 9.630004671252397
Pd 9.538833338570878 10.352159968376466 10.444523505213152
Pd 14.829624115928523 12.360878486232494 12.641311441414095
Pd 12.138787602701806 12.338846729510852 8.366485185380856
Pd 8.099839404585927 8.645619315422312 12.230222819109846
Pd 12.509215859017118 8.671871152318593 13.474229406094551
Pd 10.371770899828574 7.273900694329407 12.6793299236349
Pd 6.602670635823409 9.863367258342105 10.430882125706686
Pd 13.989621082694333 10.042341316206638 11.63838758179473
Pd 14.846108105043983 14.589500120029548 11.252017056277243
Pd 10.206292828444818 12.678561369773009 12.747461129800229
Pd 8.122740197667273 13.829244938424939 11.565356452783284
Pd 12.479684338350614 11.346812522878915 13.54752786009138
Pd 12.497526160533091 14.334747815760698 10.013127100359416
Pd 10.234571989003292 10.018291268531895 13.081101600080896
Pd 12.629528774741306 13.814490675889777 12.559933020306683
Pd 8.317725220993122 6.139008334346863 11.468193800167276
Pd 10.480821923038214 15.11866220564849 11.641103224530205
Pd 7.9348560702373 11.279956712709042 12.295190715149497
Pd 7.645706423079926 12.080799189362928 9.552297127461454
Pd 10.069358906866727 13.200145226106887 9.876581068735184
Pd 11.880824680982695 11.562089371344145 10.954251119773884
Pd 14.301170855497476 12.278083260479296 10.004792618616026
Pd 9.668698785698801 11.312455943616506 7.966479350270647
Pd 10.509849485449008 6.566185813367989 10.05947162675726
Pd 13.154641743877091 9.96363553376258 9.087899323583933
Pd 11.837925400845547 10.308161864558235 6.764204689356026
