22
Energy = -88.91383853 eV
Pd 10.447608668072808 12.803923272217235 12.603499582226666
Pd 12.370752578200594 11.38472101977877 9.06177676493581
Pd 11.128806337848511 7.392482353790351 9.767479353637214
Pd 13.216190123127904 9.059547554832726 9.993995507205538
Pd 7.487928424380401 9.464923920326749 9.679278100771777
Pd 9.297530831914965 8.248461589131411 7.926131640669732
Pd 12.534262389082077 13.360935052502622 10.936429820086525
Pd 10.075743614279201 11.130630219593943 7.6355631006844655
Pd 7.672685782888319 10.197449943595704 7.159105649060399
Pd 7.867918999855781 11.973222674112522 9.103050121975391
Pd 8.175234231205497 13.479249720541594 11.237769341198671
Pd 7.204307408529502 8.754923493946585 12.151506177882808
Pd 12.273608305782714 7.922505498753535 12.116557952969522
Pd 8.556155692988106 7.150006566288499 10.377282486384008
Pd 14.110533916382753 11.233572486883283 11.159062686278533
Pd 11.820828242763472 9.129320137182471 7.690615737309836
Pd 11.64060086927525 10.532507243711537 11.901647932780136
Pd 10.134232766804713 9.810894626660199 9.883877062689686
Pd 12.953429197371362 12.349799150490647 13.34098266231788
Pd 9.784875301128599 8.570638396515475 12.216189873578431
Pd 8.658267905212723 10.978465354363504 11.807946492310501
Pd 10.245553138932285 12.579464504823829 9.970987222253507
