24
Energy = -97.46712874 eV
Pd 11.357980755480062 11.753696194297612 6.360671574441085
Pd 10.136846647635386 9.752403080975128 7.405609009156496
Pd 12.079112786754358 12.619630929838166 8.654668684906627
Pd 13.345153924918689 11.121465003817896 10.392523011726642
Pd 8.819627976635129 7.758522883963196 8.540097010814073
Pd 9.393924418965755 12.324002707255655 7.992820965637668
Pd 11.367567979787433 8.12352323839341 9.160937839009774
Pd 13.810174609580267 8.631519496427464 9.909142974340648
Pd 10.745736243650345 10.653466825898523 9.844111071277764
Pd 7.5518712065340985 12.662980050676683 9.85836221945731
Pd 10.064087682160725 13.256406429594099 10.482927925046429
Pd 8.101796722526908 10.22866803558342 9.102818525648695
Pd 14.499206589409033 9.61818368333017 12.30111938244098
Pd 12.637583390279605 13.56185734538762 11.050909593664619
Pd 6.213899510170564 10.645974299787634 10.961375097021255
Pd 9.41972955386286 8.53079015454398 11.001520287441812
Pd 11.268810540287983 11.694625002067033 12.32596347966931
Pd 8.715509936174168 11.271925937410243 11.7680409361933
Pd 6.8433780020514074 8.168684753651661 10.315524924468852
Pd 11.935638040898946 8.927859969480552 11.691533903151019
Pd 13.860859891336426 12.109431523748508 12.897134685231757
Pd 7.481666016849421 9.096448356273173 12.748734376743768
Pd 10.011636690843046 9.597752429621789 13.36435196216257
Pd 12.530647082810459 10.082627867579593 14.06154675995046
