27
Energy = -111.30508061 eV
Pd 12.871935361319311 13.471036913069337 11.049096962713568
Pd 11.853561331066688 13.718572886194355 8.348484885714214
Pd 10.455166501200337 14.748934508861305 10.502056855909
Pd 9.106594440768902 13.40160076334772 8.503008210758775
Pd 8.440937246008072 13.008451361125415 11.118043926942233
Pd 10.696419951792668 13.07838516265375 12.664507543638205
Pd 10.865623695278451 12.081319309433098 10.124340951296693
Pd 13.03931977983916 12.275308876093497 13.604363513740754
Pd 13.140486181209946 11.474678098236415 8.971991434514761
Pd 14.829544648959768 11.699090579578051 11.055326274094643
Pd 14.172282573205216 9.277913084602245 9.767455406507958
Pd 12.634571710625321 10.55718321344231 11.750625009587619
Pd 10.601369743292988 11.209316047518012 7.675719791194211
Pd 10.765659467449094 10.817148981222008 14.21317348285755
Pd 9.744347712460122 10.672155951920095 11.825024148906982
Pd 8.510834450593308 10.878511069828138 9.41428931657792
Pd 8.351533605127436 12.109608331244683 13.69290033329345
Pd 7.015350490835243 10.757804798679212 11.711641597399105
Pd 8.376371045811762 9.361742969158101 13.650707358129209
Pd 8.528748843215181 8.568597525871272 10.878825553231806
Pd 10.703790948200513 8.411740382546077 12.705805195559572
Pd 9.50276325125549 8.70341232426581 8.251473900700473
Pd 11.350668063645916 9.305301830200795 9.914400624467886
Pd 12.926245218396296 9.30707271530717 13.986051784318036
Pd 12.962099469778437 7.7943285050142155 11.605849055101292
Pd 12.40464021135493 9.274494621745824 7.567271208012699
Pd 10.543085111753623 6.916840840834909 10.440813119237069
