22
Energy = -87.76014158 eV
Pd 12.972612171721593 7.450641655936905 11.916433870693021
Pd 11.850647757957997 8.229414027601624 7.336460737992019
Pd 10.571604808674577 7.002739193208207 10.864192696395618
Pd 12.076879380752075 8.867693352463476 9.874880980949538
Pd 9.926532472685764 9.985976379730568 6.560508146384322
Pd 8.045769638293867 7.556987646104723 10.645758365614917
Pd 12.008548462298425 10.752528336356848 7.913945889495097
Pd 10.798689369627178 8.404550701072026 13.080256217644784
Pd 9.562494803385384 8.423748245053554 8.623277424687078
Pd 12.765167951639173 10.09714399114776 12.131603242129522
Pd 13.890103845167836 10.685497207913802 9.75453634257938
Pd 11.458016657919352 10.562266200038044 14.307391931151354
Pd 11.609199420870844 11.741983330300059 10.543180163450401
Pd 11.131680784175007 13.158446755522219 8.375920232065798
Pd 9.621518777473073 9.629369696851137 11.168705751975537
Pd 9.45642175891758 11.250720168389703 8.814274130245204
Pd 10.039969786831676 11.817225245293203 12.625680518624838
Pd 7.417723471464124 9.785822257121042 9.462947813579577
Pd 9.457809258159426 13.348956666010666 10.49597128116674
Pd 7.695924847672787 11.41031420852131 11.543725229179156
Pd 7.106188132186583 12.423263203351008 9.160138874984026
Pd 7.068213115554305 13.908363867773858 11.330581745502828
