25
Energy = -102.321198 eV
Pd 10.80771555 8.802850101537159 11.202835554805413
Pd 13.145865820077676 12.234068784834182 9.838206684202623
Pd 10.80771555 12.812580998462844 11.202835554805413
Pd 8.46956527992232 12.234068784834182 9.838206684202623
Pd 9.335444347301136 10.80771555 7.627701177639619
Pd 12.279986752698862 10.80771555 7.627701177639619
Pd 10.80771555 13.121696022700641 8.464433153186711
Pd 10.80771555 6.535784661825742 12.521539864007448
Pd 13.061351676862342 8.193759827185197 12.336920778805991
Pd 10.80771555 9.450709858550752 13.728977512543656
Pd 8.554079423137656 8.193759827185197 12.336920778805991
Pd 9.444287097581178 6.758405224481845 10.122014837384961
Pd 12.171144002418819 6.758405224481845 10.122014837384961
Pd 13.145865820077676 9.381362315165815 9.838206684202623
Pd 12.527879251014484 10.80771555 12.093279175502435
Pd 9.087551848985514 10.80771555 12.093279175502435
Pd 8.46956527992232 9.381362315165815 9.838206684202623
Pd 10.80771555 8.493735077299357 8.464433153186711
Pd 10.80771555 10.80771555 9.726786673054812
Pd 8.554079423137656 13.421671272814798 12.336920778805991
Pd 10.80771555 12.164721241449243 13.728977512543656
Pd 13.061351676862342 13.421671272814798 12.336920778805991
Pd 12.171144002418819 14.857025875518154 10.122014837384961
Pd 10.80771555 15.079646438174255 12.521539864007448
Pd 9.444287097581178 14.857025875518154 10.122014837384961
