21
Energy = -85.02315197 eV
Pd 7.426008651672236 12.776311548299155 7.665618439412517
Pd 7.411940125586004 10.111750758350999 7.455222147102679
Pd 7.242528212985053 11.429844665227995 9.868351843239294
Pd 9.209031229934618 13.355918671196351 9.684679967661497
Pd 9.645733352714355 11.454847047985876 7.926971340834059
Pd 7.706871316238661 7.478704982858439 7.552832113359772
Pd 7.7947709913835554 8.823784036526655 9.780072164752758
Pd 9.868152819850046 8.859134581202156 7.135540453921945
Pd 7.3883072272072035 10.013980581726894 12.101304124584658
Pd 9.467457184937686 11.403145495882049 11.382271443155812
Pd 10.350879582565373 9.596431592570521 9.63328516285005
Pd 11.609389603128436 11.984958536659999 9.814549808908188
Pd 9.722503265676451 6.9742137429898765 9.27706993320944
Pd 11.771738848479727 10.195639846338247 11.93931900256348
Pd 9.391072430266417 8.164339576455314 11.765688409377468
Pd 12.021535059823462 10.455054224998285 7.4965971422619955
Pd 9.694901892856327 10.012953084113239 13.627109818891016
Pd 12.099426010113536 7.8397608476206555 8.211412478821476
Pd 13.205969683434684 9.751923660701966 9.765588999532245
Pd 11.86234108848368 7.613347089034342 10.843122035801015
Pd 11.480813679524562 8.064093512018133 13.430436193339652
