21
Energy = -83.849026 eV
Pd 12.807027811370315 8.817363296291113 11.906030823175197
Pd 8.444206494869809 12.522377236359086 9.067200313060862
Pd 11.060131611913759 6.928607249257117 11.086107884242303
Pd 9.961969044703507 13.34651226624715 11.226406802458259
Pd 9.323155141007517 10.097860777198317 8.230487643908269
Pd 9.074548104971926 10.865822787275059 11.029872102978587
Pd 11.942630541210942 10.278608052406607 7.566559822714114
Pd 11.711758046001037 14.916859216131241 12.237554115247992
Pd 7.055577866844284 10.133280493413295 9.609495227502888
Pd 10.163551288711302 8.985384072474899 12.564240591818914
Pd 11.199004073092238 9.292128753891818 9.914274944793846
Pd 12.650549614817116 12.925074611771429 13.52586752840886
Pd 11.48366203555546 11.208512846893909 11.999054445926689
Pd 13.468305134970807 10.655168871732952 9.771132488754342
Pd 10.172094127397624 12.222063195853298 6.918523110776657
Pd 14.17739767404903 11.034239606956662 12.28894398596488
Pd 8.83375347511035 8.142985867260684 10.03334238301883
Pd 13.009676633363961 13.10899154382984 10.860573255726376
Pd 8.68193843181911 6.784232664130736 12.321609132730796
Pd 11.14457711353046 12.04078719675771 9.33584955103462
Pd 7.447392070524681 9.105006609346201 12.160952032756274
