22
Energy = -89.28838508 eV
Pd 7.292695563772934 8.708294380654364 11.783851354302364
Pd 7.875044152483354 11.257011501202442 11.975822366349368
Pd 8.105801991370788 9.940972233703102 9.610691072648597
Pd 9.431622238977488 8.230745879792233 8.06198986408135
Pd 9.377243106843057 7.555568012131422 10.672209176163234
Pd 9.69081433378012 9.426058247381114 12.591082557606061
Pd 9.529818698882123 12.189598659428224 10.047175750331196
Pd 9.871156014306615 10.885816990493817 7.733546232205222
Pd 10.750450368473144 9.779104438392725 10.048202106951653
Pd 11.611204760479996 7.146760241449419 9.32899732277446
Pd 10.37367233217297 11.978486795929925 12.694890820494237
Pd 11.956556794143678 8.187177309673382 11.829061573463672
Pd 11.895643538240662 9.134798366175403 7.491821599103257
Pd 8.56574996989158 13.767599099627642 11.871074378063808
Pd 11.945447680990458 10.126323676946345 13.749445500770902
Pd 10.892894963710463 13.324378808709676 8.106471071849965
Pd 13.475352988445925 9.038956193488486 9.654153832363743
Pd 12.757225624786079 10.83130033471277 11.409545224609031
Pd 12.503090629158498 11.380806366202183 8.776300394362663
Pd 12.832828000763866 12.827172029482588 13.0847871085693
Pd 11.902768914042412 13.239063094766188 10.562774278934995
Pd 10.948864187425718 14.629954192798788 12.502053267142953
