28
Energy = -115.64171097 eV
Pd 7.223733184818401 11.994238449014807 8.844675325073247
Pd 6.698428525963831 11.099944115306354 11.261327783411389
Pd 9.712385152154988 12.424193249379133 9.207161187210405
Pd 12.369437487906408 12.887875257259077 9.144973240424832
Pd 7.558707245596285 9.452311632129016 9.313109456332462
Pd 6.815057294738429 12.593123791864544 13.367903832740112
Pd 11.26564216813758 11.862202507237052 6.973310844471475
Pd 9.114861179743938 10.486584580374181 7.5166179425013775
Pd 10.599150706441328 14.445310208423187 10.554597984787254
Pd 7.447572128392708 8.483212277693308 11.822952962275163
Pd 9.27826693167209 10.52569905227064 11.160316953273918
Pd 8.98168033030961 12.96115098948999 12.036344532193906
Pd 11.221396912317658 10.157705819861151 9.425048367965621
Pd 8.002384984241882 10.316659922984682 13.636227369047717
Pd 9.737341327052645 7.96303044845258 10.45756235489146
Pd 11.355098036596601 9.16310900267601 6.979699599693806
Pd 9.180288141618366 7.819826752645102 7.827526896909429
Pd 11.514232520703397 12.209113247324126 11.540269054129494
Pd 7.490793364828141 6.862753998610919 9.685733279749849
Pd 13.458054085785587 10.64069609585297 8.037713640866746
Pd 9.919523645821483 8.5052766341266 13.06993477002975
Pd 10.468755896135383 11.116046231083965 13.652579894838063
Pd 13.80368020556863 11.23865827502715 10.687878835704442
Pd 12.03324408812676 9.683222178409105 11.992934860644286
Pd 11.608387612724243 7.235292509124409 8.821582619365323
Pd 13.734068487587866 8.047351213323386 7.437137069408161
Pd 11.95792666799886 7.103857032054851 11.559357375865448
Pd 13.429608178348916 8.701261019332863 9.965228457526768
