28
Energy = -115.79872093 eV
Pd 11.92306630216719 14.484507746451825 12.937609135020665
Pd 13.278694481642361 12.31950829180488 13.903502157289692
Pd 14.157882849550504 13.552499548637327 11.721585651715987
Pd 9.605384028370766 14.102372350037836 11.80670213227469
Pd 10.800395144500609 12.033676266460471 12.935759492574988
Pd 11.780560136567102 13.363345698081345 10.49507577277536
Pd 7.223956751605118 13.709468319242845 10.733703434525802
Pd 12.240810590973554 9.932848177247978 13.773676371909174
Pd 8.395038803922668 11.60305396933097 11.857040131169741
Pd 13.21309674660445 11.03767139448147 11.556763632203632
Pd 13.915086699246743 12.311588706788715 9.36405962840119
Pd 9.397049989653867 12.827533351463599 9.454757568242453
Pd 9.775614950157186 9.525687483388957 12.711787074314806
Pd 10.734976936400324 10.721243658866944 10.522997642213383
Pd 7.104211808399015 11.401736562651154 9.428278416946055
Pd 11.229559576975143 7.476456353584014 13.563856734140096
Pd 9.194477536277907 10.550972097501068 8.02901623084973
Pd 12.23765217317155 8.551002555860524 11.381050631223646
Pd 10.738482555122019 8.4135438828564 9.237614213788234
Pd 13.065672395849282 9.757956613868872 9.154205877617015
Pd 11.540618716874661 11.832305545871096 8.249752364713148
Pd 8.313195584437088 9.292598254123797 10.506600584756072
Pd 6.934117751495693 9.08976809152315 8.215601728498001
Pd 9.791953021177363 7.151992168974566 11.325676314361376
Pd 11.34963430714525 9.49703927520402 6.9587665029036225
Pd 9.152510905394307 7.896606937327711 7.225945679438096
Pd 7.946816245628448 6.912646274939004 9.403069759072357
Pd 10.263315867756658 5.913853088756084 8.855204238830785
