22
Energy = -88.19361964 eV
Pd 14.191291227845111 12.450561491659531 10.496306430457171
Pd 8.98197193345244 9.158426602887147 13.181007999276241
Pd 9.69497262582402 9.806210102050919 10.674167838352664
Pd 7.827473998484703 11.211741785931244 11.949904820491012
Pd 10.607485590833246 7.465088967090829 14.297543355257135
Pd 12.285010030820443 15.981688361550672 11.48632986250363
Pd 8.75392017208552 13.641276623830917 12.63724030021556
Pd 14.22403244980986 15.034881884562633 10.01233773478033
Pd 9.567717378071418 12.493618500834973 10.356301483417903
Pd 11.38683973841086 13.680659009672432 12.427142991587935
Pd 12.124410772145193 8.674962051006034 10.251909142960175
Pd 9.892167045660132 15.166057731255236 10.71384969826303
Pd 15.50670800157985 11.95347051808432 12.732465412049834
Pd 11.855230732216853 9.27292313741498 12.912435693503935
Pd 14.120719772478541 9.940689756456553 11.570178524989121
Pd 13.964528695824395 14.140333544094743 12.515808955143074
Pd 13.571044801778472 10.410951725791262 8.956859279498993
Pd 12.96782417596419 11.684792870169108 13.335755230564427
Pd 11.924690004499892 13.734466458756522 9.773860235705133
Pd 10.360919612194435 7.393512826131939 11.709095010561544
Pd 10.286470860236774 11.441561327302578 13.060765461796652
Pd 11.854357416362054 11.267917537572558 10.821999545574563
