23
Energy = -93.09127031 eV
Pd 6.3953941852823455 10.34554716564343 9.497445282168702
Pd 10.261028958257139 11.301343505901073 7.086067019460884
Pd 8.302094719239147 9.247018292313577 7.791842709694195
Pd 6.663235831177406 7.687129757200354 9.62200179601362
Pd 8.736196855639475 11.59375391694527 9.227303873119034
Pd 11.368638878840423 7.060639059602452 7.868323026191864
Pd 6.460046492090995 9.03672145155429 12.023976487291637
Pd 10.493369303482112 8.876586826578038 6.256430260048838
Pd 9.994857205635048 13.692735544814433 8.26124426088295
Pd 8.624664479215001 9.28050164864016 10.524501356032577
Pd 9.835583412110553 13.277244207566431 10.961730695778426
Pd 12.392481642853244 12.586297139426566 11.655988972238632
Pd 7.867866980193804 11.472797059448753 11.77834850617853
Pd 12.807039602102666 9.838018476885651 7.784032090158569
Pd 10.699730626724866 9.405544289701417 9.06897265665861
Pd 9.256201148805106 7.012892847890042 9.30036506178082
Pd 8.253708251064692 6.951131673363419 11.800784007683545
Pd 9.064623723262484 9.112091600596298 13.155870848481447
Pd 11.664837534840874 11.949448165550221 9.240321173190985
Pd 10.471695383148248 10.79737814636005 11.664845700852846
Pd 10.925590255276486 8.040361991051672 11.395097570925078
Pd 13.024187619261932 7.753805334815595 9.726732381045757
Pd 12.842351398801249 10.106732610236593 10.743433582122787
