24
Energy = -97.8348686 eV
Pd 10.303183676723256 14.23287296480718 9.306930527433089
Pd 11.407972508942054 12.452648216574246 7.504877501295927
Pd 11.697297392529814 14.264817693462078 11.690714762809572
Pd 13.207287902792572 14.001838331565729 9.292224372068132
Pd 9.295870542903144 12.83955712085054 11.460929652996693
Pd 9.13622785729207 11.65598383304751 8.958731931598974
Pd 7.669836532629461 10.63272162141229 11.168768235047468
Pd 8.814330342987144 8.879982068130456 9.362860233446808
Pd 9.027778465967424 8.31489701851583 12.277686404175576
Pd 9.215138889453673 10.877358541829004 13.455041633709126
Pd 10.242041876318625 10.210917525467785 11.022992066723724
Pd 11.206101665575588 9.897638950188215 8.491762233595942
Pd 11.601939042733605 11.728727507705504 12.563679181348473
Pd 10.214216604263225 13.472378266639337 13.972411398420693
Pd 11.626488212798394 12.10228875853054 10.036508512365467
Pd 13.952156449228655 12.494516180796408 11.472177148492575
Pd 13.720346866060455 11.225252338468827 8.82813505946778
Pd 13.005235836940068 13.368064804766563 14.028631336577213
Pd 13.093771603144434 9.89862652804469 11.143997826835209
Pd 13.365852879584661 8.534902855764523 8.920207547670634
Pd 13.771140214684301 10.705645753381157 13.651596826470122
Pd 11.452053820850482 11.262086356198596 15.123941199699889
Pd 11.483264532059298 9.11694546034372 13.236087885148402
Pd 11.297882575286115 7.910907889463219 10.566632086216384
