24
Energy = -97.10551806 eV
Pd 11.08034298102632 13.69390707998217 6.964162875275112
Pd 12.589926646501889 11.77861811606729 7.755904763183738
Pd 9.96280535454011 11.382329998569366 7.266168289388756
Pd 7.405904719956111 11.033113882996597 7.401272067841655
Pd 13.886354002924008 9.98376729057975 9.160993905923059
Pd 11.540844324553806 9.294272470633096 8.028894262974
Pd 8.879579473895102 8.906198515798968 7.7184334619654456
Pd 10.18812422182584 13.100515210239356 9.32350001374752
Pd 12.244136563741069 11.711672160352302 10.3236279815488
Pd 9.798406867237365 10.486499186519719 9.78507896634269
Pd 7.234539819286347 11.00796508792393 9.926538887799724
Pd 11.235709565847547 13.73512653633373 11.668778228161038
Pd 11.909884530541513 8.991435854809147 10.66066260059164
Pd 10.239686707506605 7.44202863545263 9.464730667193406
Pd 8.995713281202391 12.343854834868752 11.59871454551469
Pd 11.264878484747541 11.296750961166117 12.7318534830605
Pd 7.894162358952351 8.533177537765496 10.141360894309935
Pd 13.611514257763394 10.264253761750142 12.087201549923273
Pd 6.921354703544677 10.870986546372444 12.470145866356294
Pd 11.82905227062301 6.4989636228978025 11.378248098133843
Pd 9.269207610314323 9.709465831264534 12.333459272988756
Pd 11.538087112145591 8.584291955905964 13.165618767524501
Pd 9.401160873701492 7.119988064994607 12.078956643404089
Pd 7.095960810121184 8.248154399255533 12.583031449347
