26
Energy = -106.20825978 eV
Pd 10.755271644056757 8.924576515943242 10.755271644056757
Pd 9.83992408 13.121874830341488 9.83992408
Pd 8.16495095891901 11.51489720108099 8.16495095891901
Pd 9.83992408 9.83992408 6.5579733296585125
Pd 12.566117352263992 10.544140900810152 7.113730807736002
Pd 12.566117352263992 12.566117352263992 9.135707259189848
Pd 10.544140900810152 12.566117352263992 7.113730807736002
Pd 10.544140900810152 7.113730807736002 12.566117352263992
Pd 9.83992408 9.83992408 13.121874830341488
Pd 8.16495095891901 8.16495095891901 11.51489720108099
Pd 9.83992408 6.5579733296585125 9.83992408
Pd 12.566117352263992 7.113730807736002 10.544140900810152
Pd 12.566117352263992 9.135707259189848 12.566117352263992
Pd 11.51489720108099 11.51489720108099 11.51489720108099
Pd 8.924576515943242 10.755271644056757 10.755271644056757
Pd 8.924576515943242 8.924576515943242 8.924576515943242
Pd 11.51489720108099 8.16495095891901 8.16495095891901
Pd 13.121874830341488 9.83992408 9.83992408
Pd 10.755271644056757 10.755271644056757 8.924576515943242
Pd 7.113730807736002 9.135707259189848 7.113730807736002
Pd 6.5579733296585125 9.83992408 9.83992408
Pd 9.135707259189848 7.113730807736002 7.113730807736002
Pd 7.113730807736002 7.113730807736002 9.135707259189848
Pd 9.135707259189848 12.566117352263992 12.566117352263992
Pd 7.113730807736002 10.544140900810152 12.566117352263992
Pd 7.113730807736002 12.566117352263992 10.544140900810152
