25
Energy = -101.7588538 eV
Pd 11.923792850147127 12.368671410201822 8.513889526876637
Pd 9.94037664250461 9.172205217749584 12.074676502267799
Pd 9.418992534855548 11.344405376392764 7.915947494067276
Pd 11.471930356461865 12.85163258275518 13.3657859789364
Pd 11.582211507342777 9.708459645182197 7.889873770911325
Pd 8.114356031499726 8.981967263794068 13.93710589593943
Pd 6.984141431249243 10.251448860030877 7.783593038655453
Pd 14.439425249833649 9.884103679922243 12.729865089856565
Pd 10.549901330771391 7.938957666808864 9.75633167793242
Pd 13.001576468714065 11.59971320532728 11.444961129526703
Pd 11.97873871709613 10.142950166625356 13.591996728908113
Pd 9.145220305912147 8.724230299200132 7.558433983829372
Pd 7.577695605377532 10.710567585274545 12.046605976240189
Pd 9.463386399122907 12.517171170074148 11.592870072707921
Pd 13.814672555333638 11.94166953604394 14.228665042931707
Pd 9.66254041752113 13.6873493509678 9.183616207053468
Pd 10.7387315813918 10.796662826045335 10.20001754367309
Pd 13.094128773617518 7.809829473817124 8.920128162511807
Pd 13.71080379404286 10.426343691707595 9.258400690640633
Pd 9.553441196746528 11.1603799663305 13.891920084341363
Pd 13.746876698239992 13.890359403193457 12.470961109284309
Pd 7.589626884384404 12.008141434546967 9.72834626657364
Pd 12.507553130466041 8.89756885625218 11.25163156887048
Pd 8.332509467176997 9.437739964999407 9.903766903268867
Pd 11.698042766973051 13.788144063539619 10.801282250978433
