20
Energy = -79.86016188 eV
Pd 10.852066945084811 10.002832963260621 13.989118936160105
Pd 8.626872037710891 13.258886357972614 11.539409293795735
Pd 12.308289159085994 9.15280076503908 7.914764840493635
Pd 12.752342125935357 10.349502259156269 12.104344201942814
Pd 10.029461173677914 10.51102827969289 7.431048848378507
Pd 13.837903903590089 10.395945059067122 9.713838977537424
Pd 7.82186181356261 9.615585009870745 8.91158894907105
Pd 8.864111975984635 11.997411232557985 9.238993349891249
Pd 12.427761200922562 8.163841707799222 10.38246685297152
Pd 12.360622777077932 7.970136883524892 13.103257634510678
Pd 10.925164587338246 13.43892831303703 9.952337478202647
Pd 10.981140349307841 10.60949049073809 10.072024163878414
Pd 10.228979731355487 13.20868217365281 7.333904508283304
Pd 10.228708649962647 8.663778178692526 11.738912736800916
Pd 8.409098821414803 9.059731579022053 13.576903730199996
Pd 12.299715035756739 11.889406571955005 8.186469309653072
Pd 8.38733043180663 10.502298530277416 11.344031977258023
Pd 10.812917456311927 12.077019582077575 12.248720436354244
Pd 8.702118262938749 11.674069844243204 13.769030197948801
Pd 10.031511293053901 8.312990172984318 9.102166706807495
