21
Energy = -84.9728966 eV
Pd 9.36365463478249 10.334401365695168 7.192554741621262
Pd 7.177846602777558 10.81507157589413 11.778275664180713
Pd 8.671814456589823 8.567290063346606 11.554282609018921
Pd 9.946871632867158 8.28347978928327 8.865490288856172
Pd 10.913986161899617 6.917302342801589 11.12719149814049
Pd 12.745093887534109 8.198212603102915 9.374386768764827
Pd 13.225053120942253 8.505479494120657 12.061079184283718
Pd 10.828894413819473 8.62235326725659 13.39594717627435
Pd 11.038981858960325 9.487783932843481 10.914732038190968
Pd 11.628040705349207 10.473307104729676 8.424393494478316
Pd 9.573650465626512 10.92680000801716 12.736078469739201
Pd 8.750580366961602 10.600546246672783 9.710854989454441
Pd 8.651540588369706 12.977858798191582 11.080174172357145
Pd 9.92908631627888 12.696843358089762 8.392046704019382
Pd 11.025258785438002 11.959585350859586 10.647785928859456
Pd 12.723534547293985 12.909256170887222 8.867382623541129
Pd 10.804126147935015 13.33160020441855 12.892337160332026
Pd 10.880217950726125 14.517251149472518 10.321391056421815
Pd 13.197327587085205 13.188712855419682 11.557061467952964
Pd 12.277471719030967 10.960346909547942 12.90863935263004
Pd 13.480838844119925 10.695421161236982 10.392086437614852
