22
Energy = -88.37639214 eV
Pd 12.895414962889157 10.70284762511694 10.600139816081242
Pd 10.960789855600023 8.92880074513328 9.80975837293656
Pd 13.55896757720631 8.543751878149758 9.157773118497524
Pd 10.190827033981575 7.176685236776085 11.624188751391305
Pd 8.039860998860854 13.098203276638584 10.799719188889414
Pd 11.254500532443622 7.967436110819691 13.89284122356914
Pd 8.403809423537185 8.79158734998731 10.456944295376365
Pd 7.3043601552598885 10.909702926675424 12.197154618539422
Pd 11.572743236583705 10.334257783303412 12.87304756096039
Pd 5.873561928814034 9.180320730640274 10.95466607767684
Pd 9.221221563433819 9.91861095170865 8.072687832325169
Pd 13.745900042360242 10.979076152907345 8.077031369441073
Pd 9.815011657444106 11.142037202247037 10.901980635418223
Pd 11.740009185244142 9.326373251776356 7.291866235681714
Pd 9.17249213807005 9.310936902657913 12.945563632631533
Pd 10.49084175441219 13.675773795900547 10.011208099885774
Pd 12.703110736576438 8.16515196936868 11.639713262647838
Pd 11.883070093387762 12.734851602351066 11.998729980871527
Pd 11.229538934051446 11.595945520155471 8.567288280628127
Pd 7.132554957403407 10.918397056889567 9.468838644601304
Pd 13.10755760510763 13.146027101640945 9.621022872842037
Pd 8.782242618465018 12.539118383050788 8.25977405716545
