25
Energy = -101.95197673 eV
Pd 12.31903576839968 14.194115398908655 12.474908979304402
Pd 13.552721236993643 9.292608115947564 10.651779103306534
Pd 13.21081682490286 11.818381479340255 11.463673365300808
Pd 8.748250332728905 11.56167910279801 14.083901144575071
Pd 11.075469592490732 10.386839726398406 11.345721947804444
Pd 9.714739292625541 10.75912853739975 8.99624435812954
Pd 7.75689954146732 9.381699583409556 12.992891508887734
Pd 13.130534509923761 13.642260243560159 9.386356488045516
Pd 12.968392713210378 9.800059451589977 13.321569065540606
Pd 11.337639768440699 11.937851460510243 13.599362955662754
Pd 13.40758649064882 15.819137156294216 10.75566899818259
Pd 10.810682349920517 13.068621687376963 10.63306915136147
Pd 9.07692444334564 8.783810848240147 10.741282476448955
Pd 14.920780247098199 11.609813313324622 9.537578667703311
Pd 13.969242759617396 12.344638071161596 13.841537002669321
Pd 10.306520445677283 9.397437263701836 13.64405093426307
Pd 11.286242444976292 8.546675825923138 9.264119542771844
Pd 11.622951760146682 7.800967663222235 11.90059710005765
Pd 10.938512636537979 13.001670873748923 7.959168301234961
Pd 9.614321677994548 13.760850322575575 12.849601081690857
Pd 12.375206495011792 11.038905154164826 8.985194018637912
Pd 9.167646345131445 7.128928129880305 12.77236800773966
Pd 8.693148885632908 11.46900282023289 11.46706063193133
Pd 8.573661817075568 13.093157017864648 9.292275645094591
Pd 14.889137714304907 13.828826846728251 11.507085617958886
