28
Energy = -115.88757154 eV
Pd 11.985703799553717 9.610153975627767 6.34095623214515
Pd 9.672596728823489 13.413549975432282 8.133529698837444
Pd 11.616801664895025 14.917531239712526 8.9740614826431
Pd 10.271142028399842 10.83353073012339 7.970558755016117
Pd 13.041547812194805 11.2617080356325 8.111474675492776
Pd 10.015330569289514 8.206279768036275 7.311055087888739
Pd 12.202099600386173 8.750116106712154 8.790178930231544
Pd 8.672198058223936 11.863212092211345 9.952891757084773
Pd 12.527518058620181 14.55018772841305 11.32740115101667
Pd 9.798043454293705 14.217330958807647 10.85114548259387
Pd 8.297193216159853 9.366510057761102 9.108892526088226
Pd 8.074455809962537 6.833126006194367 8.4869953902176
Pd 14.08229361644785 12.679631703309235 10.10927266138878
Pd 11.46098724951255 12.322464884649646 9.942330704740918
Pd 13.25869869355233 10.25450863693155 10.781096118791002
Pd 10.452687841308816 9.821299119656432 10.669963908348086
Pd 10.259659672506004 7.227415276737215 9.908091448509396
Pd 12.358575073707724 7.811065373344591 11.34485036988929
Pd 12.760549492445099 12.17370700663475 12.518803181871093
Pd 9.90808285427788 11.913210292516315 12.353244467324465
Pd 7.708158715055744 7.438852000616576 11.000992401108842
Pd 8.018853192891278 10.041466299585627 11.771877168754415
Pd 10.985595790550889 14.105571278951182 13.377661146019665
Pd 11.798564781905922 9.770244039499213 13.02118029541044
Pd 9.930801084626593 7.883297098886412 12.53582500630609
Pd 11.166281301154315 11.752479575749454 14.728077326432057
Pd 9.293474950933032 10.00519488140406 14.182696793530955
Pd 7.540002609296797 8.1131505237253 13.557447889280068
