22
Energy = -89.37493718 eV
Pd 10.602878271462354 6.793564500586516 7.994039434873916
Pd 11.055807004197836 9.78994184133386 11.954503251179736
Pd 13.025259831130125 11.566991248725756 12.039518946196551
Pd 8.78978237524571 8.541384775206522 11.372228554243383
Pd 12.163239471262202 11.463545075499871 9.569674579425058
Pd 9.97817584428622 12.869989147976714 9.023524212967455
Pd 8.25902260582882 11.361262241104605 10.43560030563261
Pd 9.893635341324721 9.056456990005625 6.632777898114735
Pd 6.450713077391814 9.850010040161102 11.703661495536199
Pd 12.160357080773437 8.961601479762896 8.096177047714303
Pd 7.174266675679956 9.232615842797587 6.575835638014723
Pd 9.062357171528566 6.159996863692016 10.235261930328562
Pd 11.237122502927345 7.624751995365221 10.424712130397477
Pd 8.356671447998478 8.010232768321615 8.556845325583746
Pd 8.475721182940763 11.1972777276189 7.684902569797106
Pd 6.5515313646357365 9.828841102420913 9.067855918277441
Pd 13.264492652785487 9.305262769101736 10.545552302717788
Pd 11.177766219734888 11.34482667451039 7.129699591172389
Pd 8.748630602652863 10.68567290582078 12.933366034284049
Pd 10.080910354905585 9.867052922365176 9.361276442692562
Pd 10.483278432674455 12.327578701745889 11.591206706767187
Pd 6.553951622786803 7.47470068409849 10.434546586221154
