23
Energy = -93.60830498 eV
Pd 9.626402908537264 11.642853475073938 10.36232694
Pd 13.076003962409072 10.36232694 8.055255617200718
Pd 11.667916805075551 8.088949280485028 8.879916012519313
Pd 11.667916805075551 8.088949280485028 11.844737867480687
Pd 13.076003962409072 10.36232694 12.669398262799282
Pd 13.915794732846635 11.891674054427996 10.36232694
Pd 13.915794732846635 8.832979825572005 10.36232694
Pd 7.266469746062729 12.67969309591785 10.36232694
Pd 9.0074094045978 12.715450341286202 8.055656831628442
Pd 7.751222417001872 10.36232694 8.87865345089203
Pd 7.751222417001872 10.36232694 11.84600042910797
Pd 9.0074094045978 12.715450341286202 12.668997048371564
Pd 9.891411791015315 14.206878452071098 10.36232694
Pd 11.667916805075551 12.635704599514973 8.879916012519313
Pd 10.365550129854261 10.36232694 7.958737417481176
Pd 9.626402908537264 9.081800404926065 10.36232694
Pd 10.365550129854261 10.36232694 12.765916462518828
Pd 11.667916805075551 12.635704599514973 11.844737867480687
Pd 11.846503405851594 10.36232694 10.36232694
Pd 9.891411791015315 6.517775427928757 10.36232694
Pd 9.0074094045978 8.0092035387138 8.055656831628442
Pd 9.0074094045978 8.0092035387138 12.668997048371564
Pd 7.266469746062729 8.044960784082148 10.36232694
