25
Energy = -101.95707502 eV
Pd 12.775186134024981 13.251302148850156 7.599341081499052
Pd 10.324255965211423 9.82367864285257 9.124469981601644
Pd 10.323743591694276 12.33671316861632 8.245848103269694
Pd 14.398914837736875 13.047980489056863 9.799288319253925
Pd 11.744299681351244 13.91439853958131 9.913188571191064
Pd 10.626666880827749 7.205706975805836 9.434244468045561
Pd 8.161945435872992 8.513211032639495 9.843918693662298
Pd 11.98004767032774 6.835338984022164 11.690719030345278
Pd 8.059154635485745 11.16152700925366 9.063005774737542
Pd 12.488587937978336 11.29566565252168 9.373061406489569
Pd 9.084580124370387 13.217310788582072 10.501863899866244
Pd 12.649413438395692 8.807873866206664 10.102427525195576
Pd 14.383762374975948 10.625662070859788 11.060486334799108
Pd 10.736975481666525 11.459974802355955 11.370934081702378
Pd 14.241470337872776 8.216295595210022 12.164293406328671
Pd 8.259950398187845 10.556603661446502 11.601423360939105
Pd 10.137921799726596 8.632880578519963 11.64436886974179
Pd 10.78091395403854 14.328468144475265 12.23922655625576
Pd 13.018552237931084 12.689122018987712 12.033070664126855
Pd 8.867002069558062 12.607236461026938 13.156468540747262
Pd 12.294780533271842 9.906491436262298 12.748416149362683
Pd 9.754136782381718 10.11199177426126 13.762035128375995
Pd 12.673851832632954 14.430866398922907 14.033833252383227
Pd 11.445656212610102 12.092733358510229 14.071744964955498
Pd 10.15518755520182 14.297924304506925 14.789279738457148
