25
Energy = -102.19336308 eV
Pd 14.248255994828204 14.498522072996549 10.287130908896982
Pd 11.609502184367921 14.655025944674241 9.556931797884964
Pd 12.336433884060819 14.106147458944474 12.015234880521314
Pd 14.161049960821884 12.202045249787549 11.734256208633964
Pd 13.076452002776593 12.434324725880142 9.233072369294439
Pd 10.16912506096566 12.505122116733702 8.994524382539975
Pd 9.737184237580324 13.817349289066271 11.357480203361066
Pd 10.761097661290341 12.738918886490772 13.665553338008682
Pd 13.304613852564845 9.953238640315822 10.476731984391112
Pd 12.610205873666347 10.651238769001353 13.309691560350727
Pd 11.406779918330685 11.676045408668273 11.187132290381934
Pd 13.37213089958517 13.020813751393066 14.184670284754178
Pd 7.206057040343393 7.272459280097435 9.876424145849272
Pd 7.32417173310109 9.856735141725089 9.18783557374945
Pd 8.010799254611038 9.025803032066616 11.652800466714911
Pd 9.684899583363652 6.984326432373546 10.81634412438582
Pd 9.207729290601712 7.93412115210088 8.292045374158265
Pd 9.250431428838052 10.515495374562041 7.540545643894948
Pd 8.411075832999627 11.609569645376268 10.959943799530615
Pd 9.817414543073845 10.425639151038295 13.023867242374058
Pd 11.787322450671406 7.937548137659452 9.353227694505613
Pd 11.552928933688893 8.63803807646912 11.955696838132406
Pd 10.006334049341485 9.733433634425054 10.066148315766403
Pd 9.52167792646314 7.79809530845282 13.38873409439063
Pd 11.806436805762763 10.390053723399369 8.264086881227026
