26
Energy = -106.35884233 eV
Pd 15.080031454508498 10.479798762889933 12.065018008366593
Pd 13.899694113917253 10.43003411258389 9.67642942693397
Pd 13.122928505837768 10.781966633292141 14.001869409860616
Pd 12.055489081613775 12.30350495276446 9.15554589252125
Pd 13.080806985169223 12.07283287333851 11.685838682056135
Pd 12.759164518199109 9.248311072857705 11.841996857949445
Pd 12.640866053492223 10.36183445369441 7.363674538831122
Pd 11.831343190599757 8.75530148415886 9.380663592841318
Pd 10.997483941389678 14.76184584314984 8.995384667990445
Pd 11.09428251554089 13.640182937356753 11.367744461567344
Pd 10.720268416870965 8.43631163346828 6.921272047196735
Pd 10.689176656859031 10.738346706064437 10.838502143926918
Pd 11.016519353331246 9.209288662364902 13.870297621210398
Pd 10.75536805069521 11.829641391133922 13.28352233256709
Pd 10.105210359966543 10.671292262370022 8.101715154283927
Pd 9.230811194746366 8.171863690510573 9.142238699081222
Pd 10.412498022728553 8.057069363049154 11.495904139796062
Pd 8.876478770551625 7.62027574730367 13.59046688728054
Pd 8.943884261264532 14.95381143826779 10.659355907329553
Pd 8.650084912644283 12.516367542677905 11.800212573824938
Pd 8.728910999295284 10.084416421339416 12.692153535982893
Pd 9.26603430647387 12.800751183293983 9.191532578364752
Pd 8.07689825588926 10.565979317646853 10.007953690332348
Pd 6.563075463976729 8.692405081193284 9.005669674792985
Pd 7.692925594985524 8.081841439968168 11.284848238107344
Pd 8.169028451062266 9.286192880146064 7.021318731268053
