29
Energy = -120.71612372 eV
Pd 14.072631828574046 9.668352679753188 8.354821446654547
Pd 13.42878218985306 10.700322515319465 10.64472823122343
Pd 12.79307079772521 12.072524858896292 12.846890784739301
Pd 12.413963530096417 9.166965763426553 12.624969438913087
Pd 12.662634694114594 8.12709130395688 10.156986945245514
Pd 12.452958464344679 7.793400184963839 7.426883672946772
Pd 11.930942022652882 10.567450043442056 14.838600867427173
Pd 12.34282832122218 10.264927306552481 6.343929434094891
Pd 12.638138322754006 11.946569122876973 8.31241357746204
Pd 13.045281022845302 13.33892726660302 10.480378462427787
Pd 10.15790657904058 8.771335951782328 6.407429452109966
Pd 11.168218086576264 9.86259583144164 8.981487781759549
Pd 10.867509606723305 11.031388254424792 11.413062448664395
Pd 10.209459302695075 7.413075310693242 8.757945294259644
Pd 10.25260120906972 8.107767347681738 11.32283406449949
Pd 10.972222316088242 13.938723665688103 12.020806031583248
Pd 7.86600829112237 7.521061616316321 9.99073101874821
Pd 10.49300332041448 12.879524996869895 9.571715981541207
Pd 8.523265279037194 10.094847223959315 10.797548361447014
Pd 10.06283176222098 12.092388712711927 13.738161437342113
Pd 10.023115607089245 11.424609070502775 7.291819746632156
Pd 8.425738330135314 9.409733955852458 8.165516038033626
Pd 9.90653507452197 9.433035679361375 13.613332368960302
Pd 7.822763761466316 8.24867422084814 12.563878282812635
Pd 8.66236288419655 12.798787213471634 11.530174983815748
Pd 8.007098429245866 11.961691768240915 9.000986567618298
Pd 6.239789533780599 9.694732905783749 9.537068614576341
Pd 6.283651713860247 11.829968261178902 11.104692738324221
Pd 7.687333148250362 10.907428803922548 13.201379850872978
