31
Energy = -129.19165298 eV
Pd 14.216993437462033 7.71875131075804 12.049828491703423
Pd 11.71735091685913 8.232424426856435 12.838073206125317
Pd 13.73524823258198 9.498959314722223 14.102120725758944
Pd 9.260786108447663 9.171800814886682 13.280354729252137
Pd 12.426075585468867 8.188358504730067 10.087668838019749
Pd 11.349129775030239 10.714666458558497 13.9894913420742
Pd 9.031893318513033 11.84281895511293 13.194128037267458
Pd 6.856114070816447 10.360532230501443 13.522263455467819
Pd 9.954642531659982 8.175707624728625 10.87403476607076
Pd 15.034933420605027 8.680394517115333 9.648150794363136
Pd 14.63691275118879 10.304446667601622 11.736137911280647
Pd 15.617215307057027 11.267524904986479 9.500861070005223
Pd 7.41631145636076 9.140694925474008 11.285168954365075
Pd 13.671086813799743 12.062097397526692 13.434105935411761
Pd 12.025945639729796 10.450854157113996 11.434914862270185
Pd 8.212025366485667 8.224307658528462 8.923790287337999
Pd 13.627907066368444 12.630806945301137 10.631197533817874
Pd 6.937370668642061 11.967046610221681 11.421338117317294
Pd 11.329940307563273 12.865352009666891 12.425808812374074
Pd 9.431505153303899 10.808122883038823 10.7827864069292
Pd 13.164581703533063 10.488478667249565 8.976585122899756
Pd 7.2633525814737805 10.71031701070699 9.084646160351054
Pd 13.509637188714224 14.501367438306724 12.46636084936161
Pd 10.571040121946746 9.71956272112188 8.620750087459202
Pd 9.169832861190613 13.449950577331702 10.971186908657836
Pd 11.26651505075548 12.27348231555872 9.398589431682451
Pd 8.463609352493563 9.850450012660872 6.8777998331157
Pd 7.214356778644124 13.40372116588046 9.17702332142795
Pd 11.688781667025898 14.628564322160274 10.526541818952692
Pd 9.162364537319242 12.091564207619015 7.930390424793601
Pd 9.76269213894056 14.523139537072895 8.662752249457851
