34
Energy = -143.01655317 eV
Pd 7.6814120079613595 13.104244461949266 11.500317219495663
Pd 9.686789011641824 11.904681009669414 12.9698066299376
Pd 7.647276014887377 10.424648299352121 12.190351854947458
Pd 10.445512349944833 13.71879530983575 11.048212560099541
Pd 5.8179573614476 11.302923642880334 10.486161810046687
Pd 11.74352151871591 13.446357222729223 13.409168067804398
Pd 7.3738008355506235 12.643062969216114 8.7292223297046
Pd 9.175563158561244 11.411584906449804 10.291593352310315
Pd 9.912231004950023 9.268375994873919 13.058462254337392
Pd 12.064057729207013 10.672066760940236 13.757572088349024
Pd 7.782826549422121 7.848405647952792 12.841455858358838
Pd 6.295250833924107 8.591020976843097 10.71866118799831
Pd 9.951447240585646 13.161335244258966 8.452201561983024
Pd 13.08698528576031 14.06967972056844 11.20244453354693
Pd 11.967155211681781 11.434114063056132 11.31348146585373
Pd 14.15032640741545 12.435276400885831 13.028758936932359
Pd 7.348356168134941 10.025981178959755 8.731202405012137
Pd 7.3615226859471745 7.431499404742688 8.452431117507277
Pd 7.57687375343028 6.192285113291386 10.82473585702282
Pd 9.062235073275762 8.717267765506694 10.335896892719372
Pd 12.446017422130586 12.736450278087531 9.051313279419766
Pd 11.715513918371558 11.675093127571698 6.762727490406438
Pd 11.039662284831175 10.331076886644334 9.003436042871284
Pd 10.136569703304508 6.852399009898497 11.725106670346596
Pd 9.200257696862403 10.943029641750304 7.187011545312771
Pd 12.130448945042367 8.610349664960978 11.918283702578274
Pd 14.294653979436887 9.952719359819758 12.238522221339855
Pd 9.73058705657244 8.345694704796692 7.644626972212452
Pd 9.561343169560665 6.080632238233583 9.10402116209272
Pd 14.600792865390119 11.916372477350558 10.410090153050739
Pd 11.614714392485743 7.657647811129713 9.498680596999472
Pd 12.428777583090334 9.046031746086234 7.256148338629196
Pd 14.163890220427215 11.158291544752688 7.798699325937241
Pd 13.440005725122312 9.549387296499946 9.76132171555962
