35
Energy = -147.78914515 eV
Pd 13.415193745010233 9.473824774902953 9.550552232136374
Pd 13.983390985220435 10.700522892677087 7.243549358194009
Pd 12.534405166580967 12.859883052012961 7.664213632168592
Pd 12.840521133747504 8.214001644349944 7.251833223961121
Pd 13.795295154589848 10.884407161618663 11.853747332394335
Pd 11.369036822985336 10.405788630096305 7.675849275985968
Pd 14.468210364660303 11.99165241317799 9.527803766582062
Pd 11.119224930290551 14.959831449670139 8.399636996720318
Pd 13.004247249261926 14.172846588987682 10.117734066917865
Pd 12.144188441064308 7.065020003551469 9.535177620407417
Pd 10.244918810796825 7.939430060840735 7.800484738928071
Pd 9.898908891136438 12.597153560884054 8.269583385756464
Pd 10.734131604671287 9.269334088195086 10.10773840010261
Pd 11.883212019381034 11.775278979618083 10.04592181123493
Pd 12.692440854744136 8.386218764591321 11.889543090812785
Pd 8.771307350480761 10.159452213588994 8.305792722929215
Pd 8.447176811574623 7.878716285391751 9.798427826833725
Pd 13.072548439644054 9.74035777084931 14.117975505556188
Pd 10.358562471520756 6.984739969300966 11.520886637764717
Pd 12.321617817409047 13.083766737741753 12.451968480980899
Pd 11.104712270813705 10.584981940030897 12.451381879285526
Pd 10.366754176023239 14.015566493228432 10.789268294156694
Pd 9.226263809356238 11.515011936580505 10.717831831232532
Pd 7.298671067716504 12.329055903119427 8.993541544116683
Pd 10.735275303364952 8.249564772440404 13.803088266136946
Pd 8.468667989008575 14.727196675311198 9.036130139965183
Pd 6.984236340746343 10.059075385968029 10.391855022587384
Pd 8.756121359090711 9.093641488461548 12.170101040454652
Pd 13.339963292596705 11.033823394789888 16.323587162927467
Pd 11.569756677360612 11.987261725835411 14.727304369666138
Pd 11.145731551940267 9.635026877906338 16.02818140924243
Pd 9.681874633898232 12.864797178804755 13.110062850896442
Pd 7.725877486987783 13.641727054798313 11.33516144195067
Pd 9.22355151018688 10.504718482488055 14.420741101144614
Pd 7.400342075252777 11.38759288152631 12.732636184799375
