36
Energy = -151.03023776 eV
Pd 12.596115133740176 13.738078148725833 9.727756190647298
Pd 10.067111758308773 10.252417468250561 10.197587114317628
Pd 8.50824133963754 10.033667919106914 12.26106062305587
Pd 13.884470511252637 15.141884166784902 11.53286667840639
Pd 10.5955842155302 10.928891124238538 13.607237038280328
Pd 11.210633107667283 13.522561306105054 12.873143616179231
Pd 13.580150947761721 13.695817797690948 13.86358915563863
Pd 11.533149145374606 11.601738434840113 8.489731199247501
Pd 8.729751979224098 12.636255048433668 12.522000891492164
Pd 14.23753418703466 15.253932384636204 15.877241298619259
Pd 16.646489470500633 12.002993281450292 10.125653050956425
Pd 7.869531006112797 11.646040410247258 10.250101120772309
Pd 16.53495586568697 11.435927085271517 12.798548232150912
Pd 14.430412164286695 12.588715845273482 16.41501289780979
Pd 12.567094260214583 16.18644042206223 13.61079388110174
Pd 9.491933383821479 13.160192956978621 14.948917564805093
Pd 10.063284206442182 13.179184874390286 10.222028173530639
Pd 12.649650032361269 9.53724579161975 9.862147923299911
Pd 9.844338110702523 15.62960871276383 13.573045682952147
Pd 15.354063138645891 15.924764457267642 13.582650208834757
Pd 14.286171425400982 12.48931246891432 11.67565932867568
Pd 11.94520206136398 11.608647151844822 11.319120913826696
Pd 15.418274293084323 8.988713136742783 13.348591201161923
Pd 16.09349511763508 13.512383579595673 14.523941825950933
Pd 16.407139727568993 14.041086768785362 11.922633326928981
Pd 12.329445323377074 9.750913562739209 15.199680845635898
Pd 12.860156127745812 9.549498121979898 12.60042648085843
Pd 14.178457275314384 11.62447272773242 9.067903137918217
Pd 11.955724706565928 12.292781103006531 15.542530995216232
Pd 12.530453726170089 13.893834849135926 17.67372935543074
Pd 15.014741352039968 10.028139476636646 11.023105126614762
Pd 11.358438626160792 14.886528873617355 15.5744630543379
Pd 12.465205784683805 16.46940867896021 17.324578304255375
Pd 15.225984887940724 14.119246139929741 9.443934792299647
Pd 11.253960403691401 15.503500800312517 11.22880542273948
Pd 14.305626391424054 11.168146118404115 14.212754540525605
