39
Energy = -165.50332322 eV
Pd 12.31391725231069 15.168756891503724 13.013839531943884
Pd 8.446339267878285 14.05908784836632 14.743205692653998
Pd 9.730116752900328 14.700583789112695 12.459751618348559
Pd 14.228658257485264 14.47261457100635 11.320738275005935
Pd 10.96608639351246 13.332127350069861 14.348942987056148
Pd 11.627247224066373 14.289929641801356 10.605847923902003
Pd 15.97960453657471 13.421303973360992 9.694471606049165
Pd 9.067152053501292 13.635580780881703 10.09121622505771
Pd 7.731810117591046 12.88081202240957 12.48587434087382
Pd 12.788170714121334 12.518836059549535 12.479044587112298
Pd 13.537812977626125 14.064276123727439 8.713131250124507
Pd 8.994664172271303 11.499547527662624 14.629128397400164
Pd 10.130476059228817 11.968591336427345 12.037174977045252
Pd 10.953307332655331 13.820509252107794 8.045514649055644
Pd 15.441737551045652 12.089282142390456 12.023220533949688
Pd 11.4928916879689 10.762462232913252 14.076931142363087
Pd 9.113085444631817 11.848242039878919 8.050386013207115
Pd 11.32095204172389 11.78022181339291 9.67014712610408
Pd 7.508777698865538 11.509364873323195 10.28473737602499
Pd 14.061927738636523 10.347072777562985 13.478536725954081
Pd 13.959482795743657 11.776945526893053 9.92076905090978
Pd 7.339872013718273 9.949306387535247 8.119102412085892
Pd 12.091317540367152 10.024171358976654 11.527920781032408
Pd 8.35168440649326 10.008184428139861 12.487053615635885
Pd 9.505728598469913 9.813675764513077 10.009706976464603
Pd 12.26773128221295 8.260451914784394 13.789475829450792
Pd 12.785671730393295 11.772210534668863 7.49427466268661
Pd 9.699478191500944 8.867424575080623 14.466306963763113
Pd 14.850910733220674 9.562921960786975 11.088924804498902
Pd 6.825083468908741 8.981636724637806 10.60195741560779
Pd 10.884447917952341 9.940430987269385 7.609235209928918
Pd 13.100394878614997 9.432213341757945 9.047416571320571
Pd 10.25922914798657 8.070363719068224 12.002604282711044
Pd 8.615479551409395 7.123601174015769 10.1746985292852
Pd 14.750218875416124 7.800470254517646 13.100060889931779
Pd 9.060630330200643 8.067945135404027 7.679038212729359
Pd 6.581547298400124 7.4187807326155335 8.481417525501616
Pd 12.967670404789297 7.5765646213565 11.155020170587767
Pd 11.065765203119788 7.780392802993285 9.381667354425513
