33
Energy = -137.38215206 eV
Pd 7.881235180171538 12.192478073233568 13.781956977017947
Pd 9.609140387887722 10.51416167686572 8.97294883330996
Pd 11.283661458644561 15.099488321354531 11.686569681557613
Pd 12.130276938471887 10.846397869768582 13.768230992699424
Pd 12.753704371865949 12.669396847732884 11.78695529500048
Pd 15.898597725972776 10.683946559704014 11.744787069801472
Pd 14.603154465533052 11.682038000518403 13.73545060396974
Pd 10.885729559637785 9.287880227929827 15.379387901278124
Pd 13.091184324789243 12.331693942447501 15.778695420360695
Pd 10.138808773249604 12.951725425371192 12.752523312976548
Pd 13.31850204931835 13.125401246574539 7.7937432956947195
Pd 12.069216695475193 14.040724033726379 14.100161106155904
Pd 14.707133887311628 14.140956108813661 14.517109568145834
Pd 8.3408009001988 11.50836958088547 11.20162198578495
Pd 12.836711736103378 16.77182941451552 10.363438363557966
Pd 10.679052846915928 12.786668464495932 7.650287700256887
Pd 10.855661474980662 10.722460104448844 11.364600806977283
Pd 12.233658940900263 11.09787487000118 9.097840543406118
Pd 11.50669878796223 8.437261325030105 12.627016920264563
Pd 13.800594159906632 14.378787950938069 10.070504822276499
Pd 14.201576870953534 9.124116825126242 13.498733479935188
Pd 11.380169397613631 8.64798385029461 9.887093732048175
Pd 14.653898605339451 11.927934726694284 9.776950918182271
Pd 15.465894179700253 13.446843667565265 11.915119820139154
Pd 11.572705025830308 15.015137470430489 8.814869288660299
Pd 9.345825164240287 10.07172703721036 13.370313222884004
Pd 13.41099655679272 9.960688883460229 11.181330555019969
Pd 12.656593052433465 7.534397552971016 14.806518333153809
Pd 8.240967109153665 12.747657677397296 8.776246888808807
Pd 10.25918288151968 12.066013477348916 15.200450162760989
Pd 13.763697811958833 15.491909073919066 12.513680205365901
Pd 11.506653773690982 10.956409433008721 17.242943570109315
Pd 10.396905531076088 13.100749058419982 10.199057868648138
