35
Energy = -147.60850425 eV
Pd 12.180754663085533 11.963447810692813 15.61283630289906
Pd 13.819156849775414 11.068599760318097 13.803572178808183
Pd 10.929309100725366 9.619698590812055 15.247961789535859
Pd 13.66037223996918 13.793146663521958 14.36952312720545
Pd 9.524731543512061 11.975544806922422 15.400772116257905
Pd 15.339837973113495 9.01947715533375 13.005328496407108
Pd 12.767217056876795 8.70429866224541 13.37395775885945
Pd 8.521836530269352 10.182272897825776 13.805491909114773
Pd 10.178245722513804 8.444366791035085 12.928525533760197
Pd 11.023044007428739 13.646697433567747 13.911465375777956
Pd 13.475097474697758 12.933873296491681 11.878880911044137
Pd 11.184420655290918 11.109045723922131 13.089691784381463
Pd 12.414671316601654 15.312990516810686 12.488803631283405
Pd 14.060140897524755 7.9058093201452655 10.959370441537231
Pd 11.811726594128764 6.7428074546636125 11.81564295470247
Pd 8.790897389170887 12.616583318037295 12.879482251506431
Pd 14.310208396922633 10.571778151132689 11.15619416255912
Pd 11.254859211413896 16.71564277075792 10.615365969902875
Pd 12.78023958471966 14.612800427935754 9.9302335834848
Pd 12.909082129375124 11.967879873567776 9.442960582101012
Pd 10.980404877981448 12.883550011976395 11.077691437679015
Pd 9.651222466526425 14.982412433299668 11.926117091639902
Pd 11.864939750501202 9.585171292147043 10.988577801050198
Pd 12.103564810509551 7.282950535410472 9.220687833882359
Pd 7.762005162305183 8.63143446027438 11.836452861733235
Pd 8.314510115884204 13.122582084003355 10.356843412983158
Pd 9.326403542523163 10.62133607611927 10.981569286141562
Pd 9.764211330552016 7.837857606990256 10.360099031322497
Pd 11.877711135714998 16.236951359094583 8.03285441681253
Pd 13.524341982978244 9.490783293949631 8.754487114184435
Pd 10.03816953317486 14.750886422920093 9.215140250387991
Pd 11.918409651611466 13.686944214424155 7.569031342026169
Pd 10.074568102827179 12.04783656226047 8.655824219940142
Pd 10.714676349018527 9.529652296186338 8.644065740077142
Pd 12.060768025906969 11.101168428997518 7.065715848471284
