37
Energy = -157.1654472 eV
Pd 8.6999836378861 12.131738630141548 6.431194420612061
Pd 10.381808776014859 13.741595469468919 7.692523138423382
Pd 12.916690293747886 13.247117979046276 6.972897681194831
Pd 8.130241273527666 12.711702225405077 8.928935783404429
Pd 11.168467368899988 11.185399118450894 6.880407355560113
Pd 8.955725667192768 10.059081109980974 8.04491299483783
Pd 9.934266433156152 14.292994012034837 10.26591948329101
Pd 12.447378102360407 13.819681946286252 9.502835248037403
Pd 10.572179889522348 11.711249392491435 9.425757114333845
Pd 7.661773634839323 13.15474018552348 11.513334001803127
Pd 14.939639685972296 13.23491518799165 8.816738922767643
Pd 8.192928750063992 10.599467846636808 10.540467642161339
Pd 13.298035730178292 11.151044779883462 8.543456982062937
Pd 11.49024658915798 9.195542651979418 8.669968304573977
Pd 9.45669426840359 14.798188687492132 12.810451774002509
Pd 8.014264646253924 11.005824019283086 13.196198168518963
Pd 9.269747293378083 8.027308341297156 9.754411412745123
Pd 12.008821353920744 14.054240446768436 12.10867385907471
Pd 12.585501144904754 11.553436708799163 11.13662181842232
Pd 10.695823762266777 9.62123463859832 11.275826838135512
Pd 14.50438894049063 13.240796964009576 11.460491597730448
Pd 15.468563009518842 11.019185593794479 10.19595696107557
Pd 7.879673667403837 8.501395192114696 12.063014193373268
Pd 10.87748847954242 13.310722361668722 14.417256632506163
Pd 13.57495516269394 9.187931883724668 10.411529134379437
Pd 11.919878555038153 7.201862431236358 10.368171304718322
Pd 10.00598736672593 12.178989997694746 12.081052786377224
Pd 13.619428300368984 12.695966545681037 13.935400757569695
Pd 11.751508481030644 10.882359184921446 13.561040782726312
Pd 14.52265623381357 10.4848464419629 12.5694255375049
Pd 9.770543076000951 9.081774994520334 13.782169188045335
Pd 12.527909106979516 8.428478627451208 12.926333319486707
Pd 10.151756697642885 7.050055940592343 12.250961667756586
Pd 12.190596456750525 11.819993284418674 16.152185028577414
Pd 9.664348610690686 11.171942097002749 15.36264697078466
Pd 13.950142353229538 10.11837093609453 15.029728073423499
Pd 11.549390450059011 9.153545833279091 15.667917581119383
