30
Energy = -123.51996059 eV
Pd 7.161481279070889 11.71140123297364 9.385163640742215
Pd 8.063547646630273 14.255307101608455 9.244934263237546
Pd 7.681634643724456 13.078086003242404 11.604283149805664
Pd 7.74301444527639 10.330453216197558 11.605034660334361
Pd 7.537360437860058 10.439530574260704 7.111026097955373
Pd 9.218002935485613 10.056047940017429 9.4519148254228
Pd 7.4468181988048014 11.786840818117204 13.859357684852961
Pd 9.116326149336105 12.375442995019942 7.5988287026222405
Pd 10.06081269469787 8.858554015650876 11.781079196427026
Pd 9.862009394783941 11.726385096134246 12.738633117297132
Pd 9.857102118762757 12.60859247837985 10.22645129486641
Pd 10.75017519306791 14.266306858699275 8.251218457620974
Pd 8.76724814847815 9.566433430577996 14.003606013332938
Pd 8.43706020807948 8.124770825249087 7.769649188084342
Pd 8.656925063690156 7.285019579229891 10.28161117522637
Pd 11.199336379985775 12.461840660465779 6.06863689664156
Pd 10.494728892208101 10.005424884520568 7.141387634869424
Pd 10.254808016811436 7.431460616634504 14.195149459448826
Pd 10.756704091157742 7.877946086903929 8.902247862160594
Pd 10.728677775382437 6.339518214176182 11.751448814618389
Pd 11.839370187790838 11.884546501936395 8.494456366543226
Pd 11.47026155787815 9.838784438707489 13.724877559198326
Pd 12.390574004466089 13.405120890236047 10.554700337532928
Pd 11.662592160714876 10.87028520665006 11.01373278790062
Pd 12.80861028640472 9.497570717530888 8.580577382282545
Pd 12.742422116321837 7.552545966541692 13.283642974100593
Pd 12.450083905963744 8.102056447673805 10.783440172510272
Pd 14.107518114113805 11.401618851814131 10.078767582983101
Pd 13.752445753117279 9.885357435259317 12.282084059466786
Pd 14.887748332243897 8.882151047901134 10.137458774224356
