38
Energy = -161.07182434 eV
Pd 9.900315058035243 13.635605858298028 15.001767581923396
Pd 12.508693869500402 13.206636278100126 14.077119559201314
Pd 10.818846465936382 11.144025108818091 14.986520511381167
Pd 13.506792325057486 10.819743392681302 14.80164169357466
Pd 10.910385722964405 15.15865236809701 13.01285583114717
Pd 8.259800602311342 11.658796842533102 13.857578101787404
Pd 8.346055423852269 14.21660223898789 12.829933766218055
Pd 14.087332901342302 11.81298065137663 12.346164663269363
Pd 12.036096601873728 10.232872078060227 12.729717627339856
Pd 9.129912495202683 9.175107731184491 14.566938103880819
Pd 10.466173427302003 12.454261140091038 12.634641045822889
Pd 12.566731796912846 13.799334828168034 11.353312810684027
Pd 11.741249462900633 8.583886633944724 14.730215542808075
Pd 13.031793693354272 7.740645976495439 12.448143139426312
Pd 9.962846189240063 14.22010653615234 10.665622470487317
Pd 7.04181203896088 9.68452539541073 10.852489036544643
Pd 9.410152051335615 9.906771364317466 12.066888289883568
Pd 8.205134559968712 12.106534449716293 11.131048093920382
Pd 10.255673519349598 7.493435144433795 12.762924324892671
Pd 6.721333058180205 11.499394202381431 8.952641264768186
Pd 11.416060691875034 11.5300723543789 10.411369160715738
Pd 11.354389920974873 8.673424822838703 10.617567661867142
Pd 9.417647235111557 10.257038597355628 9.30419524721093
Pd 13.831774463378212 9.694101302407855 10.734261968010347
Pd 9.048854721097305 12.81099250242699 8.681269086730252
Pd 8.852430718679669 7.7739257143681035 10.372720893599817
Pd 7.485769035494671 8.893109225094847 8.270740297524428
Pd 12.047616900015614 10.036277796624308 8.389437521346986
Pd 13.95384539882799 12.144894824769525 9.712319456596799
Pd 13.314040184851057 7.616695042976383 9.147737854466953
Pd 10.613007957064406 7.388619475156964 8.433726552721955
Pd 11.670449718886468 13.512313219164325 8.73382159014102
Pd 8.169717835070237 11.13940999233499 6.781427896445232
Pd 9.89810845568431 9.206483656295436 6.742640979721322
Pd 14.645220682931033 9.875917152139918 8.206657929687054
Pd 10.727427595551356 11.74891632033229 6.876047095000584
Pd 12.410471355079103 8.177467781477178 6.679953563314302
Pd 13.297446828378208 12.035847278644393 7.163201414240168
