32
Energy = -134.03137867 eV
Pd 6.458225665822805 9.664500096910949 11.911447198221246
Pd 8.304809457725067 6.451236726853041 8.578807392772234
Pd 6.61122199971653 8.513683011024513 8.246583831340933
Pd 6.838772663737799 7.404860625790706 10.673817727290384
Pd 6.561048868362725 12.348945884453101 11.876656572485228
Pd 6.671486080012618 10.71832976775433 9.55082160388761
Pd 8.008376290205476 10.891675822742483 13.736823456851935
Pd 10.88260446618011 6.953826720636483 8.924805926724693
Pd 8.883744868314526 8.841431409262318 9.844559200087364
Pd 9.06553941210913 8.655296233867656 7.21955869978167
Pd 9.35220746580564 6.402787220040772 11.090408071348076
Pd 10.555677928429748 10.559714920387098 13.212373759970122
Pd 7.602749139121565 13.18832597819806 9.564158867118973
Pd 8.862539299936014 11.089922054836357 11.12108331187547
Pd 8.845866438192626 8.614519516858934 12.510799264536695
Pd 9.035869013632524 13.175353829974734 12.666030231637187
Pd 11.23948801973972 8.34468205414586 11.309519357306243
Pd 11.556585130661611 11.146234213448649 10.814811184564142
Pd 10.0953357366167 13.332447390854927 10.187550738365656
Pd 9.015327993498994 11.226684692363184 8.359385109803625
Pd 11.221836215884228 9.562475926036644 8.81776664660047
Pd 10.664056173518457 10.607288047700402 6.285950523051103
Pd 13.368497790667327 7.784887440199431 8.502062719247737
Pd 12.901232999431238 9.541707684766418 13.032633044783413
Pd 11.570484578554563 8.05735153901653 6.528544670726314
Pd 11.62704920201635 12.966752044359872 12.708725582078873
Pd 13.582468708477583 9.346817908327035 10.507994322903471
Pd 12.684683016404723 13.671927907345854 10.305347138738872
Pd 11.551830620365152 12.198409285294 8.263150858071537
Pd 13.200349065086469 10.146464610908295 7.200351410547186
Pd 13.911985110508443 11.750327604099642 11.923904468170203
Pd 13.98790897221975 11.578819962022795 9.242924892059476
