34
Energy = -143.8136459 eV
Pd 8.167711630038413 10.983724280001365 7.6586163715739985
Pd 8.439984124402908 8.735369248883961 9.13809832329427
Pd 11.882925839989143 9.149773245196721 14.204663322507828
Pd 12.03443340395133 12.323233970928179 10.828384071499753
Pd 10.826485423304042 7.466625242404587 9.230035268801295
Pd 8.118280857971596 9.425056177322181 11.725237151792266
Pd 15.253827913860569 11.23081764937299 11.940210543794176
Pd 8.974991399766688 7.005376881100947 11.094446451104853
Pd 9.415050082482491 8.168755220504966 13.585974835585008
Pd 11.350091395986315 7.806397397444479 11.895352554960844
Pd 11.946850396150339 14.997694747038219 11.158997399814831
Pd 10.020458863197536 14.860767866226753 9.247215638128049
Pd 14.00013249473288 13.651741312927445 12.233222738761544
Pd 9.702619961588574 13.547162906788918 11.45874492586201
Pd 11.558196549376833 13.624377117672976 13.39721229048402
Pd 12.497630449499868 13.92250098179339 8.757113743040174
Pd 14.454911022706947 12.530841730325292 9.841285224692415
Pd 13.379736148408247 7.350352670464399 10.183122267459012
Pd 13.01753759049506 11.409109370093578 13.327948883144154
Pd 13.592057004099386 9.164154170185327 12.131085548372612
Pd 9.0169158207744 13.14079485864069 13.944259690860674
Pd 8.455390499508058 10.581935860471688 14.156170865717666
Pd 7.901532728693851 13.108746197929072 9.434908830103717
Pd 6.691813353463147 10.697387212317437 9.891663273886524
Pd 10.335474783915306 12.489916382292563 8.14595580258675
Pd 10.538822228776306 9.815856299857893 7.815969547995247
Pd 7.603096301752497 12.05263999927732 11.985854939363
Pd 12.88321417831295 8.6070960661376 7.877125589718953
Pd 10.900363430373686 11.53524969879045 14.997999182878184
Pd 12.757462845720879 11.304802663917412 8.188535436818377
Pd 10.51125115820204 10.698245500144099 12.510342166786383
Pd 9.476194775224482 11.066465087360038 10.127559868186898
Pd 14.501036425437938 9.811562489109422 9.709592640714142
Pd 11.829974377116391 9.772466380263005 10.211035950298854
