31
Energy = -129.74574174 eV
Pd 13.634395524613856 9.543884459703898 14.975989315071338
Pd 11.226727162302593 10.546968447585119 15.009429653868084
Pd 13.278926436358862 12.057231509186455 14.179359012162726
Pd 11.778416390447646 8.550186438743895 13.232878159155824
Pd 14.008878406074272 10.035920384001917 12.43387302177018
Pd 13.684453668454825 12.611766530358786 11.627523580393316
Pd 9.325005468712815 9.687328929807551 13.275754141652119
Pd 9.560827975324816 12.301119431386295 14.005576097050534
Pd 11.505104965086298 11.053858539027951 12.35889989201954
Pd 9.97052923602256 7.854312411452587 11.356310913292118
Pd 11.571637393473434 13.681937212393004 12.876287856759818
Pd 12.461954894976147 8.827201702632005 10.68727465832264
Pd 7.595944051876394 9.20439065753777 11.304809155143765
Pd 7.461363107848355 11.52703043870563 12.64284938050618
Pd 14.653561174821848 10.669575589494016 9.923147346244756
Pd 14.139466510894758 13.342395737722331 9.19127855069595
Pd 11.613812266569122 13.865101143801308 10.185886078970809
Pd 12.144924894530256 11.350672299474756 9.665735287682077
Pd 13.195551319069045 9.079796511228192 8.197459837906772
Pd 9.80919966261503 10.337724331704536 10.408334693726411
Pd 6.262877903417251 9.526920279764804 8.995826333656579
Pd 10.694282870417403 8.456839316272623 8.736715452192072
Pd 9.452296326005122 12.818428693840984 11.387715190669859
Pd 5.4247298174405305 10.745798745451115 11.229647371280596
Pd 13.854228605385723 11.46426147504957 7.3430912703807625
Pd 8.23079904277092 7.728008913285286 9.199722503435627
Pd 11.96851871678689 13.326509505663875 7.598679130105022
Pd 11.183024599961438 10.713437970274878 7.280555914625115
Pd 9.712838928565914 12.495314403869608 8.729276470648182
Pd 7.461399310189959 11.75917968237207 9.879524641881748
Pd 8.656153966925201 10.111740600407703 7.981172061613762
