35
Energy = -147.27182061 eV
Pd 13.42403665107368 14.557526535141248 9.449159476661986
Pd 12.78764566128713 11.532844794617903 15.661361678642082
Pd 11.910276071866466 10.35038971675638 13.500757350203202
Pd 8.015063818879689 13.300415907586254 13.188449386987191
Pd 12.005201352930483 10.572068323688965 10.369071111433442
Pd 13.043904203987573 8.09405577116633 10.110556165544452
Pd 13.185464017930439 12.124274610324674 8.221746644891098
Pd 15.98575378106353 11.224577737944946 11.524682879004757
Pd 11.225448947387532 13.033718023021104 9.674636546026782
Pd 15.435881267741067 12.870483917096191 9.44029498841741
Pd 8.840378278078454 13.129967455673686 8.657365114386643
Pd 10.485974031734566 12.179874855863241 12.155423405113183
Pd 7.315402124244872 12.542443008859749 10.79459237201017
Pd 10.253284842356909 14.661917464352598 13.64327663998466
Pd 12.297616243829786 7.756853433396044 12.708797363914751
Pd 10.961592834761445 15.620001704175943 9.404163917915513
Pd 12.503550691842253 13.273833575502575 13.740176801186907
Pd 10.298335008057503 12.06519868138659 14.845552645594566
Pd 10.217779157670382 9.112963484006212 11.750016240870211
Pd 8.207724112027886 10.719290237961612 12.5008547168593
Pd 13.561268191012573 12.556776745694748 11.360177911206453
Pd 15.634897768284548 8.316470184207136 10.755427620950822
Pd 11.95683248058549 14.746183234752024 11.681625390442301
Pd 10.841411416945721 6.718069949678013 10.76272970111012
Pd 14.563638255180244 11.626181361903763 13.744674511244865
Pd 8.64257341312431 13.917602322861091 15.625103436576206
Pd 13.967628348234886 9.680179897115272 12.147545904402124
Pd 9.276824897247266 14.35326221919791 11.0750736675924
Pd 7.788193342530245 11.361221781113711 15.056194949128049
Pd 9.19485097052274 10.879485768371465 10.025892096243092
Pd 10.531490407131272 8.71765289349601 9.041507556776283
Pd 12.799323924127139 9.484937391553261 7.7915079793987525
Pd 9.562333500163756 9.453534884937255 14.307397087917206
Pd 10.708545037220242 11.135880551347363 7.84686093279238
Pd 14.621737464372934 10.317441028511283 9.492808532585107
