30
Energy = -125.43251856 eV
Pd 9.054779674858498 9.226533354154963 6.364425536532926
Pd 10.124253354146994 11.60287668523268 5.935754075294341
Pd 11.741696037184743 9.287017902509994 6.243046386413925
Pd 6.420098503498242 9.451057603110446 6.462583881924786
Pd 7.629011999295309 7.200929256446643 7.422666612453682
Pd 12.374127793608118 11.862801754586588 7.3342194776143605
Pd 10.193481893899941 6.865739068935573 6.6610560942093935
Pd 7.8728379476369 11.511417654532858 7.347466687672088
Pd 9.976979102878136 12.7098071132226 8.518024785919765
Pd 10.490879702046268 10.180378237331718 8.382799313297792
Pd 8.01114478386095 9.417785390182157 8.96073433422751
Pd 5.271055056708999 8.049367156081185 8.37385104200507
Pd 11.746072755600078 7.853193917860847 8.53336632779196
Pd 13.584959898145673 9.710599833329358 8.328401285626676
Pd 9.46012124557045 6.575662422107958 9.220647374070085
Pd 5.712153896213623 10.638827333454794 8.865615770069894
Pd 7.105733453578096 7.368944368359364 10.209347825178547
Pd 7.518699301010124 12.481176932812579 9.763455975054782
Pd 12.182708296071219 11.367077488938829 9.94047024556278
Pd 11.582165653973991 6.442715345382658 10.801812794777161
Pd 10.133982550579258 8.825960991830591 10.56775961232922
Pd 9.119354895567543 6.791986632315208 11.940074877841411
Pd 5.014269558083664 8.85221855928498 10.87997996219123
Pd 9.602700964608047 11.414172379829974 10.91505790301044
Pd 12.881780755737392 8.860828571672226 10.78590723580614
Pd 7.166512571613802 10.317629402664503 11.2679405301309
Pd 6.904204903639193 8.127047232994101 12.720657350378369
Pd 11.41221903226587 7.972128813459463 12.967408208821533
Pd 11.574775040073066 10.548387959839195 12.40720752145211
Pd 9.159415781707647 9.507907041196992 12.900437376002136
