33
Energy = -138.4212846 eV
Pd 14.520480707126135 10.568171831657404 12.55675889404394
Pd 14.141685346597296 8.263261493049917 11.163448680506516
Pd 13.569953608689163 12.195501713928603 10.756724193010669
Pd 13.60645326274919 8.47704727540079 13.869561340281821
Pd 15.22995585800076 10.28975020558963 9.955408917095584
Pd 14.428230327515552 11.974668038572938 8.126077920799066
Pd 14.062585359276847 14.42634681710174 9.276661831955856
Pd 12.232621463322742 10.86509575042462 14.04063398636221
Pd 13.617632727096618 13.003680837192785 13.294075175887894
Pd 12.219442767150749 6.792147905483278 12.352856562241083
Pd 11.987913206094914 9.676097777317205 11.734792670550902
Pd 11.777801139787838 7.672933239528726 9.903322613397023
Pd 11.516281637374956 15.45814799645615 9.124368803211752
Pd 12.027453633351872 12.94686481277532 8.512544097675862
Pd 12.433090096946048 14.445720009365074 11.384256645837455
Pd 12.64376140254886 10.186953594126821 9.109794335354806
Pd 10.989387324453968 8.49411000744941 14.118190876162952
Pd 10.829398914126172 11.993399495296241 10.74043829999425
Pd 9.716398552215612 10.547661130608587 12.843201240047055
Pd 10.939551016403561 13.0300757757126 13.156206935865349
Pd 11.002409730212708 8.689934287316085 7.604610875421811
Pd 9.76912903202012 7.780964202528473 11.802434400012851
Pd 8.402521248622083 12.792331826059435 12.38511306049419
Pd 9.460252365791172 13.687773250201303 8.575273059134497
Pd 9.84375953636921 14.520165219242278 11.04989633062945
Pd 7.1128832709366 10.853963997766957 13.681171287424306
Pd 9.84469062968242 9.505358464469502 9.88042820542108
Pd 10.225144574207855 11.193960156854008 7.951364624868754
Pd 8.348553706836856 8.504997927130916 13.924890349394225
Pd 8.304762457923133 11.61017991898401 9.822455925375845
Pd 7.334197845576324 14.05029108092058 10.270863664717446
Pd 7.67545892713644 9.522728592158703 11.468091488907051
Pd 6.154264046666839 11.824188181933826 11.363128491786737
