36
Energy = -152.58397604 eV
Pd 15.768898106633827 10.557557010662821 8.225104882360593
Pd 14.499741401173171 9.200590423773736 10.05947861513486
Pd 13.297452411796089 7.833658552704538 11.877093492659606
Pd 12.205026094991709 6.379870801023545 13.74547444001484
Pd 13.167865813793819 10.087105964958932 7.805438334447599
Pd 11.906275279397486 8.539405728453138 9.685415579319232
Pd 10.645141584351702 7.121684104451921 11.674248600768259
Pd 10.506647142746464 9.88786133263179 7.8535902889353215
Pd 9.2325377892279 8.408868098991395 9.818516191539508
Pd 7.846863081082853 9.69793370912216 7.928930549542482
Pd 14.908365879917959 11.918879261648152 10.34187517484848
Pd 12.42472308068558 8.999496795560429 14.229209287199481
Pd 13.738001478091807 10.46416858728753 12.336240264573421
Pd 14.168734136710489 12.594187014364936 7.8134900512726775
Pd 11.51183974008526 12.379198100653005 7.861809834861066
Pd 10.02380651064501 7.75438134455048 14.22577254312348
Pd 12.383891337223048 11.21759654844216 10.059436813055168
Pd 11.096195340320982 9.70718488498533 12.04707961530822
Pd 13.622466271819352 13.141167976104631 12.3217840506927
Pd 9.71537575979279 10.980506595715703 10.122290029706582
Pd 12.879427633132268 13.796315552883081 9.822513076949527
Pd 8.584869473921508 8.979662428121973 12.361201709252388
Pd 12.344484711812333 11.645811480915606 14.310085247003945
Pd 8.864621770137346 12.201562235373233 7.944071337010174
Pd 11.107982694939267 12.399410330182588 12.109454528408959
Pd 9.975195916361717 10.406100619794291 14.328728342480936
Pd 7.203136718184876 10.276606441536245 10.501147697145644
Pd 10.20775856974017 13.664115416292516 9.81953597526932
Pd 6.2779882456378555 11.734886859854466 8.463500725895056
Pd 8.485994910981704 11.657743552042591 12.483064136163385
Pd 12.296066906494069 14.298278426061104 14.31080357878674
Pd 11.554614540183877 14.992180604379117 11.799444292070357
Pd 7.627826497690374 13.00429681437621 10.286951325540194
Pd 9.884661337675539 13.060921924687916 14.359665037782298
Pd 8.901828303758071 14.300225447663104 12.091010420613621
Pd 10.095927641751826 15.685519545779394 13.942804650050956
