39
Energy = -165.18471985 eV
Pd 14.166282146204408 11.374834468560945 8.973065839496345
Pd 12.39903604104607 9.314655506840547 9.063102660579636
Pd 11.919577646429017 11.362827624417948 7.4832612124872675
Pd 15.315214457526286 13.865977760005423 9.454845472034803
Pd 10.138097618733418 9.353995600981133 7.580589385810234
Pd 14.070847887399818 9.723504835677037 11.05907275456594
Pd 10.39739657879311 7.750932957068894 9.692579760565053
Pd 14.699520321154857 12.241430651344787 11.484051999263908
Pd 12.934536819168727 7.301743259917631 10.72670590384609
Pd 14.452180583924275 10.674098494823708 13.541205040075207
Pd 13.25177714123386 13.565998002519988 7.812525868708656
Pd 13.385109945757591 8.254687228606455 13.184880634100196
Pd 8.834295046292864 11.715047410836025 7.856569643825708
Pd 12.050349506596223 11.594318878232444 10.582771467582763
Pd 9.703387573930351 10.312445462645822 10.05648055807607
Pd 10.108319034708769 11.210736298290566 5.696034275136351
Pd 10.784622754292654 13.24025125738701 8.922386679005784
Pd 14.960112476950629 14.88503121857013 11.869092429741738
Pd 11.309488566174476 9.125266320924652 11.806726117907202
Pd 9.714969772317463 9.869487505305969 15.92376242757513
Pd 12.838995807816659 14.16953319857111 10.398177400804839
Pd 12.50272928477478 12.684577333124505 13.115343387394857
Pd 14.931074352777578 13.24656731098397 14.008285864679717
Pd 13.815190944810706 9.148438872825324 15.62115681443728
Pd 7.136303125394028 10.558792175485586 9.547103582477204
Pd 14.470721433795529 15.808060680270334 14.277937395655506
Pd 11.776054572955319 10.198595634110603 14.231023951830739
Pd 10.202275611031352 11.657008391024968 12.451578188539473
Pd 8.517681698520787 12.715317095233067 10.254822541442216
Pd 13.554744685558072 11.777876517869155 15.775291046650137
Pd 9.23156520590901 9.335451835697503 13.386067652167823
Pd 10.421253690417757 14.151236887641256 11.3885686027906
Pd 12.611623773968752 14.230493735682169 15.363577013619972
Pd 7.60725214423338 10.973706383593926 12.096127909703796
Pd 12.363369717063218 15.305796651872615 12.782047081137614
Pd 10.95753543107502 12.18246530624606 15.724986007047185
Pd 10.277610389750981 14.101754918274873 14.041317009687212
Pd 8.050082578808642 13.644448368300171 12.690276364862621
Pd 8.580848117052522 11.814642444584445 14.518636539035272
