33
Energy = -138.73908436 eV
Pd 8.196521709993005 10.50416310901657 7.631474471083291
Pd 6.9068208962951445 9.765708880397732 9.879399166118388
Pd 9.548698687344382 11.275997950225296 5.506991783131794
Pd 7.820679175490564 7.419961629871192 10.969738563087265
Pd 9.31302805374161 8.631105473297263 9.171416081816487
Pd 6.507841499917015 9.112644700225271 12.517916880472105
Pd 10.74481101634894 9.668822801089727 7.201328360365587
Pd 10.474998185711204 7.616467438287721 11.383693964953249
Pd 11.934980009828356 8.133595275167517 9.116406918622033
Pd 10.062298037948823 12.487389134487675 7.831197172549715
Pd 8.398971689137914 11.994897113435595 9.825932329851414
Pd 6.701219629294835 11.639617965477068 11.883046259993726
Pd 9.10035356271177 9.984709160227583 11.506665609488495
Pd 11.055513426376143 10.77174649594522 9.613664357646437
Pd 8.710982904938593 7.9221974986971695 13.423899737000621
Pd 12.124498428075439 11.818018563483472 6.276137798066203
Pd 13.26615597227458 10.275976116323177 8.044418461529958
Pd 14.488212584862518 8.748205081099636 9.789800987177836
Pd 8.313792544227455 10.624076700599216 13.959312795974586
Pd 12.532763964463468 9.209700087044267 11.50960059991325
Pd 10.811962416213591 9.471690846884833 13.521143489813472
Pd 12.620033070733575 12.895999479724678 8.685540882086473
Pd 10.54725715653349 13.538146292748879 10.263740257608994
Pd 9.02007364034154 12.656048490467825 12.345448829763917
Pd 13.893727983448272 11.33565443432559 10.430768992120312
Pd 11.642873698269273 11.748201995415009 11.988811713275092
Pd 15.056024970325101 9.740487663853415 12.226260159054341
Pd 10.65982276618435 11.984937627007161 14.45388282431342
Pd 13.112981199153172 10.697428000198684 13.857859833516589
Pd 13.124194314300492 13.804181644112147 11.21962943687809
Pd 10.930109326196161 14.331985497844604 12.804003868754883
Pd 14.932633989771794 12.341208778128694 12.640330761412509
Pd 12.993895244055501 13.381567531614804 14.05037831469122
