38
Energy = -161.4888867 eV
Pd 9.234234019046875 8.963684246572527 15.307391654659469
Pd 10.779185846899493 11.047408843114741 14.511507292754224
Pd 11.521327586577186 8.47916209450019 13.882261015415605
Pd 11.978363930602367 12.783800903780287 12.884622337085435
Pd 7.875804506347113 11.08346052037241 14.327858635626994
Pd 9.257697220119967 7.021930712572357 13.443579997771481
Pd 7.137075591759257 8.566441197297367 13.596085291546602
Pd 14.401883310218208 12.588586811921735 11.995221663848854
Pd 13.169174131004528 10.460863571602067 13.290077418624918
Pd 9.530894928537439 9.734631197325015 12.629739884102126
Pd 9.356495779269125 12.618282028727547 12.824931543600616
Pd 12.794822765991327 14.432470334040831 10.600959740711865
Pd 13.326286619803751 8.003223336861184 11.94240297933111
Pd 14.588562821886335 10.14969104953807 11.004822190683846
Pd 6.793496537777468 12.894504721762939 12.436845722455363
Pd 10.83365728447626 12.692417223317696 10.558579071620235
Pd 10.593190386453061 14.935134435847445 12.15516737779208
Pd 6.934325829635276 10.406936514802663 11.770557146229288
Pd 8.212846440490512 8.156434764236298 10.986524330144219
Pd 8.460135752456141 14.042105172417338 10.747549112749864
Pd 10.772497311796895 7.463684122305778 11.437479486473443
Pd 13.428837889037371 12.023431967781379 9.601614447979212
Pd 14.896798279923527 7.900923054272797 9.743014031936879
Pd 11.75091051578393 10.09722929785524 11.107740056623172
Pd 6.9184981006641655 12.155723006186761 9.716488226622124
Pd 9.016212164156727 10.71977186763791 10.233327446651057
Pd 15.220860697963927 10.430490189558292 8.422674918857734
Pd 10.442177456970901 15.247644717075268 9.447291237340986
Pd 12.393559379645183 6.828204520988797 9.582877722496699
Pd 11.097455129062899 11.016555581930806 8.644644579155033
Pd 9.193338027314653 12.994415348256906 8.372755416024509
Pd 11.891433704062615 13.557159895992474 8.013921187321403
Pd 10.20568133682097 8.500275920530717 9.056166741769374
Pd 12.926501679165257 9.141132163330585 8.590077860724998
Pd 13.111679664372598 11.331766496739064 6.9434454684936595
Pd 8.69394617048559 10.415087738783015 7.602661421014427
Pd 10.529045684092445 12.00342051678183 6.2074695564654805
Pd 11.066638309645766 9.32851898127799 6.618841715087279
