36
Energy = -152.38642999 eV
Pd 11.480736097303117 15.280261669032337 13.993829237557135
Pd 9.088239520385116 14.760786384766414 9.235663565668709
Pd 10.050799616176102 15.162980357918686 11.793837507085817
Pd 9.840332711434321 13.276778563558628 13.685923671850778
Pd 7.746043613802584 12.570299950873451 8.650435222009918
Pd 12.63715311155332 13.012573322424483 13.388706902121752
Pd 12.752523698037272 15.043687885959207 11.654409053165812
Pd 8.623301742344035 13.019006815794754 11.194959625011725
Pd 11.242276635917634 13.52103127841756 10.075691390085879
Pd 10.28952890750313 12.905854844688854 7.6284834011128275
Pd 10.932743821836361 11.56983306313534 11.920173135236512
Pd 8.193380216273134 11.257267363444052 13.112247111166747
Pd 9.238459390780777 11.516841440085436 15.533355832497737
Pd 6.484446087085296 10.359257904104131 8.125258671304662
Pd 7.234389009162915 10.816306975607167 10.671589292674623
Pd 9.798675680592694 11.052646251468223 9.548522331772412
Pd 8.904808078042542 10.538354603030712 7.108856697536022
Pd 11.495579038487074 10.864087056013323 14.388283637050682
Pd 12.3775716408666 11.544468524315471 8.730289411058438
Pd 9.266322386796011 9.31970644533362 11.687680349249991
Pd 13.585609650679348 12.644096433913498 10.860645316306096
Pd 8.283203254035076 8.769949948790718 9.17686262817912
Pd 9.438120208406572 9.150635858496855 14.325693455178785
Pd 11.445234735558644 10.768147918102313 6.412909720934076
Pd 11.738206510818948 8.596600179060438 12.981127074294069
Pd 13.348798257335071 9.278855910134592 7.689117596880985
Pd 13.461581120300586 10.598389579461385 12.582225890367402
Pd 9.656884464637207 6.904129714083705 12.891499224105278
Pd 11.857281299677513 9.470357709108049 10.461879664726265
Pd 14.406923165577737 10.307714065893819 10.028248823582533
Pd 10.130003206897452 7.299174035824484 10.240909724024412
Pd 10.737394643084492 8.790489631255046 8.06897679868387
Pd 13.98233011670177 8.130879102953593 11.550396236505836
Pd 12.034838510735153 6.284954822670767 11.73714562145796
Pd 15.122644329321632 7.946116620629719 9.114673401901923
Pd 12.635044172792755 7.211077275193302 9.311688456841793
