33
Energy = -138.2188923 eV
Pd 15.491781523708541 12.094823834219838 11.658612104184197
Pd 15.212416004964437 11.206070031016381 14.113419902081375
Pd 15.09153961770982 14.704443337112226 11.65730461439506
Pd 14.460654539093944 10.619560823792819 9.598642302364889
Pd 13.878589381452477 13.509466784436064 13.685109953272619
Pd 14.036883968847183 9.7513922360747 12.18578205125734
Pd 13.80122114503524 8.100401117488833 10.150086366377518
Pd 14.070044411097912 13.297357594389155 9.648243595351971
Pd 12.429184383662387 9.016571930468167 8.030341321662164
Pd 12.891296228609757 12.118821385979762 11.729936549827732
Pd 12.629528010317989 11.113762507099736 14.172158904063048
Pd 12.427093653519762 14.683887056562355 11.586357098569497
Pd 11.915358761513286 10.248225482512602 10.216141026238875
Pd 11.104011867634101 13.393894497113875 13.624306116737564
Pd 11.254176045736523 7.6295854920852015 10.372299505506307
Pd 12.9152869120905 11.73764005834758 7.778488147981869
Pd 10.108228374991862 11.079013196120007 14.57721592557677
Pd 11.39548737970942 9.226147323669242 12.667109633004522
Pd 9.424463864175333 7.456302691126185 12.276511307494788
Pd 10.425543624654312 10.977201036402196 8.095320739524219
Pd 9.926046174557147 8.433086871729277 14.712404557672803
Pd 11.414589420596338 13.065587007233267 9.567995143012652
Pd 9.789435778770748 8.365580017401344 8.176958634230884
Pd 9.79463961724936 14.27927859818736 11.376394344509123
Pd 10.241866904593136 11.618795083579556 11.76218878804524
Pd 9.266605227692711 9.45682550098237 10.501811621139966
Pd 8.38310139875127 12.641812611270282 13.225608493745785
Pd 8.417099097340307 9.821904187983586 13.009319123042246
Pd 8.863890004006711 12.505578869174196 9.57130349740087
Pd 7.898077616793928 10.275407572661026 8.404611169936402
Pd 7.14932956886626 13.752363907498973 11.150662889322637
Pd 7.200076051084108 11.098714133056914 11.125247549045222
Pd 6.305520586990218 12.312213974276359 8.953274470325619
