31
Energy = -129.57680163 eV
Pd 12.724353389720475 9.246908998570865 7.3345330224859095
Pd 10.362902475961748 10.180667207753412 6.377182130472229
Pd 12.512384172930624 11.80015343091792 6.320926443764562
Pd 10.42410277198569 8.571577441963692 8.48121072078294
Pd 14.4309060269802 11.29844943531753 8.031671421106703
Pd 10.208260588012111 12.7088314731451 7.173391086002051
Pd 14.036661384807344 9.212218283312394 9.635063761923785
Pd 11.550462467044254 10.893413073721003 9.000356208344094
Pd 8.617764300549084 10.85503686011822 8.264071478047278
Pd 8.12870485689336 8.209400585469917 9.553461530165357
Pd 12.597163487475033 13.27959186963489 8.66823462484622
Pd 11.767574992161558 8.587464932702614 10.696709525153627
Pd 10.203635578661782 13.00894678813408 9.749032080973729
Pd 13.7618802000833 11.705903969550086 10.510539396802137
Pd 13.826239654799432 9.60696488432052 12.259131085018302
Pd 6.522986093093824 10.332215677361653 9.912676208893897
Pd 9.25962132600808 10.349893206878857 10.736371521573826
Pd 13.886318525383881 12.250195200653021 13.0786293673303
Pd 12.043017124014057 13.487855571236047 11.55463527978029
Pd 7.704629459121147 12.655693932308038 10.101066931874662
Pd 9.561894134367806 7.7882166836131805 11.776671917913601
Pd 11.529274078794485 10.915090225236721 12.027291385020245
Pd 7.090360026869748 8.758892048554623 12.006456777744194
Pd 9.461670143697782 12.73807618919452 12.227019872912638
Pd 7.125539964085034 11.40990917971968 12.407700821476714
Pd 13.079965831221324 10.35772710074622 14.731685305668945
Pd 11.483155176839205 8.67548396429613 13.422232369468503
Pd 11.361346175535232 12.4144045122979 14.111693297582635
Pd 9.108236891198265 9.882053720155852 13.344343383214524
Pd 8.683689270675027 12.08757113737413 14.66061209441716
Pd 10.534004891023265 10.28491939187943 15.482958667418808
