38
Energy = -161.42825158 eV
Pd 16.205232909447982 10.590294465171032 9.522670838878268
Pd 11.354437671600191 7.518236724080865 13.505164643209328
Pd 12.649504979647727 8.480089411325128 11.316961077804562
Pd 16.494621574971255 13.251723806035608 9.570300812665305
Pd 13.930456969328768 8.194036634630457 13.642387787263175
Pd 13.81594951220276 9.541652159300362 9.107556347859225
Pd 15.128579434672966 9.352079361487156 11.56725356634728
Pd 14.168647367447461 12.235491945382483 8.796411948665499
Pd 15.152477925607254 12.025173100672568 11.513727450868421
Pd 10.126951022820505 7.700397250453709 11.136998306840427
Pd 11.393042060265067 8.57720189197956 8.88583217413539
Pd 8.887007140718223 8.537376894337669 13.358878286656946
Pd 12.07436461687877 9.514032546759742 15.162402167425777
Pd 11.77094630331842 11.177309545675234 8.297491089129059
Pd 11.06848804203097 10.112272645931622 12.811109550843721
Pd 14.313592087228411 14.392910065499034 10.532679724600456
Pd 12.685884023977735 11.242663502672324 10.880445467473754
Pd 13.709375309286202 10.808555697243625 13.39168878162272
Pd 8.885060244059305 7.733307444920944 8.793121390745865
Pd 10.081715490699043 10.326663809820188 10.437222513027356
Pd 13.282683911245673 13.377258281442803 12.797035311657009
Pd 12.016508909946179 13.631314729306803 9.4811309601442
Pd 6.779446037782424 9.300417180845466 8.49624030943928
Pd 9.509593803498955 10.602282936220771 14.938329123926172
Pd 7.745536586465714 8.892868368546791 10.949052112283974
Pd 9.211667660816797 10.255763479557812 7.967775207890283
Pd 10.776653207397127 12.903212103818456 11.84461071135997
Pd 11.67410261039359 12.141071428679723 14.520467958674926
Pd 12.082543759183725 15.423974184094138 11.487575683772645
Pd 8.434642659186974 11.027826729641102 12.460589746397051
Pd 9.619959445806726 12.607950137836792 9.159416453892893
Pd 11.416222287532765 14.701202280637487 14.150987231978101
Pd 9.196293440961524 13.113244394040793 13.975605083878603
Pd 7.425053559714895 11.38053591247972 9.964498952534653
Pd 9.84795992678099 15.073165415584864 10.043954797946887
Pd 8.191414620723991 13.439355393329384 11.396053878018039
Pd 11.27669393947483 17.12900752673785 13.221467657135582
Pd 9.40055400971838 15.441024967675315 12.610115562483768
