31
Energy = -128.05888225 eV
Pd 10.400330275370578 13.616844421560728 9.214086592214176
Pd 14.603810279184795 11.891145434510706 7.985985492187645
Pd 14.439741885948877 9.057503442306396 11.375882948315736
Pd 9.683483154221795 13.670968030019896 13.824359951121869
Pd 13.089890271383785 10.110166546029058 9.31554301215634
Pd 6.258882322137639 12.67983189005291 11.19580608420956
Pd 10.814081085712525 11.295047372938447 10.31817940766743
Pd 10.699329341549872 11.389281035342904 13.21360207225561
Pd 7.144500673235232 13.790966270010815 13.376564375000827
Pd 13.165154043088426 7.139846236784705 12.706376037959448
Pd 11.049446620818781 9.740953054136837 7.263197502097776
Pd 11.953357086951211 9.405706981443554 12.05155749868905
Pd 10.869177911624055 8.691065148298556 9.64441905991345
Pd 10.561553046158137 7.162731304471005 11.889191003486149
Pd 8.312412059877223 7.759461010933058 10.182177368540776
Pd 7.0749989489724046 8.570861409093919 12.48569020964504
Pd 7.08730821278838 10.289386143585284 10.55553355864289
Pd 11.413540209922168 13.703242972159508 11.80636634919752
Pd 13.154541083055221 11.671359712086167 12.150967742292519
Pd 8.799877100459268 9.994735960927134 8.628572740830247
Pd 9.337875119207283 9.593167411283297 11.83778483341833
Pd 9.396016938195624 7.619406778074819 7.657287330848543
Pd 10.446880570540683 6.022575643531014 9.50692625694171
Pd 7.898267958860583 12.395961786647968 9.115624363733275
Pd 9.559598475369446 12.048853632615826 7.104481429940028
Pd 12.067354527055288 12.06606892278209 7.695078933514642
Pd 15.209283962163758 11.379231235645866 10.5050254456942
Pd 7.763359973416236 11.229375714642984 13.099298122905914
Pd 12.87614800777154 7.202516538348862 10.135880202460646
Pd 8.923580567967623 12.927419012798236 11.416318269341618
Pd 13.100584965939126 13.038685625884105 9.896602483725033
