33
Energy = -138.42373129 eV
Pd 10.71532065339136 9.183284303959157 6.539365910119666
Pd 12.820098916855397 8.561501031873746 8.070139844095264
Pd 12.386290975459152 11.158957299871137 7.277491123727632
Pd 14.233942343104104 10.59357114082378 9.274004817124272
Pd 14.317598855487976 8.105454865427584 10.224062438272853
Pd 13.86309214791026 13.026383537121648 8.352021857256192
Pd 9.798327810432374 11.3137091563478 7.744427566707352
Pd 10.523876546128434 7.209889536392717 8.254154525565744
Pd 8.484795263911769 8.942106666740784 8.089710669911513
Pd 11.746818278757603 7.707306287185226 10.510125021437531
Pd 12.722576058795925 7.761107760666967 12.936818945705598
Pd 11.520404639192018 10.252015083646187 9.692528716490727
Pd 13.2550436930484 9.984352863668587 11.724299272459502
Pd 13.749608420808622 11.968884525259737 13.389889651667733
Pd 11.306143683154867 12.906274313278882 9.225274343695684
Pd 13.361242740238986 12.60721908870512 10.8897424937597
Pd 9.132978764627342 7.774063515857893 10.471890628827095
Pd 9.007872128585173 10.403134433848244 10.28344300507224
Pd 7.1970860124751255 11.31048929305009 7.923812590035262
Pd 12.231940458943827 14.1185661871476 12.825356087705842
Pd 5.915929590096954 9.139683307713208 8.600483321336327
Pd 10.39101281651456 9.053426964027619 12.39920912764121
Pd 11.10424446838061 11.749312670159156 12.043572865261716
Pd 8.57071360301918 12.901623110394986 9.517755441752191
Pd 12.074764539008015 10.028109787828273 14.1786602808061
Pd 6.664570928497513 8.268719823638571 10.898330113850994
Pd 11.68698059932593 12.529701175746036 14.954973946867087
Pd 7.840638416242159 9.772236151445766 12.656414711232419
Pd 10.130767709333542 14.099241001929766 11.231702581687102
Pd 6.491245492631242 10.988193749335508 10.517885460718766
Pd 9.574008755547206 11.111193948448413 14.101632549403346
Pd 8.240605297655184 12.34625389551691 12.111611163027066
Pd 9.693745460445605 13.816007610905464 13.813310399745898
