37
Energy = -156.5104493 eV
Pd 11.943236131077018 13.225115401787841 16.034037271527694
Pd 14.568144969389031 13.571831983961365 15.514630831694843
Pd 11.244004194833492 14.354103025212257 13.566126784322105
Pd 13.813868638103983 11.197543508511318 16.418754832543087
Pd 9.962036368690665 12.235809353547829 14.52658034749197
Pd 11.430346699736342 10.448241983758534 15.75960878164018
Pd 8.561702195688861 13.739868319665057 12.789989452639617
Pd 12.644471658352465 16.067618367879316 11.62128786669819
Pd 13.88999246694459 14.575685997293062 13.284403714371303
Pd 12.727986856192972 12.117934260993575 13.7881766788551
Pd 10.298728112815017 15.116563295414801 11.23353992239683
Pd 15.401018515066257 11.38539634068797 14.29364365939025
Pd 8.173918197006612 10.990419446194824 13.056001444856301
Pd 13.429114335560755 9.572706557751713 14.260023380530509
Pd 12.692411344638801 13.407228979733173 10.98239015484776
Pd 9.007411962691501 9.777076836459093 15.177379240874435
Pd 7.991230645541874 14.613820509349232 10.258960257063016
Pd 10.449623823272104 12.14131208280867 11.824004044394174
Pd 11.947670620807862 15.196317019267672 9.127983090590774
Pd 10.814462357105217 9.618999063027433 13.155956416421487
Pd 10.118105897841561 13.229326102955403 9.387558502631352
Pd 7.7172400932834835 12.1032340865301 10.705593239209975
Pd 12.745533597557296 10.674011616053326 11.671414918888978
Pd 14.982920071208566 12.570393986029684 12.080918424142604
Pd 15.220568141390897 9.917928695182303 11.98783102906233
Pd 9.206879461452093 9.946609385265479 10.896508341829769
Pd 13.178806318466844 8.007300195644774 12.227693550301913
Pd 14.363091773268666 11.646922407350731 9.720462433941812
Pd 12.451749854091817 12.804922886486578 8.160790461753589
Pd 8.784232927805796 11.241612365571118 8.495978923907035
Pd 11.448416802206195 10.725898293535957 9.461834271577802
Pd 13.80007173065182 8.994226964029602 9.810385979300348
Pd 11.203060175910291 8.303178005258538 10.576030016784374
Pd 9.513329905239543 8.699196049686893 8.545224175281229
Pd 13.534483909569518 10.450495768591214 7.541723446058222
Pd 10.8715102367688 10.644010837761012 6.946905152347
Pd 12.03727364163204 8.326938298083299 7.933115219225721
