38
Energy = -161.89731571 eV
Pd 8.82731756842776 14.091030910607815 14.728460173512142
Pd 10.999242565625632 14.49276377999781 13.250425088226795
Pd 13.128395976705447 14.338363288002133 11.659133495628643
Pd 8.482174219751203 14.35122287440658 12.093780683139384
Pd 10.77488475088428 12.24440717818871 15.06565183156948
Pd 15.110532698908905 13.479850168290332 9.997755777390573
Pd 8.328632216018432 11.660301537203045 15.850673871757007
Pd 13.02075755121101 12.762090027542593 13.850758323987375
Pd 10.665097702249625 14.295752688607132 10.587745633000011
Pd 15.383161587451255 13.042099912070311 12.613923545249666
Pd 12.758641496594743 13.73659062867337 9.01311015264383
Pd 10.512501184369512 12.045430121595082 12.430150776454049
Pd 12.205091841025514 10.210092461983775 13.9431403276131
Pd 8.239255544250591 14.290880614392886 9.407565040063547
Pd 13.112697489821638 11.733016473712121 11.355545424322862
Pd 9.600766529623376 9.914793348300387 14.344543669100869
Pd 14.691518421682964 10.520644661635114 13.1712617233036
Pd 7.982249993192089 12.02870231255715 13.297309256520393
Pd 10.44758258876968 14.268165404456534 7.904258458046425
Pd 8.418563762208295 12.000746151023032 10.672105550335255
Pd 11.108352823906097 9.657088251496988 11.5277036176502
Pd 15.86328456503905 11.104607300798865 10.78112881222226
Pd 11.015154379734994 11.783176157496527 9.718589084711876
Pd 8.956219025108936 12.032780848208153 8.04036354364331
Pd 11.701977153223766 12.05097142288501 7.202101337129995
Pd 8.332894075747094 9.790068424459923 12.008738969627156
Pd 13.971286633846502 9.281894725057 10.762347188265688
Pd 13.963149239275678 11.25477059146904 8.79629677265983
Pd 11.000118504218676 7.7932760982987705 13.441068721879931
Pd 13.561739815617956 8.05960268322685 13.032436034765515
Pd 8.40282638529089 7.6814363235756655 13.581385866720174
Pd 9.170122168770364 9.702293602211991 9.48491244156357
Pd 12.1600673084466 7.316584388268148 10.845576758750513
Pd 10.25024389732186 9.821899872353859 7.087125779015269
Pd 12.03909290176542 9.390934257362867 8.996633690692727
Pd 9.414488389111037 7.502006266755526 11.15059553335613
Pd 13.03842711027398 9.919292523465607 6.652750993124248
Pd 10.393771996530747 7.409872161211986 8.729698468248332
