37
Energy = -157.7627817 eV
Pd 7.236690711062659 13.651323177384839 9.318021113054394
Pd 9.484569482824833 14.766914088066033 10.314464638475705
Pd 8.443722821184576 12.448150090845052 11.357686459270042
Pd 6.4324002609525 11.129042943746432 10.074775914881995
Pd 9.497794372359657 13.612997678526668 7.874051211977195
Pd 10.747876063932027 13.590484534039184 12.299783119823157
Pd 9.711074275036758 11.305005580518209 13.361919168388752
Pd 7.770409207012872 11.618852611245421 7.724706490108723
Pd 12.217375837351637 14.426776625701205 10.030836090206613
Pd 10.689326090404958 12.333280674087458 9.80978281016566
Pd 6.037833381221953 9.63838823744661 7.881340869756582
Pd 7.236907127239709 8.41860506960511 9.848914699253838
Pd 7.674023215952961 9.94994908815255 12.12340410283047
Pd 12.050556498565685 12.370681706763976 14.278274412607018
Pd 12.104391294149687 13.1382448006616 7.582364377773086
Pd 13.481596949943603 13.262817485520083 11.999112286809625
Pd 9.006878435974137 10.369476453291776 9.705545940595181
Pd 10.976279134347134 10.067047407244816 15.326572824599468
Pd 14.685200066931058 12.061010590548733 13.96692047059437
Pd 8.502031736232183 7.266395359477661 11.837762050398185
Pd 10.293215654431588 9.155785753717963 11.752571341012198
Pd 10.369211564521127 11.0761058346544 7.2844912861679205
Pd 8.573734358277123 9.008442264222152 7.435462523245171
Pd 13.190108015305677 9.89444772041768 13.890011816146785
Pd 13.46604928658035 11.972992321987673 9.585044180159871
Pd 14.620509180379743 10.699227488418758 11.678844278362948
Pd 11.650326892199338 9.817091015156977 9.50314180857129
Pd 8.89770228062089 8.795246405005923 14.142705701268417
Pd 11.969496044867428 11.115731037339936 11.87031640389185
Pd 11.137548585220598 6.549390884047469 11.501273273263827
Pd 11.419632889621884 7.948007294998636 13.755992495065325
Pd 9.823663977602898 7.646294865149525 9.419852474476436
Pd 11.186822032778643 8.511508381493792 7.227495491869916
Pd 12.98384441720158 10.577521988576517 7.3217417298709915
Pd 14.270862538779726 9.374576248523772 9.375247742148304
Pd 13.03628597160017 8.47980094594545 11.597307382278998
Pd 12.484533926835352 7.296838949565806 9.266662277618481
