33
Energy = -137.28197667 eV
Pd 10.622386599175709 14.3669467171482 14.610556585633093
Pd 14.46245596827801 8.819754095812538 9.743771758166478
Pd 12.927382623544077 14.621885094803712 15.936168372551894
Pd 11.651924842887258 12.062297771205502 15.691287410699463
Pd 15.451842929772752 12.567381364854871 13.080677780249728
Pd 13.205074096795375 12.614106116078252 17.70377274633495
Pd 9.061798872084497 12.488607277343693 15.608430990666356
Pd 12.784734387466031 10.669236073773476 9.069011769197143
Pd 11.307176619320584 12.878746810764964 8.591512306545813
Pd 13.171689739476802 10.591273049814452 13.716422344024444
Pd 10.841938946952938 14.59500734109431 11.96125369824095
Pd 13.916038126189328 8.528416161612357 12.291329428294942
Pd 13.363501779901938 12.140171383707196 7.005390813056929
Pd 10.619406688574987 11.615283202601276 13.283811020438243
Pd 14.462314487226742 10.984223983204862 11.318053701433561
Pd 15.352067647256165 11.217166941873016 8.716838048277596
Pd 8.033710706596482 10.87137079731698 13.841620140039257
Pd 14.666623671775918 12.585070569870354 15.526594739972955
Pd 8.676954834724578 13.404389654580353 13.074875999398898
Pd 14.095042236384163 14.610118232512086 11.645239974511066
Pd 9.604033063391404 12.590342175280801 10.658209491950956
Pd 12.162369387132351 15.111367681129051 9.826508462352935
Pd 15.068607636067668 14.895363878627297 14.191550863402353
Pd 12.214731972733922 12.478345071069844 11.125687098466004
Pd 12.872925909778552 13.193412360789385 13.55710976753033
Pd 16.120211518250578 13.065534541550214 10.639355074302944
Pd 13.964406487078621 13.357227395879253 9.231440560895829
Pd 7.220334995813436 11.817889133278474 11.526447356320036
Pd 11.827220326112348 9.835952237102259 11.411791288300428
Pd 9.20130043644465 10.063865022407496 11.62776557260515
Pd 13.584090434538089 10.375035056863206 16.29945620226156
Pd 10.19780519541477 10.450372739896915 9.242144986276038
Pd 12.594595730617392 15.840538963912191 13.552612545360905
