36
Energy = -151.35313646 eV
Pd 8.055327932083754 10.74404973648891 8.672581113425062
Pd 12.159972520769191 7.865253576715914 8.56997098180442
Pd 12.049549868974747 10.871682273755024 10.903120484398594
Pd 6.7853441508337005 10.134224750021207 10.95644546559558
Pd 11.651932610588222 15.035572343106127 13.754123874767036
Pd 9.394896554027985 10.570980968724493 11.072848164100778
Pd 13.216417879972166 10.010073227626984 13.172129690837949
Pd 10.81260845972882 11.855082146828803 13.100012886429232
Pd 15.028242358850894 10.07844289333212 11.32891981737271
Pd 8.321996635063863 8.368445418911987 12.260447589284665
Pd 12.300402454743589 15.55433664999511 11.231311097339196
Pd 14.85607475325691 14.736998105241197 11.518330787291045
Pd 11.515604941760763 10.287792312820523 15.137611660264414
Pd 10.335873917822441 8.255447910429291 10.378134712652004
Pd 13.776270401879193 14.674560418204207 9.06339453344773
Pd 7.846570507924792 8.179411841054344 9.510309943486936
Pd 13.070000957162453 12.343623038043187 7.845814464881766
Pd 9.803503914875257 8.859251218328945 7.8219107082467705
Pd 8.013233137354952 12.28127189760243 12.453369077917301
Pd 10.735712003114267 11.188272992830514 8.622243744639494
Pd 11.65544385921453 13.363661213497476 9.871426271219113
Pd 13.754638758083283 12.051857071909728 14.654434146152552
Pd 6.553680776397363 10.14176450894976 13.485446357966621
Pd 12.161972780195313 9.920533872180522 6.869755307054392
Pd 10.888927440203336 8.93974098204329 12.849611690013411
Pd 15.674500485879577 10.283590343860169 13.950543694240467
Pd 15.54408228108434 12.4447075483286 12.57022107724276
Pd 9.00472892363886 10.271050815282912 14.16650465759024
Pd 12.916776409721672 8.35639755496534 11.122808860926758
Pd 10.060576055569888 14.05120240487892 11.939337230305563
Pd 9.108246192875052 12.943016255457021 9.821493803217663
Pd 11.435108499667441 12.996400452829565 15.332619891369971
Pd 6.59918450580429 12.570339691515654 10.148885430803388
Pd 13.685019794806317 10.002857076997692 9.036835755414598
Pd 12.927017423913515 13.226708826383927 12.447982978951353
Pd 14.319703101907402 12.37380728480164 10.203065660432875
