31
Energy = -129.44783638 eV
Pd 12.415145920758068 10.97409712056945 15.047816512014125
Pd 9.882344931887019 11.811122840055353 15.340482728560064
Pd 10.327931984935578 9.244446849914821 14.919586525051313
Pd 12.377931001735956 9.030190107123294 13.184272476947282
Pd 11.65106938841794 13.299983676446145 13.877378888067591
Pd 13.161797588870634 11.535411192252802 12.546377712858842
Pd 8.148933023169125 10.559260186849324 13.419396559318251
Pd 10.594763592311764 10.998905822775034 12.765658436625973
Pd 8.930522077362536 13.202709237520082 13.359367466755456
Pd 11.732312917434324 8.417974861280015 10.696547670710773
Pd 9.77241081399851 8.267753846820883 12.562993162592724
Pd 13.1775886252879 14.013042510951733 11.731502621703735
Pd 14.101702610868466 9.530854110483512 11.146970718992126
Pd 11.307281783018494 11.000812111505846 10.260376403071003
Pd 13.726674352243656 11.93459605981487 9.95319666260657
Pd 13.12368833188877 9.574375275001735 8.673924502195712
Pd 10.613274729690001 13.386940483242729 11.339745131379496
Pd 11.488779228310324 7.509725424813067 8.229762318981289
Pd 9.38147113776617 7.395878690026614 10.056244877487323
Pd 8.783785193244688 9.907661861070384 10.817078106311802
Pd 12.105548172925708 13.928930439963727 9.260349314688924
Pd 8.131384918469283 12.379259262865212 11.02158475889526
Pd 12.012211941903946 11.805008059821834 7.715465808999633
Pd 9.907780789809406 9.641612340004363 8.435715150259684
Pd 9.746111013333694 12.766922342314079 8.87802345320169
Pd 9.000899605013858 7.287236866202571 7.366368024507118
Pd 11.630213671334387 9.546131728393176 6.434202861901487
Pd 7.254431858740396 8.56353120656481 8.941545454008905
Pd 7.699800572324457 11.172405170851912 8.662141908393862
Pd 9.643221605068454 11.487528481162803 6.531968607113792
Pd 7.845776943128379 9.534035814199422 6.538696321625104
