30
Energy = -124.65275059 eV
Pd 10.695155373287596 10.731497364341456 6.418235670694484
Pd 9.583015936383587 8.317179628086825 7.151081377779925
Pd 11.411452092234237 6.498795381030718 8.087981188595139
Pd 12.033493422560314 9.08626957883923 8.016118371398054
Pd 9.986648695213333 13.009718759541279 7.581754916020651
Pd 8.857457215342095 6.177111762192696 8.713027538363601
Pd 9.251428782915303 15.190753055489129 8.883589486661894
Pd 12.182420391522239 11.68039966280593 8.40756347457979
Pd 8.797490286609968 10.661239204875928 8.254104512186546
Pd 7.55313563251754 8.447633020595584 8.992572968345147
Pd 13.888857067595971 10.07170931972773 9.662663303708166
Pd 10.154207601685922 8.59129963349844 9.76031503688586
Pd 8.067113072117118 12.932552200678936 9.573536018816682
Pd 11.510192272112203 14.009181369507452 9.52844968071778
Pd 10.839442532065851 5.779265184842048 10.571032263660143
Pd 9.622194854846802 14.120823690149033 11.340744854830124
Pd 12.230652495347975 14.538408907475347 11.995431054931661
Pd 6.763542535091487 10.739230410859056 9.995856423593136
Pd 12.662339571254195 7.703660884430321 10.251909907162952
Pd 6.4513734455943075 6.229376620285737 9.96570081088056
Pd 6.412101132578513 8.469916747433272 11.476814578257647
Pd 13.156924920917659 12.340891257652453 10.82900936564743
Pd 10.252864866654358 11.59609392353535 10.242482607088958
Pd 8.574561045080612 6.953941536579539 11.258715177330165
Pd 11.980842910958954 10.027014304860089 11.48805711657745
Pd 10.81634180897863 7.775299029005757 12.329803937046291
Pd 11.037190818694523 12.310271068946525 12.663040800896958
Pd 8.680343617216746 9.952083644243123 11.571118289897056
Pd 8.384517241293375 8.206134628850629 13.551715300904526
Pd 10.341120848022765 10.030670706334202 13.615996453235734
