31
Energy = -128.48675325 eV
Pd 13.49022991122259 14.55828815924207 8.183903255357345
Pd 11.585076566100318 13.269955999345322 6.851255834058225
Pd 10.883673866273924 15.053732286576746 8.667113284150902
Pd 14.90225029790995 13.250503424336417 10.11564272329723
Pd 13.075109419944296 11.976580169442522 8.61815605098221
Pd 12.44620154209792 14.016406460988549 10.587500746442029
Pd 10.51533088691368 12.547684177940559 9.442624143210805
Pd 10.787649410835012 10.854229805562849 7.447560605707176
Pd 9.710382948918399 14.453824570176316 10.979976484228073
Pd 13.787305249471604 12.618056547158204 12.463889129323826
Pd 14.177705661839285 10.763855651729857 10.73020214610854
Pd 11.865176999127284 9.8789758577099 9.655839657876152
Pd 11.107942875716283 12.86323464630935 12.486944241679474
Pd 8.365296455825963 11.518054039154082 8.527533445245233
Pd 9.57378170435364 10.798627110717126 11.193672113282094
Pd 9.424836676226526 9.15845548782147 9.005900834058238
Pd 7.063918512431703 11.27776049332781 10.80400369864517
Pd 11.800306250593911 10.27688350286523 12.372261812742972
Pd 8.412099643242211 12.791781703672347 12.541410830972293
Pd 6.806081603829737 9.411567464057388 8.981127178700815
Pd 7.580258759716388 10.379616716149151 13.29681711405829
Pd 13.472552754936189 8.332119052563408 11.128595420487141
Pd 12.4570651217617 11.914812115161103 14.593778786519648
Pd 7.973028738529903 8.622524386050909 11.276978744759692
Pd 10.588641085572311 7.944722471543791 11.027214580884884
Pd 9.89142587098391 11.261015548334528 14.242760319958531
Pd 14.092954537947787 9.969503762949328 13.379123418721933
Pd 9.663560416195539 8.742935823155282 13.395441764246643
Pd 12.131719337696772 7.650948266870663 13.290896923334323
Pd 11.713128485143072 9.454919220615267 15.084139719690723
Pd 12.295656522525332 6.028773192355161 11.26808310515272
