37
Energy = -156.9760496 eV
Pd 11.55167106917532 8.37688120907614 8.6568816915241
Pd 12.01190414365808 6.312779907360596 10.269005122143652
Pd 11.13863775094495 10.442236190869593 7.0100293285982005
Pd 13.523310452609147 8.485646067119111 10.675163280000811
Pd 10.552334828233318 12.737835246539879 5.731247813896615
Pd 8.599259969191882 11.42389688460864 6.849986537778686
Pd 13.050484662375275 10.547696946172637 8.987951025976736
Pd 12.364882565394451 12.774045952781277 7.617352872494371
Pd 9.698842715473006 13.541400051171593 8.125673708702852
Pd 11.916967028516567 7.466885575505573 12.714310972284744
Pd 14.951966589316397 10.69413479927021 10.9603405900963
Pd 14.218145436413975 12.903190111037315 9.44046979230424
Pd 10.500643639714212 11.370735958520756 9.439213357834962
Pd 9.04733811592268 9.370375837349041 8.495465186448328
Pd 16.095233115165446 13.074889211242725 11.290070131884761
Pd 12.485372782213783 11.613210633657587 11.470873889711145
Pd 13.63890533975757 14.046695123572691 11.749348352203551
Pd 9.497289411235188 7.352987213243713 10.183896253232275
Pd 11.046682163545684 9.33036491888777 11.075949511878298
Pd 7.9079611203041384 11.772971922007434 9.39540231408007
Pd 14.655164121225585 12.102663041436106 13.270360086939158
Pd 10.20762373066258 5.559163512301351 12.027378903479468
Pd 9.094558481614065 13.81096084359257 10.722208577928681
Pd 13.40344031118725 9.688289808282377 13.07485830681197
Pd 11.659361018474534 13.77493204427826 9.98332079786649
Pd 8.305279429222237 9.674484766863362 11.032913859180653
Pd 13.280889878836472 14.21945089415618 14.308112667509725
Pd 9.876663258477931 11.6807740025933 12.067505934033404
Pd 9.157904091891243 7.822880938296247 12.823816325741817
Pd 12.185894166184408 11.86890403930718 14.1549845844803
Pd 10.778933239964573 9.711856612235371 13.770379550924496
Pd 7.263759207116023 12.037308837404687 11.935496982663166
Pd 8.530579039407664 14.057633739910841 13.31460072172297
Pd 8.070200075267485 10.015107845117578 13.674568044961594
Pd 11.110376327086472 13.966280823477815 12.671656197723827
Pd 9.654180361815328 12.05849222932448 14.67759155921845
Pd 7.040044195017753 12.271017273669463 14.542997660721758
