31
Energy = -127.67108416 eV
Pd 13.332404879884054 11.327210163677533 7.1449409895041684
Pd 11.761711598061305 8.63417987493533 12.863758083171014
Pd 15.33188704426077 11.659776464737657 10.856634745976862
Pd 11.282811392011654 15.09615037958993 14.769164779949318
Pd 11.240220868071656 11.812275752739154 8.642057636613865
Pd 7.989977281213996 12.093650759319122 12.588205714731489
Pd 12.8714318946743 10.263354817685501 14.519156843321936
Pd 10.915993320917767 17.361387393470334 13.555870168373898
Pd 8.38420662208207 14.063771356828784 10.663509391983967
Pd 9.922342065073103 7.406040509773162 11.45426817097571
Pd 8.62449691792875 9.679086383223641 11.740158187899048
Pd 13.55758615398594 12.927365429659101 9.28834617212902
Pd 9.765532163781469 15.952109396659674 11.746727198136918
Pd 13.983191689413488 14.502346310723619 14.263150678654688
Pd 9.370927196120752 8.400928431099915 13.877950616726679
Pd 10.881230332571215 7.26149951456074 9.025641621666109
Pd 10.391319583513098 10.92286632282296 13.30442068199478
Pd 14.021682444399564 9.704877621600968 12.112162239732287
Pd 11.797480459477892 9.343412638574021 7.834848666230417
Pd 12.111860124782982 12.729621564024384 14.16480253797031
Pd 12.32555523086136 11.722517538106656 11.532670727913995
Pd 14.725052197925587 11.924774629521307 13.422684128570634
Pd 10.151710325943768 13.63231762167073 12.793488387649923
Pd 12.942727687152885 7.815708889518183 10.574449191739973
Pd 11.026813160636586 9.638686754501148 10.404457981920205
Pd 11.24788008137963 14.01920644714801 10.291713488144822
Pd 12.288549417320551 15.499216300053822 12.380681563245213
Pd 13.623755100693524 10.189458988453865 9.509140369526172
Pd 13.980405564596047 12.274192594287696 15.90073266935952
Pd 14.00493195286623 13.812018093461727 11.6724978300088
Pd 9.651393484675566 11.837059293849281 10.608776772456716
