38
Energy = -160.88711937 eV
Pd 12.957936473416867 14.649664808136864 10.823225697014193
Pd 9.598832412119885 14.313598730304722 7.759671125957226
Pd 12.16960674769491 13.923694096403503 8.276557573835708
Pd 14.532789792142637 13.187885006845852 9.329137308908313
Pd 10.423238223351897 15.096161355232764 10.158437576346143
Pd 12.63140131275334 13.071540023051687 13.029439451605064
Pd 10.394857069864896 11.823683795896507 7.955214239581223
Pd 8.59476318606076 13.118437482034505 9.893613943672484
Pd 7.804797437104056 12.188312230540303 7.524118040851618
Pd 15.019107282982178 13.57741694552303 11.976154509215977
Pd 12.977910201571579 11.29809762016148 8.318896371489082
Pd 9.73079274915751 13.431246577285062 12.262423944951053
Pd 11.405150531783681 12.504672651045665 10.400274773321552
Pd 15.319405288642024 10.62848731587688 9.35773813311813
Pd 10.676339250333163 13.707177404243476 14.726585618036816
Pd 13.729360027516822 11.416500563072168 11.22008644392813
Pd 6.844491798617916 11.001127661610658 9.639238485409523
Pd 11.323063827758459 15.459915584397203 12.683677247355442
Pd 11.258644260446587 9.400952477180784 7.501365988800029
Pd 8.654836324605165 9.707129529536772 8.088908239159059
Pd 11.910529134192974 9.614771215799784 10.058700962064094
Pd 14.33743778036826 6.687561725327584 12.017860851534135
Pd 7.675301023190607 11.848854214672212 12.07077002910572
Pd 10.046138823275038 7.753909487700025 9.232827733522079
Pd 13.357440332324163 9.135450762728293 12.362355372637861
Pd 9.473972779818226 10.587141301310137 10.465746148868169
Pd 11.168613101084926 10.76480115068734 12.503406935144373
Pd 11.892838055264729 11.40344483128183 14.945010093052817
Pd 7.828481017813719 8.512443144608334 10.496065798822158
Pd 5.962084258146584 9.860438164312775 11.79206551973842
Pd 12.1073129078748 6.866228362716265 10.624989115941109
Pd 14.2370468499366 8.412002020504172 10.019919738211428
Pd 9.243710732293032 11.516574047715565 14.17945271561669
Pd 10.205670433087842 8.22338195367041 11.83043557456913
Pd 13.03457827212046 9.094711623193467 14.899301676902887
Pd 8.20569944520367 9.363664200396254 13.062208212360925
Pd 12.070275702453252 7.0911020510751515 13.38500412999824
Pd 10.449569023524658 9.011841753817658 14.383138549250216
