36
Energy = -152.28984898 eV
Pd 8.213598535016743 12.813423647928817 8.52299628839023
Pd 13.347147724390114 11.939604381626761 7.654589261041312
Pd 10.633277159347353 13.43740055379408 14.583624308056589
Pd 9.208685983117581 14.629255060718208 12.680441156318564
Pd 9.56988529920509 11.935842987867305 12.639740544771158
Pd 14.290963495175838 13.202522793720139 11.910305856287055
Pd 10.828372856284965 8.080937319488193 14.72847785902583
Pd 14.275485786214391 11.26525787139782 10.029316028959041
Pd 7.405583380392012 10.574387960626735 11.613238653148423
Pd 9.359113047516425 10.201680372989982 7.306733097617247
Pd 11.971489095195 6.991127683987266 12.31358348320674
Pd 11.906192347764152 10.126314103875176 8.954752572048521
Pd 12.366537584928999 9.538085594679826 13.289758975977325
Pd 12.818515542400544 12.113272023625647 13.872171135705518
Pd 12.633467818741408 13.469746604684968 9.789344792568585
Pd 9.339025555909664 6.6990016419039575 13.050182860130764
Pd 12.001507450365212 7.36321956852526 9.427588302313318
Pd 11.802476669530504 14.039380752966755 12.283148485433953
Pd 10.62286128001774 8.953340168791838 11.248503825265841
Pd 10.65725925353236 10.815220781110206 14.861949088996795
Pd 7.319272974922112 9.714608209609732 9.059682914569295
Pd 9.116677912925022 12.495567052351884 6.023569814609418
Pd 10.040780113770596 13.609442091819282 10.343811296008724
Pd 9.062642114106495 9.373776215942696 13.28413460459368
Pd 11.925944580135702 11.426676253347425 11.362221574050547
Pd 9.965344591118495 6.139284638440451 10.585681766124342
Pd 9.441888548846453 10.97664765238501 9.998044828944769
Pd 7.578223755196265 13.14160273287319 11.070313600565829
Pd 9.536785952169145 8.162716025283919 8.871066348214804
Pd 11.501828446710011 10.990288946321252 5.9740380021006745
Pd 11.417749417777623 8.491253917848022 6.99879350508159
Pd 10.835234981743353 12.536101650023198 8.066388232954257
Pd 14.638711138577344 10.656147790843066 12.592366178364223
Pd 6.935863204884609 11.207956550832458 6.938015802595277
Pd 13.431957564816754 8.928016817025714 10.94147324218156
Pd 8.086194215151624 8.075012869734662 11.069692626590857
