38
Energy = -162.13490129 eV
Pd 9.0318416473289 9.203159654152087 4.697777441408097
Pd 8.197053038625725 11.696314312198627 5.189154474536872
Pd 6.533393495125713 9.599467339968983 5.525287560645688
Pd 10.67947757149491 10.92785739617925 6.1726585075203
Pd 10.147167426788403 5.8466675385617926 6.315075248520963
Pd 7.783467531296629 7.395159151082926 6.478602096966448
Pd 8.544841868961234 9.912880949317993 7.445178398521266
Pd 6.5375832829703135 11.631944603879786 7.345811280406915
Pd 10.520915943113744 8.352690234817306 6.6117037126976355
Pd 9.081660812992634 12.68996747757372 7.44534516607072
Pd 7.974456251634244 4.862110346753218 7.536061170505582
Pd 6.0772742135383755 8.996788758103062 8.062304653059497
Pd 12.07231197124751 9.730094723212757 8.193787644937672
Pd 11.91309255623764 6.932766342858798 8.297591860271043
Pd 11.753640771419967 12.458468792595035 8.1891823871331
Pd 9.21379125300165 7.016702266668566 8.709579646644286
Pd 10.539426927012926 4.536321379189515 8.587526638559089
Pd 9.996218868947897 11.03954631418618 9.461485327673413
Pd 7.950093271066701 9.215318953968504 10.044936549050114
Pd 11.57920379474616 10.460560935477092 11.776268628773273
Pd 5.332586946292918 10.948509354963187 9.68942496502798
Pd 6.656210763247324 6.627866320527136 9.013056229393653
Pd 8.464096428426773 4.902135384044651 10.23192138902801
Pd 7.623520202738668 12.190240388843936 9.724621516507924
Pd 11.792987937703954 12.905130368242826 10.907810290027502
Pd 13.084523552084029 8.292746369403627 10.42562557621715
Pd 8.854241563716187 7.097643143620238 11.676709382330708
Pd 9.695862993364951 13.863936209965313 9.67773889108489
Pd 13.417026357497555 10.99775334288948 9.994856942030696
Pd 9.208518158373495 9.592120201426141 12.529844726585619
Pd 10.556448811500747 8.641306482913404 10.153436932879305
Pd 5.5355918867411145 8.446805396337687 10.665660053800883
Pd 11.10239895780771 6.045249024387672 10.723068522531955
Pd 9.337844463732122 12.178487798719834 11.825625685990719
Pd 6.409400914118355 6.081074481664585 11.574201393365968
Pd 6.927765753927149 10.8043435295843 11.885217872322542
Pd 6.913242791083427 8.34617707498301 12.961023056184771
Pd 11.347674032626664 7.920542669272525 12.641693193322013
