32
Energy = -134.01069494 eV
Pd 13.081505617121767 13.9029121408072 10.932124784575047
Pd 13.596703848670828 11.418227744337907 12.048117814514391
Pd 9.307347060224478 13.29313253607075 7.567156895126884
Pd 13.201398672317342 11.220777421130965 14.69964523192029
Pd 13.460060367971675 13.877698519446742 8.290922103074099
Pd 13.167120520496407 13.57489864635471 13.601210502793478
Pd 13.6660010831009 11.491489493589254 9.395926532527193
Pd 11.535393126264662 14.38220152137431 6.553561987129528
Pd 11.24660495824052 12.15933194256134 10.20753300106956
Pd 13.876525029096522 6.807930816138373 11.848901283364476
Pd 11.05281827388452 12.106095280249152 12.874766865515145
Pd 11.650551777474387 11.973061629792658 7.572019298838308
Pd 11.010319743253248 14.627337653954218 9.126361221505084
Pd 11.765815943311766 9.630301720557732 8.822697023060735
Pd 8.765815869547822 13.215882457569558 10.200893998966723
Pd 13.85663097064562 9.129157121088271 10.551096706377008
Pd 11.862698280072353 7.281754867235532 10.193603016646964
Pd 13.623449050876282 8.999038069100358 13.304311458614139
Pd 10.49807446524511 14.561254620789692 11.636315789259065
Pd 9.638722747302285 6.356328620344835 11.371569464986775
Pd 11.444002558936454 9.741405338935676 11.495769197675054
Pd 12.385742685288182 15.871927611366148 12.784837880202831
Pd 9.383018836640534 10.917428755296479 8.791953146270307
Pd 10.72270083414835 14.3500712878535 14.317568135092907
Pd 11.522254384548194 7.4052272151302425 12.852519015794327
Pd 9.50450249020917 8.622895608344841 10.043362808933178
Pd 8.940921828297439 10.879073987007182 11.49210170546326
Pd 9.06745541088941 8.523192781669108 12.795395289734378
Pd 8.628045589981959 13.179334831953348 12.91476094543973
Pd 10.741755182982176 11.989288790860401 15.5003815827348
Pd 8.732054930974154 10.817586738806854 14.139301551309709
Pd 11.113971110201915 9.671767444956622 14.19662251146903
