31
Energy = -129.90060553 eV
Pd 12.559224985827294 9.238616117065279 12.017764770397832
Pd 13.035462804512425 7.386604039233159 10.034051678839173
Pd 10.478336968714734 6.350693533487382 11.589370121610875
Pd 10.521897789890764 8.419332055378012 13.360859603900678
Pd 13.51512187406338 11.651830482431532 11.523344700341552
Pd 11.404559076948905 11.20547647715262 13.471642239541666
Pd 12.92524911623424 10.026118415295153 9.503118489337156
Pd 10.953068784938061 6.183843845175515 8.857183408678338
Pd 10.668459778874094 8.517698072137229 10.25104657573155
Pd 11.997825511219975 8.416350495873969 7.649004726020587
Pd 8.27592366060719 7.882539737407999 12.102206840849998
Pd 10.789923314510538 11.140972852025817 10.917017315713396
Pd 11.804053714546829 13.621818394912966 11.682876247171585
Pd 8.94353246570336 10.397460261868577 12.648875908093222
Pd 8.448820005668058 6.611923466112141 9.713256918018534
Pd 9.389139685602325 13.002589533437877 12.479089587285733
Pd 6.428981193357374 9.915466859047017 11.8382357099573
Pd 12.567380452068454 11.015151371413198 7.05436195967347
Pd 10.196011073982634 10.606793430802197 8.440531272463847
Pd 8.247510357461064 9.362954911283085 9.852120498560566
Pd 6.1146266857216185 7.675189323814863 10.505688059663532
Pd 12.378799472505223 12.60353082068213 9.22946385348841
Pd 9.404285095707637 8.024162882713142 7.668831447818138
Pd 7.811562866275048 11.838211563965322 10.677796902130675
Pd 6.750895423038502 7.932569497824733 7.978184175814022
Pd 9.83828388571812 13.373786581770055 9.806612670924139
Pd 10.385310627949032 9.88475654625128 5.935638616046451
Pd 6.097171935794314 10.551913559741083 9.009641282865507
Pd 10.5325972299175 12.855496505316138 7.2222018458061585
Pd 8.00595400825624 12.46802599328536 8.126782116058143
Pd 7.902931889371045 10.120573530635296 7.048744578701345
