39
Energy = -166.30744619 eV
Pd 9.016847051615063 7.667216651489826 7.1314812487942385
Pd 12.34153184116749 9.059145233243404 7.218341469869147
Pd 9.881590606412342 10.112714509000439 6.554171080708295
Pd 7.949314841168547 9.728467416053922 8.354425357131102
Pd 11.128777618371311 6.6687512531627835 8.304011921390302
Pd 10.644102350751735 13.960381782200775 8.787562684832373
Pd 11.514531902165537 11.55116441906196 8.015322519683664
Pd 10.564005524134618 9.149977874541879 9.102138949961025
Pd 8.779260928818955 7.354263823348972 9.844405415028243
Pd 13.347190725816704 7.701625929043979 9.31574501659818
Pd 8.73823840543799 12.319437607275361 7.748015475243272
Pd 12.347693678964873 15.464355932459686 10.210370769550702
Pd 12.958045455680516 12.901591465663714 9.78103290678492
Pd 6.79295565139662 11.68725155254996 9.666980187512735
Pd 9.7366906093435 15.851364671052744 10.685673091976714
Pd 11.1751076146329 7.0791964474761055 10.949746409754404
Pd 8.281736238200235 13.79042936997596 10.10933793333376
Pd 9.684403459414849 11.42270465704269 9.993854503577449
Pd 13.728870664366038 10.464009057509676 9.043747650179268
Pd 7.909503307544501 9.607706738146712 10.971742038918071
Pd 12.349674520242525 9.499742800111827 11.009953338190549
Pd 15.198563763125906 8.984028397638825 10.783644667714041
Pd 10.852774628542258 13.34461054441891 11.394300288557817
Pd 9.13816715197826 7.869619646584398 12.530826529748586
Pd 13.66102130237793 7.146476474488078 11.975665802146958
Pd 7.972989391722204 12.062200470258684 12.07447602438153
Pd 14.92461309187081 11.641537108593173 11.148145937520534
Pd 11.458712251811383 15.67245549925593 12.749596394396734
Pd 13.60391243400972 14.089884397957583 12.167320539750598
Pd 7.566386828526656 9.918852230869186 13.557709193933139
Pd 10.189346869435333 10.437562538174138 12.402291413360055
Pd 9.04715677360959 14.322465263615598 12.951062906815796
Pd 12.656633477601341 11.682777439173753 12.313281598459747
Pd 11.687749047080425 8.304425663978648 13.325673259918897
Pd 14.044207586746284 9.606815834732116 13.162200349628865
Pd 9.292770649275596 11.927187749968894 14.407266842878416
Pd 9.712356461940296 9.172830037366245 14.880071620457315
Pd 11.497824812144664 13.346227875008646 14.00866329010717
Pd 11.86254708713303 10.730826930912817 14.61255958737302
