32
Energy = -133.70768296 eV
Pd 7.9415428598137865 9.560702036918842 8.962803311766885
Pd 9.490641775726628 7.511299334732281 9.381190937605133
Pd 6.686274712372074 11.909366235955666 8.822875464794482
Pd 8.957683953636899 11.520560743154958 7.41797852338759
Pd 6.967648907453677 10.628462074118488 11.132352320043209
Pd 9.675913288463374 8.990326655344061 7.060641660537245
Pd 8.321396220599203 13.951108643986172 8.181643760611877
Pd 7.251023689084209 7.914182605904515 10.893463769894234
Pd 9.986947959047283 10.962599620153195 9.73698714324219
Pd 10.76303451877299 13.513003597933936 7.138995949176385
Pd 11.560847439834786 9.079488829708943 9.011981521543836
Pd 11.557694008379299 10.92776128424304 7.126063747058074
Pd 8.458343622205902 12.832525515326203 10.603474465597873
Pd 10.425944903841964 14.465535053632413 9.658457493202294
Pd 7.564445599348599 9.130246883639186 13.251771277799913
Pd 12.097079518114676 12.486607070008338 9.147332068210742
Pd 9.69908257741774 8.363906620268066 11.814691706463773
Pd 9.102668291430783 11.194976538435064 12.596335579282448
Pd 11.864622889198321 7.2287361529298515 10.79373734775785
Pd 13.745484660063624 10.439597750855517 8.819660744759707
Pd 10.896574660470515 12.917665467745419 11.805300628270327
Pd 13.831629432234749 7.74201803418439 9.002652669274845
Pd 11.517522864989067 10.269472701029024 11.781233898828786
Pd 12.8576857910613 14.376829289662561 10.795969731466577
Pd 13.704142670776765 11.81725056732911 11.09996258214622
Pd 9.972883504574218 9.26815215892894 14.291358908819685
Pd 13.847069398414199 9.1456934955602 11.198430162364247
Pd 12.229443845452357 8.162850261186392 13.229848472457098
Pd 11.209169578441669 11.638256101695408 14.188337839130682
Pd 13.130007974187702 13.176602018506609 13.257406401173537
Pd 13.623345480186735 10.525899342506614 13.477179804926019
Pd 12.246400929455138 9.53251483946679 15.504077633456895
