33
Energy = -138.83325664 eV
Pd 8.268945212506829 6.371795481079122 11.934736215913473
Pd 7.10794400358007 8.529881752252265 10.911349265553975
Pd 8.222755137757224 8.582304193287001 13.341345736700719
Pd 9.461041043213982 7.58309519827908 9.874687429279417
Pd 8.206236362840556 11.17493688775873 13.708021693055006
Pd 7.290634260464298 11.167646990465956 11.155341310788696
Pd 10.595961198304082 7.510938261154696 12.537955954345792
Pd 8.358599378899225 9.927629352128033 8.92212251793575
Pd 10.552011518022839 9.849482916278717 13.854404914184645
Pd 9.547848848891496 9.820298447157468 11.344821832478805
Pd 10.692798691960371 8.955684874314683 7.966597847224541
Pd 8.64925131064818 12.564690253622215 9.382892277903919
Pd 11.84975331387328 8.555709008521237 10.463801049931355
Pd 10.39417997054034 12.44722150884064 14.42976347196626
Pd 9.678799695178418 12.465737247225691 11.85207027620555
Pd 12.925357784511844 8.786396298055932 13.10004752406545
Pd 11.22400678296898 14.46129812439528 12.803572546406361
Pd 9.722284561647694 14.783308902932646 10.549328253577995
Pd 12.098872705704819 10.961362071819932 11.84230619299267
Pd 9.695390121871823 11.432425605819114 7.121215933146669
Pd 10.969517317598584 11.189155831519551 9.412359329557868
Pd 12.583826973848012 13.754255623242782 14.969681654893687
Pd 12.803978011270663 11.153745458896749 14.461627127728867
Pd 14.386193456847241 9.13669353403838 10.82447316281132
Pd 13.543458219729095 13.093544157110498 12.623053778152068
Pd 13.191129767852948 9.869233181338297 8.593404346556477
Pd 12.112020012378704 10.524067640081999 6.306109855610999
Pd 14.873648848783517 10.788500717691734 12.802461994965473
Pd 12.008553895267777 13.444143033216445 10.44003294113194
Pd 10.584285925435767 13.904954429557467 8.20432436405294
Pd 14.120289669478307 11.781340277344544 10.341040933152861
Pd 11.408442740492282 13.023118357653182 5.888916166036519
Pd 12.908717346347649 12.493136136331852 8.044779892929586
