37
Energy = -156.54941004 eV
Pd 13.824264121124306 13.53820726973604 6.221361712100395
Pd 14.508387098582912 13.046799956727133 8.744473669966252
Pd 14.289425440448088 10.514597514564114 9.510936956248988
Pd 13.34317830522568 11.189422190467909 7.097459226612858
Pd 13.508813775217448 8.6353488201738 7.79546990167232
Pd 14.693502320921723 9.77160193765078 12.136801528756783
Pd 14.783096651305824 12.413078204896777 11.315738991831994
Pd 13.346984793669257 8.176872447073325 10.403412954901619
Pd 14.819380778973981 11.863522366849276 13.90709870721861
Pd 13.107628669841574 7.733451106038947 12.987421285128919
Pd 12.322961564037257 14.61913390529605 8.005769913264128
Pd 11.353562987971811 9.671427318913128 6.483245741156393
Pd 12.751711252064574 14.018449464640485 10.53205070718954
Pd 11.765329974327269 12.168820377544753 8.89126498483669
Pd 13.098405688599335 9.970792757563169 14.312593273765144
Pd 11.400456400929292 9.505111056301809 9.171517193378135
Pd 12.496837843240018 10.97184856732339 11.458082674448333
Pd 12.741039152565804 13.277386606629669 13.024640712489196
Pd 12.617191922814715 12.319337263795349 15.480647514843268
Pd 11.511596766079496 10.060232122649154 16.45322525082316
Pd 11.017576427673193 8.825990541886089 11.707177255427515
Pd 10.9229737200947 8.473360769180537 14.341669912885802
Pd 10.914981657395517 11.285180464855621 13.60965772360662
Pd 11.057709634661986 14.417557607135226 14.814986018598512
Pd 10.769439317357849 14.792469992978146 12.128085991749488
Pd 10.18117224782296 14.36879950910092 9.439574688932264
Pd 9.682645062817976 11.063436814284204 7.879886635050217
Pd 10.252596439646387 12.317722792874644 11.19883459633974
Pd 9.109486144075346 10.139076357916624 10.37459899272687
Pd 8.90135447241366 9.803516233893307 13.009025403962209
Pd 9.012743587461607 9.695835617192644 15.6506065116534
Pd 9.880922549847465 12.198500169855341 15.82166556695628
Pd 9.069310806395654 13.308520162222846 13.527803813812852
Pd 8.202409184375961 12.563322954406281 9.384899956096177
Pd 8.235262414904707 14.428027207447583 11.269974159245848
Pd 7.5793367813167905 11.846319069567619 11.889893561972828
Pd 7.4557649702694935 11.536363406840202 14.547887236822364
