36
Energy = -152.73134541 eV
Pd 7.611669072678524 12.041966332397358 9.737547222130397
Pd 7.977258113719673 9.499911237789032 10.446052427878664
Pd 7.5304593379267 14.646458701720357 9.223980837609876
Pd 9.105760617555019 7.063774866329421 11.020135645392124
Pd 9.443731350378945 13.24385167135658 8.008825302557039
Pd 9.429592695575579 10.619741720006012 8.324942890510927
Pd 9.275301065949304 8.038340282531772 8.454382637859554
Pd 8.242867311751128 11.397684970078839 12.320928753762889
Pd 9.29309186696827 5.5059175738861805 8.965500641249738
Pd 9.149489051393974 8.918709807788327 12.838651052466247
Pd 8.019106361131929 13.971001060180521 11.68881869727995
Pd 10.155910271539796 12.267711178986724 10.450396841228613
Pd 10.61662189135106 9.443111645589275 10.531002810469378
Pd 9.117942043344012 10.712820778963266 14.797718283776105
Pd 10.020130311302957 14.902192591683605 10.097428562153416
Pd 11.548815743799759 7.622213746992598 12.217023904170292
Pd 11.783127862691012 11.883324148283803 8.213334347726056
Pd 8.555607310921308 13.286674091885109 14.190512803978732
Pd 10.912415712162883 11.036808091867721 12.737012594255305
Pd 11.788650128084853 14.552145961844293 8.123499033009507
Pd 13.084965756869495 10.95725193781573 15.017073533370317
Pd 12.699241916136613 11.1861028313167 10.67785039410369
Pd 11.427884903145513 6.820887824859757 9.624815092726259
Pd 10.588111367654054 13.90513035551613 12.565495958935538
Pd 12.982824709450542 12.776174190300802 12.996872919903097
Pd 11.265912441780968 9.073388221907626 14.477409456531934
Pd 11.723880036784102 9.180331624628868 8.132828971494824
Pd 11.030239697910769 12.575809784007896 14.868837394240174
Pd 14.091467714406576 13.131349525664218 8.567652284489371
Pd 13.282756371784298 8.512578286834401 10.300139531705433
Pd 14.84342387755518 12.700490015308239 11.040173794060053
Pd 13.311388796286185 9.596686286290744 12.75668047950276
Pd 14.077809103730779 10.44563471167598 8.589410357779705
Pd 12.446307591292202 13.90757486856153 10.606115125396139
Pd 15.294839122728112 10.101354071170444 10.973503074885443
Pd 15.226103228039761 11.391277574593714 13.315437951122878
