39
Energy = -166.50753159 eV
Pd 6.545135592003177 7.272501685739391 9.576162666411832
Pd 6.6105620258755176 9.633286326660151 10.855860583396325
Pd 6.769570234225024 9.5038153847668 8.181863718893586
Pd 8.901664747887406 7.975096102155857 8.608176855690056
Pd 8.589096905320492 12.408482640729883 14.171697379145506
Pd 8.330113547815852 7.628932612735512 11.462847495193536
Pd 7.086340201159243 12.007513278886359 11.953481919645725
Pd 8.301650078590287 9.874289313136467 12.935357862211218
Pd 7.574264699170822 11.707252918226974 9.34139083623591
Pd 9.310711660993999 9.9603024249883 10.359978155063057
Pd 9.578187149126407 13.043114789088023 8.28730823917177
Pd 9.183428186144505 10.50305667822741 7.546781253050945
Pd 9.827210541165309 12.11378405441115 11.885546562728075
Pd 11.150484937470516 6.722609696493172 8.015213515651688
Pd 7.492334888431176 14.466206395570138 12.908264897618492
Pd 10.806421946763402 7.535563642841034 10.53935772976598
Pd 10.539813577306507 10.603041588806551 14.17624496098976
Pd 10.27438763894046 8.082573944228377 13.170111799927515
Pd 8.411448966692515 13.911708091394901 10.504869457830283
Pd 11.685619671197252 9.902434994771916 11.83440854956136
Pd 11.175731287918381 13.147392002842636 14.409266572487265
Pd 12.495623430989125 8.818871409725872 14.4918021719534
Pd 11.340840770595575 11.709607522644937 9.72053346561865
Pd 13.062422134476252 6.262049195621037 9.868047404039556
Pd 13.53832004005796 8.79220731479864 10.280653328193331
Pd 10.095782181224033 14.704096432162109 12.56274142979989
Pd 10.977964102139433 14.521515100873597 10.043166145393636
Pd 12.73270969891488 7.23434942219953 12.377398485118226
Pd 11.796336758780877 14.25938562269889 7.5307471950805
Pd 11.569244083662918 11.593078797222637 7.046328374813824
Pd 11.340982261219732 9.317194988853343 8.51621486308565
Pd 13.107575293148196 11.362799958876252 13.70604777717459
Pd 14.445328818917073 9.275585342043398 12.718125974105941
Pd 12.282769521991012 13.228741051203812 11.977528012502988
Pd 13.524706417909885 8.064958780074305 7.799367647114994
Pd 13.928467146777098 11.338825051918246 11.109889795666321
Pd 13.395991704838975 13.357602520809284 9.501771525991282
Pd 13.939146412368007 12.83582588779634 6.967677106766858
Pd 13.722490056032528 10.713693934206326 8.483338835895484
