31
Energy = -129.31280359 eV
Pd 9.847421395194273 14.100359353677925 10.872426828973202
Pd 11.271044102479276 13.01952953733991 6.83963582987808
Pd 10.929749524119746 12.60791092735747 13.716745294093904
Pd 14.784263116661556 10.928025139169813 10.258663172947104
Pd 11.270507873446 10.324485591945544 7.2978731092857725
Pd 9.33863534169808 14.185372934152305 8.32115806381245
Pd 9.947625417442637 11.287179279686757 11.676641931879736
Pd 13.247790490536122 12.052856795075641 8.374324350422462
Pd 14.166116482787649 13.52399447810984 10.418097343825224
Pd 8.145987876753027 12.203171911453676 9.920967558598344
Pd 8.936479187088604 11.735309960380045 7.333415859727752
Pd 11.946375594916217 14.407694990300975 9.16933723574552
Pd 12.488757203327518 9.731667136182633 9.597951688158503
Pd 9.311465265466866 9.87562650597076 9.210787037241696
Pd 9.987917427911684 15.025487694318542 13.277116322861094
Pd 11.01403388039609 7.872691148561666 8.481458083988983
Pd 10.848183351724233 12.047878120618211 9.393225149493125
Pd 12.196038485756903 14.305052991342523 11.968211975657391
Pd 12.545162334899043 7.092389900725886 10.606465616861755
Pd 8.918871951229669 7.349644832491785 9.984356489007109
Pd 8.260331922623008 12.99946569882807 12.723927651174712
Pd 13.600802978746735 9.215585295057558 11.947009294244943
Pd 8.955812775313712 10.669670683759946 13.998117850175843
Pd 10.698928164691122 8.783349809452483 11.34332140729007
Pd 12.616134099752864 11.718518362078045 11.665907757700229
Pd 11.606026173774618 10.017822191150948 13.574008760868944
Pd 8.080588889904893 9.387817110444322 11.670050799586024
Pd 10.360588109418071 6.169134413320709 11.920847530828945
Pd 9.625313523531373 8.129506881066963 13.662786985398755
Pd 12.26851860057039 7.4006628480631 13.342937293144587
Pd 7.788892256965109 6.812924252193865 12.290545957195992
