39
Energy = -166.23824737 eV
Pd 8.249056783541016 9.569038919143447 8.959673446417085
Pd 8.05766869551732 11.313198579659359 10.964869149564432
Pd 10.558018801898907 9.643175795573423 7.775566008387946
Pd 9.526861176310213 11.944050130006877 8.826770073368595
Pd 6.603010045560857 10.400153633996114 12.995897313471943
Pd 11.361826508596417 11.868148569476293 6.350328347486036
Pd 10.124128309531114 7.903924848113322 9.930504650731862
Pd 13.068316772019896 9.727856586887581 6.872723070629441
Pd 7.915936919430311 8.604195733835093 11.382806817109113
Pd 9.649387921114021 13.402785119751865 11.163026713780043
Pd 8.311134949958744 12.60880204335378 13.42198969128015
Pd 12.64638209998845 8.819353926357618 9.272142587938394
Pd 10.760143229283214 10.261727312178719 10.765152834551486
Pd 11.033804489696312 14.063442297890312 9.033543158220526
Pd 7.863772445547908 10.570024366350868 15.363677141276192
Pd 14.123853628412835 12.105639275398811 6.779221828242538
Pd 12.174235390272536 11.581118592541046 8.788155645123103
Pd 7.856665116648302 8.20521099003879 14.041145118137555
Pd 12.558566193015052 14.232931178438152 6.973940054917658
Pd 12.376284154114579 7.538958435727507 11.470879536060384
Pd 9.353227937753967 10.31885923023083 13.035477858639549
Pd 10.14852095800428 7.876549956069096 12.705820669005082
Pd 14.615081477078755 10.733023915455412 9.140143212765615
Pd 12.915173224893962 15.868803844580544 9.109693551837731
Pd 12.186170071472658 12.612867631261587 11.132890644968194
Pd 14.064662742289057 13.436672400201557 9.066525463486112
Pd 11.738929873617588 15.20390843155035 11.48882828858349
Pd 10.160366985817557 9.03720170884606 15.198734770334733
Pd 13.540958134804074 9.954097873681956 11.527231969673444
Pd 10.79780102091694 13.702281124674853 13.528249486234929
Pd 10.153187189678045 11.839239726658002 15.389821059234642
Pd 11.71206481947364 11.23318641063986 13.263825967546573
Pd 12.494733002234737 8.81528917487313 13.76072316497987
Pd 14.760326733435862 12.258405388687484 11.39243344225242
Pd 14.42239216300127 14.99938364090718 11.136924523401532
Pd 13.471593405620224 13.794122622520584 13.211422976830658
Pd 12.393387039623956 10.33716764849819 15.889999379959393
Pd 12.564967152543643 12.927374069881829 15.480350100070671
Pd 14.187567013468547 11.187993442249436 13.909054859687982
