31
Energy = -128.44675146 eV
Pd 16.210873829789552 11.783269307346869 12.40584658149923
Pd 11.50454146004807 9.81526115983907 10.708295456250585
Pd 13.688816748266959 12.523095055710055 15.844095357913496
Pd 15.592087129190611 9.209871648003672 12.500652692945428
Pd 16.07310944824003 14.385074010536899 12.127792875993938
Pd 8.639142181275488 13.522627319074775 10.225073268528801
Pd 12.099858836704984 16.05170540093137 10.302003450772808
Pd 13.947294080860061 13.11575019996079 13.102517799097265
Pd 13.231504585748791 10.714018170549448 13.900308759455541
Pd 12.755934591016313 11.67057943647765 9.144754588632702
Pd 11.713087379594914 12.179667667199201 11.81804760793793
Pd 11.67250703137959 14.749688946846012 12.59168611705395
Pd 10.689593444196088 10.163986886392006 13.379624978483502
Pd 11.906884207593132 8.57394618723268 15.044062183006691
Pd 9.743822001684105 15.63566544761759 8.876298994697184
Pd 11.216522707418385 13.707239137062885 9.762830420588356
Pd 10.090442192443682 11.476991336441916 9.048078215166704
Pd 15.682531288844732 10.668510571988469 14.78345037256962
Pd 14.550754499662533 8.202195412017353 14.698241279827103
Pd 9.556239478583484 15.766031798585516 11.447288372052416
Pd 16.017997512349048 13.279942674868156 14.734149791629514
Pd 14.030367568808721 10.89455472362605 11.251212562888227
Pd 11.373855030419607 12.732032309659822 14.476254766471095
Pd 13.92259060922384 15.984031756207413 12.198480740591709
Pd 12.944473870409634 8.540715092304 12.50972336781234
Pd 15.463843038447699 15.811713580856276 14.341439830681628
Pd 13.673942190126017 9.992950486393564 16.484216021101382
Pd 9.436953545773012 13.450940442033927 12.824380092706402
Pd 13.075482779569349 14.864837033832462 14.84035468716481
Pd 9.216409853252177 11.200264636184409 11.497650364967715
Pd 13.82516330009888 13.762057616990937 10.572754932746397
