34
Energy = -142.07689659 eV
Pd 12.129725807544418 11.608197602396585 9.154038709799517
Pd 9.953912032513678 13.21340060745967 8.405961481303551
Pd 13.215840991461505 8.911050590131127 9.782364051037819
Pd 8.834036542049535 8.405607987600597 10.266055567783008
Pd 13.431850662497371 10.283800890247619 7.371466312135212
Pd 8.577146123376073 12.967385939166165 10.600882800004301
Pd 12.105947795186363 14.406764648698456 9.207010733290478
Pd 14.076334304004769 13.173590438791411 10.546541634139945
Pd 13.213799341900483 12.995723145519117 13.061135940291122
Pd 6.937843956265252 12.675931768475904 12.680939324563129
Pd 9.42077582633386 11.539766756777922 12.71749377727268
Pd 15.022676942603075 10.822194422941928 9.400856652654667
Pd 8.612248217362769 8.33635101089528 15.043753187533534
Pd 14.54700603951145 15.150663203069302 8.922903291877013
Pd 9.856206110412346 10.643574075742027 15.245454075414512
Pd 11.209257127407557 7.276808655216048 10.595499120228324
Pd 11.896339886552335 10.713017906474652 13.586262669731582
Pd 9.926686640074568 8.396100997723453 12.758827009423253
Pd 10.906824069630124 8.876472599583382 8.473747792182095
Pd 12.68543413998557 8.459075307278901 12.459112484893094
Pd 11.209049027579258 12.904133943230597 11.317790964199904
Pd 8.267230318920236 12.731405163711061 14.993298860503828
Pd 13.51729819729386 10.863905101559249 11.553876766747667
Pd 9.151009286033421 10.822112109441854 9.168733800170576
Pd 7.329771836632431 8.201345125750448 12.559535399174845
Pd 7.358465309665515 10.413582872484536 14.02290746986795
Pd 7.550686075384685 10.489977661203232 11.260153938875147
Pd 11.372765762119332 8.470713254581455 14.920964364499323
Pd 10.836436867414097 13.041021925458262 14.296034790640848
Pd 14.387209251187766 12.822937485737501 7.826937876126156
Pd 10.933595799794317 10.077333806211742 10.986856354269849
Pd 10.562261035628627 11.046062933534083 6.909122299889521
Pd 11.735424959909771 8.93041699145997 5.998824815793048
Pd 12.054236174609962 13.193140292103763 6.823635947399835
