36
Energy = -149.95627115 eV
Pd 8.673286350922531 11.719421259369081 16.301121438253976
Pd 10.582517118733207 14.578715878696373 12.746931363807466
Pd 7.91964309111671 10.827695655724188 11.212703547092003
Pd 8.068116526754688 8.15450365328872 10.681307165331553
Pd 10.144596945406322 11.902124155905057 12.587819175987883
Pd 8.172918363061159 11.257766840311094 6.547519749114677
Pd 14.799903691286739 13.486426757642052 11.707771926159158
Pd 10.492163301298914 10.35301025397619 7.262424247118088
Pd 10.275647605198957 11.017808768859767 9.955255498797518
Pd 11.143273009720374 12.132102287387356 15.26153221615071
Pd 12.703583233826443 13.247293266907695 13.482862373618314
Pd 12.04071328866858 10.224313238705207 13.476109981264582
Pd 14.244724121823198 8.904390860767752 13.900792885302131
Pd 15.269899110020157 13.19143108403995 14.238685754772428
Pd 16.286172785629567 12.762026392588954 9.695100081621082
Pd 10.458009854678924 8.43407598713782 9.52354618670655
Pd 7.647562843068463 9.017736447737104 13.202173744707535
Pd 9.580989865117287 12.806165587404866 8.000961956057562
Pd 9.138459219717607 13.657882286871859 14.604261057280825
Pd 14.36219656995936 11.044415135062676 9.692339310386778
Pd 10.106201213773517 9.163613752687226 12.061838775733342
Pd 9.689026186235633 9.966609873771183 14.613029090998854
Pd 9.720699599147352 13.557410001288456 10.519708046034589
Pd 11.438897825999357 14.539420587963145 8.787118667838081
Pd 16.142617851672647 10.734596089368205 14.307457041183422
Pd 7.756469343273552 11.583885962882649 13.770127777259866
Pd 11.059663607207792 7.846092551984831 7.081152364927931
Pd 12.325534993081531 12.363648530800461 11.00295200283433
Pd 12.228783070045921 12.05621252269189 8.319133213788623
Pd 12.741688391418734 9.417138543229918 8.349775443246843
Pd 13.689415640808134 11.264168483590279 15.230778064646453
Pd 12.53703939597256 9.572437847985809 10.998517915409536
Pd 14.41762665295524 11.012346299584612 12.358692347234454
Pd 8.190661397216267 9.915177998301386 8.742185468984589
Pd 12.557625638886055 14.973762166904548 11.154157499705112
Pd 13.997728838932613 13.858439289032704 9.154434423013914
