34
Energy = -142.98490786 eV
Pd 8.96428645613759 10.837876147821769 8.157817692761148
Pd 6.920051672709071 9.24240082267022 8.393453651008706
Pd 6.625793459099298 11.786184564964753 9.008578426452797
Pd 11.074399330203404 12.453328230403589 7.749716227880882
Pd 13.477919701103122 11.249945198339775 7.232838132370703
Pd 10.305146962032621 11.652993801276448 10.424621228348808
Pd 9.496149267213607 8.11886259193344 8.62017063878719
Pd 13.495523320735227 13.706230624149658 8.127006295929847
Pd 6.21851136329826 9.802028432792426 10.953686655402256
Pd 11.399650296254759 9.839693078523693 8.043612369420195
Pd 7.2802626521649305 7.210774667179378 9.963713316796964
Pd 8.78074998448418 9.56507931847251 10.653719483433871
Pd 11.385220996538473 14.22180820670425 9.74037491422591
Pd 8.839049293521594 13.386201677134062 9.077842502142298
Pd 7.8055937118391014 12.036841604458242 11.321402785634657
Pd 15.363732973058237 11.567961921620054 9.953541100575013
Pd 12.827606838766817 11.661605914100237 9.850823255721313
Pd 7.535499523423396 7.836199778257047 12.510269564267231
Pd 13.827105240070662 9.270448838280128 9.005439640501088
Pd 7.673425053736537 10.337354055187175 13.276661225349782
Pd 14.024246852707488 14.043374342271484 10.650130413583632
Pd 9.692928819853325 6.970429449599411 11.098305339897319
Pd 9.45196294156533 14.088873686157736 11.621221448051697
Pd 11.54946954619906 8.768923937495984 10.454981560181633
Pd 11.908964625822994 13.343750680129356 12.13091889976824
Pd 12.000683646957318 10.674883372559657 12.2688562266641
Pd 9.866500767758934 11.858673502781249 13.233598543753168
Pd 9.946847730500643 8.936890667494106 12.925072240036597
Pd 14.297407497583903 9.615971924263887 11.503739239206064
Pd 12.497058108898901 8.14098655776478 12.921535374073734
Pd 14.328274249334012 12.13430742061671 12.42470037997549
Pd 12.490339731482251 12.315271232499134 14.439096927866528
Pd 11.334189915205858 9.95934000813784 14.848419771595356
Pd 13.990371002815065 10.07310850782743 14.152406997007155
