37
Energy = -156.83644491 eV
Pd 10.001473742613063 10.119240297285923 15.002747572083608
Pd 9.06993031153046 9.416338820078053 12.723918646733868
Pd 7.8244551498511585 8.392552199213078 10.666766418781373
Pd 9.227375579929312 6.687630374890843 9.116607100991072
Pd 10.437031818889968 7.651614794123472 11.276021874967345
Pd 11.7366372586589 8.790217464394175 13.33752253642547
Pd 11.803564472855625 6.0572333630113855 9.651453358236243
Pd 12.599842202392324 10.59623931675271 15.11570498805218
Pd 8.85790741230861 12.101015851834577 13.424685183208762
Pd 7.487519879980906 11.071310142960263 11.362084676312294
Pd 10.837426222537959 12.629409912954353 15.162078571767436
Pd 6.306073289018828 10.046889936680728 9.201867707291768
Pd 13.106242947744098 7.148368062414453 11.761342655651855
Pd 11.236243965444412 11.282148180549633 12.554169255313884
Pd 9.828706726154794 10.166821363706324 10.24452125905307
Pd 8.571665220749203 9.105868353962292 8.144828696080285
Pd 7.339455542043526 13.726161866046903 11.905009069226352
Pd 6.010053958055936 12.6514954323402 9.815849253621876
Pd 8.009544031762925 14.357654467367063 9.29549196397282
Pd 13.270113112070442 12.976264119429198 14.170022892201143
Pd 12.432471015280445 9.511776110212102 10.731351937578964
Pd 11.174629100564884 8.395205068993793 8.516736929174362
Pd 8.236915294776674 11.771526325286 8.601486441645418
Pd 9.573045652964314 12.91224818536576 10.827676090695368
Pd 13.860794785078209 10.706366011444702 12.76086105094798
Pd 13.785335742039095 7.811114276894717 9.156239764421962
Pd 11.036683580687459 13.897418101365984 12.818631850636395
Pd 11.842077305403453 11.922315942619216 9.741204697672345
Pd 10.534513330363753 10.834812826870882 7.585308827872236
Pd 15.054185957383641 8.890811931821839 11.251167720189144
Pd 13.341975535413365 13.126450588865248 11.614157710682695
Pd 13.15557628553559 10.142249474992186 8.088734666499127
Pd 10.255644939973372 13.493480351725378 8.169491191105704
Pd 14.508348037239484 11.2042210067427 10.116825230624817
Pd 11.565210555730934 14.597024776563753 10.244539571376164
Pd 12.54132022391255 12.549035767182907 7.0933307987009595
Pd 13.878978454621407 13.619199984688288 9.092808411187752
