33
Energy = -137.71504888 eV
Pd 9.157945186193482 12.726934421271167 10.696397957734535
Pd 10.817047920517329 14.41227664011453 11.849431487681835
Pd 14.932755961370784 14.022866652842694 12.887158734989272
Pd 9.897756722722889 12.38053947507719 13.38032598245897
Pd 9.380376377779449 9.957159143180924 11.308606242560256
Pd 8.14760235637714 10.630233693607085 14.683635102471685
Pd 15.492944562841023 12.423852197756633 10.728658860488821
Pd 11.356175295944656 9.049014293216366 9.756775295787454
Pd 14.242599395158253 11.400950110591413 12.881725656491358
Pd 14.92052276950113 15.108574699388312 10.457214080200782
Pd 12.492066266492113 11.067850688877389 8.493574605314324
Pd 9.698131458618573 15.211285695464921 9.646688885182598
Pd 6.783581033092171 8.97234661827269 11.09885239013922
Pd 8.42916825730307 6.864327547017264 11.0540931105022
Pd 13.073740374300684 13.274459017903503 11.1136304489263
Pd 10.371391719121274 9.686041186169515 13.791715840700146
Pd 13.83202422162092 13.4756071157309 8.588516240463608
Pd 11.221432354307865 13.208587117677723 9.113715131729505
Pd 11.599823867028293 11.256678467640564 11.653810249164044
Pd 15.106148137309372 11.15010195447611 8.48532536303084
Pd 12.38173964129896 13.633156736671737 13.673477097862072
Pd 13.850749471033993 10.125521565798847 10.601572837931998
Pd 14.370436840257634 12.7338091195648 15.132807977233467
Pd 7.4786581577391615 11.36146126376944 12.310555125942917
Pd 8.206573036275756 8.38374359750519 13.21129328946072
Pd 12.826810458258434 9.169072234112159 12.963231232068654
Pd 13.150081393607365 7.557021966246944 10.94458117470533
Pd 7.394537285406683 11.07363219418711 9.613912735280149
Pd 12.230670974880148 11.189888053124946 14.640637946450793
Pd 9.89611835846968 10.982771839792932 8.69840207550777
Pd 10.718375549603309 7.682853454782523 11.947020240486191
Pd 12.345808135844313 15.533811829903348 9.857316405572774
Pd 8.675632920475325 8.645789106490184 9.108209302835778
