32
Energy = -134.52847486 eV
Pd 10.723608650616411 14.846599006601279 9.207578251528684
Pd 9.074131867403194 14.531210450211011 11.31730347961708
Pd 8.944224392041573 12.899721384050354 9.174255949865687
Pd 10.735999234480126 13.090891637411112 7.12460772038061
Pd 8.875215227480055 11.271498522439853 7.039107010562813
Pd 11.745040825299231 14.157411176740606 11.548935756163544
Pd 11.791054860888647 12.395956586466808 9.426266478496522
Pd 9.595444655349905 8.668532922684022 7.154342679396169
Pd 10.116120194130865 11.950222172164173 11.476869688580972
Pd 7.478627594421925 12.352221600444908 11.453454980123809
Pd 11.61557051173285 10.540410313199876 7.475368650162424
Pd 12.744688315851901 13.442892024775789 13.865431266068251
Pd 7.1524259644485175 10.881077497913658 9.27550758976045
Pd 7.025662237085874 9.446282772089043 7.067349499974462
Pd 13.053074694921715 11.839988127132152 11.754889416393826
Pd 10.035384601347555 13.572905709979507 13.631647240803742
Pd 9.809548116940261 10.238225462839763 9.370375161046963
Pd 7.944872084647153 8.282791917288923 9.275442794322688
Pd 8.273425649618378 9.76367944665885 11.517305936201424
Pd 8.670385515747261 11.247631480248756 13.671209813130954
Pd 11.330505306313215 11.24939552261238 13.841021251828517
Pd 13.381593381956003 10.256689554326785 9.521611939852901
Pd 9.756127110664837 6.4287359042167305 8.64885333180041
Pd 14.852380960644654 9.954238661839263 11.753460803177848
Pd 11.675142850221173 8.244413775324702 8.861553045540955
Pd 11.501320590421155 9.662445505200674 11.346043177639933
Pd 9.820685017105163 7.613269706011111 11.048204085904004
Pd 10.061247521936401 8.92286297542605 13.418402294519518
Pd 12.974779357139136 9.247718590607828 13.48710968102749
Pd 11.81142746382655 5.961806562924118 10.29604675883503
Pd 13.442485648376653 7.904795263571575 10.947258329684349
Pd 11.774706664932603 6.966976244508491 12.812023224473123
