37
Energy = -156.85562053 eV
Pd 10.78799983327663 8.721742830003144 14.723670543166788
Pd 8.161941139970708 8.769163515337699 14.897201267125013
Pd 12.128632071649022 11.066153780739569 14.510985295571453
Pd 9.40607603718523 11.099335402916491 14.57429581698923
Pd 12.939907779410934 8.828738514263666 13.17813892503121
Pd 13.383893214539205 13.41793860673253 14.09671695518531
Pd 13.573868147213874 7.8025403777751245 9.685842750780996
Pd 10.674363112374456 13.386853327762662 14.186001990809077
Pd 9.288497589363322 7.675367996334351 12.770294384764345
Pd 14.293607538768025 11.146309524606968 12.921942339030002
Pd 12.040213251241445 15.660650286014501 13.817135602790538
Pd 15.07394392310127 8.893621786768001 11.58259158408872
Pd 10.600768051808721 10.067176397019189 12.401555475655005
Pd 15.481118510184253 13.48746720259481 12.489906996579277
Pd 7.9127884625844995 9.974776558773666 12.526833624305715
Pd 11.451452224703981 7.751109399414124 11.237013867721297
Pd 16.36423764315405 11.262269481114027 11.247238101419713
Pd 11.989368287349588 12.42403944009398 12.03293643011919
Pd 9.121231017721517 8.896675316918877 10.332894799634039
Pd 12.82912686443985 10.154036528478521 10.770264386182136
Pd 9.05317992049966 12.413418517595245 12.245120682580907
Pd 15.015853691972286 10.236316181071336 9.21086936535107
Pd 14.203253000361507 12.571948248710612 10.336722654547927
Pd 13.28446479587903 14.75740403483647 11.643507738880016
Pd 11.307845283714336 9.014914652163045 8.77505945701798
Pd 7.759924547866697 11.244962855889113 10.205378733609638
Pd 13.539950115542947 9.07802131212675 7.377522405967464
Pd 10.629149511335177 14.767298580010479 11.769230473802573
Pd 10.478461900581705 11.330583663519503 10.0098432303913
Pd 8.004451901208732 14.756611672426942 11.862163319284814
Pd 9.075928899821893 10.233326884163763 7.99234804693171
Pd 12.740038501514956 11.454188206174814 8.348622972661044
Pd 11.914944399790002 13.713707732636891 9.542499130547723
Pd 9.218318212333536 13.743107176059203 9.745325338008398
Pd 6.579276301062426 13.559924090531506 10.025951549265624
Pd 7.7534153307471225 12.530117295524688 7.809944411514335
Pd 10.410220695593585 12.551974978708186 7.639548423025313
