34
Energy = -140.91308065 eV
Pd 10.510069062285543 15.905703419097366 12.084449062942879
Pd 11.161062307754023 11.702111686521706 8.742860654852768
Pd 14.676747541956056 12.15828696203851 14.652778377948472
Pd 14.887816311504071 14.55383602960389 9.839431667854564
Pd 14.913386525543421 13.324502063130105 12.250888918782833
Pd 14.033251409274895 16.23259104880797 16.115971466162165
Pd 14.824056260664452 10.797676891968692 16.86004009206523
Pd 12.523854297864345 11.862616336100832 16.79789804891126
Pd 15.257868603931007 14.733924877938826 14.430879438761892
Pd 13.648271279477756 7.359831478257317 10.585204253901868
Pd 11.128370810916518 7.777838787382588 11.370070586903752
Pd 13.385183176325691 8.568104325782786 12.899519459378912
Pd 11.079365264960028 12.09382234116943 14.354096591202733
Pd 13.011332267779933 10.034449101536385 15.031626620404921
Pd 12.423555994413777 17.738217900952385 11.728432186813299
Pd 11.837375234470272 8.06203933280389 8.717932559153354
Pd 12.512570373471494 13.902065902695245 8.315003163408873
Pd 10.529402068546782 13.807450436451656 10.181692089175117
Pd 12.291256656883483 13.806454710001601 12.566108489457024
Pd 10.334046967925065 14.93570635091219 14.57592771330656
Pd 12.558309698374574 15.4730925961912 10.440653646542838
Pd 12.71101628717397 14.123499331367546 15.31888416976279
Pd 13.322253205039946 12.40529840892161 10.27613434830325
Pd 13.13784643663007 10.259815345375785 8.069609977351753
Pd 10.986577132299164 9.64289888744674 13.279312652798362
Pd 10.04660611520849 9.661522593796162 9.820183456662804
Pd 10.475068232103968 13.394961249917367 16.63249210214447
Pd 10.819782713436819 11.527793186771587 11.516273400931963
Pd 12.580376098888047 16.301965050577675 13.899534187230627
Pd 14.696446782648032 13.560795877393701 16.896214545960976
Pd 12.712495605510025 9.824245690250619 10.563308973900421
Pd 13.308035802602129 11.240299482189226 12.670522989761025
Pd 14.486801688094525 15.919732761681598 12.169460203207864
Pd 9.49796642732158 13.470465478604533 12.619140505187799
