36
Energy = -151.96822016 eV
Pd 12.038797877378851 13.847639788534275 7.756069003890424
Pd 13.692542065832797 11.273730970653622 11.760563764357162
Pd 13.898950718133774 10.156591423990847 9.391401996891393
Pd 12.667503053932808 15.154359413362759 9.983630463906628
Pd 15.42760983375772 12.291550288360446 13.40218441128391
Pd 11.309286108996837 11.630582633345274 15.412101430235277
Pd 11.586559681131838 12.078412586895103 9.984794349966078
Pd 10.129075790614856 14.339231828375647 9.670641187851494
Pd 14.0606779167128 13.871947121933802 11.73322117432146
Pd 9.48456833273082 10.318674469365021 9.790308325359264
Pd 8.196232660601005 12.66367691609874 8.652951141994238
Pd 14.141253143719506 8.65758732928393 11.703122842424515
Pd 13.758011520994016 10.484897156342473 14.394612904063182
Pd 12.075079334917646 9.246536177098662 15.961823676642393
Pd 9.533356018804763 14.245369791939305 7.121105971144514
Pd 13.083748422313374 7.641481236193549 9.330728173447023
Pd 8.27794057604257 10.272133779633497 12.394254944355415
Pd 7.836485866587539 8.423677169331917 10.562207627696008
Pd 10.39553745157724 11.745208192304474 7.605025696067368
Pd 8.891268259208418 14.59664125292968 12.832866613379512
Pd 10.703221879613123 14.059035892160413 14.65871598217123
Pd 11.023557872902225 11.35101805909742 12.723949953068129
Pd 10.29678783001644 7.605600958990407 9.671069751958283
Pd 11.517649650383927 9.470189427211473 8.185419050265375
Pd 12.995017123930118 11.395027475930707 7.243967066989812
Pd 12.022963217981731 6.809585185572391 11.646502526296029
Pd 9.820701452305782 8.164444163592059 12.292927068468904
Pd 13.022684414383384 13.034085836475619 13.965528387209144
Pd 8.890858833672612 12.22984799377712 14.058351852481792
Pd 12.09170619507391 8.75049078804048 13.437287337541578
Pd 8.922083376606817 12.557426548732758 11.221489737233888
Pd 6.947698868461782 10.9700782427239 10.186702462025824
Pd 11.320794938739253 13.998805357874701 12.018489464705413
Pd 13.96672444121236 12.845078240454386 9.309699675912636
Pd 9.732010057593252 9.659232467082902 14.536831406723463
Pd 11.723763300096682 9.508827394600065 10.939792210627695
