35
Energy = -146.71177298 eV
Pd 10.325790311258379 7.6425846770382755 10.98646285360497
Pd 8.632585309612042 10.219284784760223 9.757334732484791
Pd 9.941267598764266 10.77793669457795 14.325056180122166
Pd 7.730364609786276 7.7067908379248715 10.582269517583628
Pd 6.182410299524326 11.186103005508954 9.370612005356717
Pd 7.250565414940853 10.891121342455913 13.84000589928884
Pd 6.386955656241366 9.738836323026735 11.524244166060493
Pd 11.246407756841585 9.49723392209861 9.237590864988045
Pd 6.250995908281847 12.357692320579543 11.777848971643222
Pd 7.9026499566792 11.86117041825294 7.489720769950323
Pd 13.948070282859625 8.628065916207131 13.343772509368007
Pd 9.638770870902828 10.032042806478167 7.116863167476879
Pd 8.107980172292585 12.952866759595883 9.869089226491488
Pd 11.175964699738632 12.881274327294872 13.359047984509992
Pd 10.426580113647299 12.068422659460197 8.759644341800692
Pd 8.866913605100102 12.18209995276331 12.243863227581645
Pd 8.872185849920083 9.349304476483976 12.360332028030246
Pd 12.075207856418121 15.292706126618096 9.621230168036144
Pd 9.35346276621418 7.743951451678427 8.502008502850156
Pd 12.124590042715175 15.133820438918654 12.335086148740066
Pd 10.409994034313764 13.72395547165648 10.820659470911194
Pd 12.253728263608734 10.799337330872605 7.038595732409262
Pd 12.643399653431961 13.212758473115333 8.17966136634169
Pd 11.434103544445593 8.109031608417276 6.822136345706205
Pd 11.174446328539776 11.00688374434127 11.458102501024927
Pd 12.63385524915553 10.870728274161232 14.407439056056623
Pd 13.09297016713172 13.150395295208043 10.829703807327215
Pd 11.367400849072613 8.889327636547428 13.076689582308152
Pd 12.48477329074736 6.637567979530863 12.069360666683139
Pd 13.473360488005612 10.985584040104007 9.413569984836109
Pd 13.762572277710108 13.228675363937382 13.411720146205942
Pd 12.057207301280654 6.832672069695744 9.16652912298886
Pd 13.704635102353345 8.694043727700537 8.08985771929576
Pd 13.78656046066278 10.964631930476976 12.059187774366984
Pd 13.261482618948799 8.719559102270537 10.768795190104123
