33
Energy = -138.76634155 eV
Pd 9.96845480687961 12.404533636460597 15.440608932968576
Pd 7.70165535386008 13.56159207492794 14.586248398681096
Pd 12.068089377369676 12.175577716911356 13.800695461621824
Pd 14.166567295173186 12.032528446306047 12.265665516148191
Pd 10.578823593956331 9.990153064968151 14.606779124863207
Pd 15.080367576039176 9.592427085334494 11.559551006256589
Pd 9.83983530963162 13.52500168678861 12.993314545662521
Pd 8.177352151706954 11.092857529979163 13.87753812807273
Pd 12.837495518325833 9.62335401590316 12.979705482035058
Pd 11.897529579099299 13.36064736433959 11.306119079314817
Pd 11.261532714745734 7.636094738397949 13.844336422515516
Pd 10.272677292087165 11.041947746894111 12.190778914999306
Pd 8.798557646875235 8.628600629477353 13.02615578956292
Pd 16.24644811561022 11.80333439140397 10.630900825526533
Pd 12.456837662503482 10.843114739106307 10.615813740728665
Pd 7.354279712614021 12.926432143250002 12.069464098949057
Pd 10.88340452821256 8.483545349174198 11.421111846510275
Pd 13.16364408113835 8.338671281468475 10.124672917108994
Pd 7.800491521127216 10.426310863095853 11.264653488656727
Pd 14.636462400966286 10.39573253306109 9.078183818739992
Pd 9.431269253139455 12.906264821185768 10.362226506555583
Pd 6.9397312003636085 12.324989270907254 9.53736766353811
Pd 14.015581699191998 12.933608810989991 9.702256793607104
Pd 10.022801276549401 10.317573820121721 9.557679346477569
Pd 11.499732410744437 12.618420200515772 8.722413575397784
Pd 10.798263843633414 7.817108568911443 8.836863388205831
Pd 8.970265493707778 12.043411986039244 7.809416495158211
Pd 13.627483324532601 12.01019509119838 7.228615585160716
Pd 7.529191371405746 9.860796595859865 8.618360962495396
Pd 8.52630501253819 8.055703065368224 10.334793350083318
Pd 12.251421502306815 9.850697208663252 7.986690293227009
Pd 11.117024192357484 11.575082564371519 6.290861305316164
Pd 9.649923227057366 9.463325356538732 7.077010479368647
