41
Energy = -175.81055188 eV
Pd 8.369621552782707 11.785174424052046 14.459233660914833
Pd 7.143079364288001 13.469612113473902 12.750292154143798
Pd 9.658671242638892 13.880245579587154 13.346255464941384
Pd 12.305651248628754 13.852257349987037 13.463154654509069
Pd 7.185607087741364 9.412140477267199 14.937782781042715
Pd 10.997133950173135 11.606023549011416 14.107307934825101
Pd 6.483786728913879 10.787943802616873 12.809482505578913
Pd 11.214316559051683 15.22239846032041 11.512548658639009
Pd 8.900285190753202 14.197639273888134 10.713431988127395
Pd 9.821722999259444 9.308788423353564 14.686747721614887
Pd 9.167796613927178 10.362551793287265 12.35743880698758
Pd 13.36374645846876 13.637177670680567 10.937229294382368
Pd 13.220002860801834 11.519073817569579 12.700633505142177
Pd 10.78442764305304 12.356407266094493 11.45349368649287
Pd 7.650493482147457 11.921493433348619 10.728667050719372
Pd 8.075420874542115 7.973279355099582 12.916149765314598
Pd 12.439030788771099 9.353015005961591 14.097373610959572
Pd 11.092880575155121 13.796260629899495 9.24466528954
Pd 7.132640773564521 9.257514120774108 10.762275344778658
Pd 8.804043903463231 12.68869831134423 8.408840741981463
Pd 6.9168789511499025 10.721558367017408 8.541604822847848
Pd 9.457537227353566 7.938151602136947 10.624538687219959
Pd 12.647252969416401 11.342402744893585 9.81097378512898
Pd 15.596948214703097 13.40318366814642 9.485284630029948
Pd 14.978588382295442 9.60455317914245 13.107571636798085
Pd 11.156302586732176 11.737630097301265 7.53908830470181
Pd 9.732117153424957 10.484684159012724 9.64796261741527
Pd 13.431294566366418 7.452221472201711 12.48638215423845
Pd 10.768674307011931 7.517817118039138 12.862414500202558
Pd 13.398192550055075 13.215563608330658 8.090020223112269
Pd 11.596448317622896 9.654338160378845 11.546121502287885
Pd 15.341216306095967 11.508185524691921 11.225993293508392
Pd 7.888123521897128 8.23436737496909 8.454923696504471
Pd 14.13958375204202 9.167981480067194 10.616936581980587
Pd 15.024778205718938 10.909329417194987 8.640817381126872
Pd 12.925429805907182 9.219426554120888 8.268310116100553
Pd 9.003288348847759 10.254610591006614 7.0070455078286376
Pd 12.06844486131511 7.43475983319321 10.167950651801485
Pd 11.362017111081427 9.530565060722134 6.034423485532442
Pd 13.490352088648512 11.090098127978337 6.483749063040393
Pd 10.49733183999699 8.348251639840134 8.226113540700286
