43
Energy = -183.76967725 eV
Pd 13.121332595827246 7.11796885819555 9.840607745558035
Pd 14.714977943274322 8.998208179849783 10.715572604466338
Pd 14.647079780925004 11.08331295091702 8.973308718213303
Pd 16.759190692178123 10.539265225305003 10.621781884251345
Pd 12.254151354480197 11.764600518637579 7.877795618708575
Pd 12.401948897980668 9.639308918637267 9.380300042456232
Pd 11.565404926392908 6.112643486168311 11.768159371317413
Pd 12.493632550748243 8.655433219836317 12.030559387805484
Pd 15.622729316779354 12.843352124405987 10.925029748077666
Pd 13.834953265108703 8.893099326615387 14.189927237255809
Pd 13.653655464642872 13.533221598466714 9.312768821337178
Pd 10.4982725973713 7.955567844756975 10.034997651299298
Pd 13.199942734285786 11.39745182918041 11.29518839780887
Pd 9.81511861560618 10.357479349012724 9.108060562328895
Pd 14.766048414881542 15.348339273888717 11.142678183476175
Pd 11.033226624759164 12.503116867933807 10.159332920609947
Pd 11.276357558568387 14.298979365652277 8.225473167951458
Pd 15.203760498503563 10.766773657865494 12.835072355024005
Pd 9.806209285634095 7.916610300370144 12.468608718832671
Pd 10.561518365747222 10.400954181489551 11.698183529698577
Pd 11.745487298204973 7.233739937055184 14.266755956690728
Pd 13.03897101356898 16.076785326590052 9.055995875536345
Pd 9.653305471720424 12.36179339476186 7.437020463258004
Pd 11.10166270566063 9.869194533929766 14.310154907807947
Pd 14.234061137296742 13.350585195959136 13.067302873515867
Pd 8.182916732567273 9.771716482506005 13.142476140506753
Pd 9.203087881975295 8.019687113639153 14.959071426160797
Pd 12.30556409926306 14.458397477077838 11.429142807714166
Pd 12.652629191824374 17.267851394023033 11.35877596007327
Pd 13.348933163618508 11.381110348053825 14.684590536377629
Pd 11.574408355211501 12.53045494976606 13.119917021700406
Pd 8.843287611169535 13.874018129665782 9.45711677639267
Pd 8.39579951793375 11.745453623231622 11.110879673619838
Pd 8.848017964721912 10.489428427683173 15.769648757046495
Pd 10.520708179371786 15.951801078361697 10.239576064712768
Pd 13.502383002017392 15.87685599457158 13.505621996028173
Pd 9.552672259521511 14.020999776507542 11.997212913306068
Pd 12.773610463755922 13.91914242908043 15.217081877453415
Pd 9.06171359591143 12.112730303892086 13.744328911305562
Pd 10.950022755962696 12.090185221418388 15.841963931816604
Pd 10.815787333692146 16.183918541269755 12.916223397975129
Pd 10.076870123150472 14.332554361747537 14.670185153463123
Pd 11.686904501454233 16.2949030846979 15.395469289929073
