40
Energy = -171.82363708 eV
Pd 9.876892728195756 12.08936170449817 14.51951504155151
Pd 7.39300445916611 11.084971470721067 14.069143709890216
Pd 7.837874256143354 13.493442283933119 13.15940014990911
Pd 11.97383876366719 10.23848892169813 14.81044362813436
Pd 12.38174806981429 12.723365529987873 13.906611765959681
Pd 9.595212962301046 9.548415140678772 13.847127377464702
Pd 10.367041076494543 13.85419760565129 12.579842270216274
Pd 6.680096463265319 11.675056544849019 11.380660520137736
Pd 9.234796731999513 11.352051524837114 11.914307814913274
Pd 11.624315421226807 7.93832930350728 13.302860692890352
Pd 7.386820070275694 9.066940930131903 12.402278937841803
Pd 13.90102387200099 9.307837149234869 13.121976041656595
Pd 10.514208129279147 15.24305502034743 10.329011992337204
Pd 12.876838980570882 14.134259133211645 11.611484259018185
Pd 11.866465608499201 10.73406412441977 12.203451503267015
Pd 8.481042615593585 13.524308581166457 10.567370002811456
Pd 14.321467131133819 11.882666591378404 12.402312887907893
Pd 9.147179962015334 7.070255811080047 12.990670571795153
Pd 11.17566768742424 12.537021246575929 10.372777645715233
Pd 9.99654060954864 8.934398527814476 11.110085630707026
Pd 7.751592623126978 7.050280918770413 10.744107610410689
Pd 7.3611392195297025 9.575931855727047 9.859652998869125
Pd 9.614593030766265 10.8262216149219 9.186511262120808
Pd 12.441345047345983 14.311935911727177 8.750412937714987
Pd 7.371073784611706 12.024336571712134 8.650455960918713
Pd 9.806779073675681 13.640409674567332 8.277780492877433
Pd 13.723953194244006 12.31818371384513 9.835291688471544
Pd 14.669700913545213 9.946666301849223 10.642727310439598
Pd 7.774893191760269 9.61811358128679 7.2674881643587055
Pd 12.799306161445623 7.969841598706512 10.991732230964981
Pd 10.54790025925873 6.467512685054071 10.640553797429895
Pd 9.149037221328994 7.842502092477197 8.729798230949365
Pd 11.888094017324603 11.82927219380021 7.61501921618683
Pd 12.169402407526576 10.004031170511647 9.48256864708448
Pd 9.24423955723067 11.774512925286414 6.570020778531138
Pd 10.405618915829391 9.47012204351093 7.0638773665381756
Pd 14.589522930362387 10.71494150997467 8.051650492674758
Pd 14.328341299069256 8.134538866788363 8.754484940133784
Pd 11.754846653049283 7.564323370173667 8.475342405901246
Pd 12.919966235899844 9.246863698628212 6.7117996599863785
