47
Energy = -203.16650441 eV
Pd 12.145143811523049 9.191246403646852 7.579282706965367
Pd 11.398080750175037 11.581681515833967 6.695217855047071
Pd 13.928905584881587 8.944673603057092 9.49153300693424
Pd 10.667443909295724 13.968661377634973 5.902255269661185
Pd 9.102822825928024 12.718363030933036 7.628132509304471
Pd 11.196680451282727 8.097498259205526 9.907233082116688
Pd 15.758223091075724 8.711752406495535 11.409283476902093
Pd 12.722639336095414 13.861624092925533 7.548489236586449
Pd 13.323200494807104 11.395876816295733 8.519677425114498
Pd 10.0448453083252 10.353036478539495 8.670395466642335
Pd 7.970239645541077 11.547844475116895 9.71490127561904
Pd 9.221684740318086 9.594961775982691 11.0828387696407
Pd 8.679741267478766 14.080360872874024 9.90056552424985
Pd 13.219889277810886 7.610521474193519 11.632276476046423
Pd 10.401690184481607 15.180542713486815 8.221413636347283
Pd 14.515817867358592 13.601553548542071 9.425078720214529
Pd 15.12714827719362 11.166475772115737 10.42599090565946
Pd 9.139469646674106 10.430369378859833 13.771457807480273
Pd 11.901107933638427 10.475972998627286 10.682329021200946
Pd 7.028982135030872 10.66862767454866 12.072773503892078
Pd 11.121522239384497 8.84909619001848 12.66757913376017
Pd 11.104595977531968 12.808534182399274 9.457537974175093
Pd 6.651385901254695 13.226298331810767 11.349894216136718
Pd 13.795998148574043 10.140367268423987 12.527944491738396
Pd 10.21641454277726 8.310704172697696 15.082769161037518
Pd 12.4616207251797 15.201750535942699 9.97264084425653
Pd 7.546331392363506 12.637635631853387 13.723476316042403
Pd 12.267819735337717 6.800026355508822 13.973298355909277
Pd 12.979254783475351 12.696388725990808 11.385619610405328
Pd 8.600179175978633 14.758800507350838 12.45386348863129
Pd 9.711605831400622 12.216135361863605 11.746601177578828
Pd 14.798173685608171 7.812340218474962 13.766214975228742
Pd 10.020107496822902 16.21104097819106 10.617169043749817
Pd 16.57310026438387 10.973137659810389 12.645093603757863
Pd 10.81467322787837 10.706428688330625 15.892673162114827
Pd 11.752434417733996 11.580477099558362 13.473347985865953
Pd 11.24725939838941 14.57426507155315 12.276494648831967
Pd 16.067162397299096 13.452816310003275 11.536066051901729
Pd 12.767251353358173 9.225729689061229 14.901807061629738
Pd 15.249129395204395 10.230480737432071 14.817681510298764
Pd 8.600832600737926 12.044245461060521 16.032067318324
Pd 10.020312237232655 13.420725152457196 14.31169500462727
Pd 13.9371586289858 14.952171113439048 12.282743636662437
Pd 14.621805966253385 12.567544029072158 13.572111297222774
Pd 11.207094993858222 13.195292740294764 16.599403488010587
Pd 12.646253187490597 14.10271884634189 14.480499445966458
Pd 13.299520460431417 11.766243369180236 15.757161044440661
