48
Energy = -208.34360962 eV
Pd 7.169379038888299 10.922915085115948 7.48709603782367
Pd 6.830372375374302 11.075024353695525 10.18158365957441
Pd 8.577566220742497 12.702295580518548 8.98139786677538
Pd 6.901656335605463 8.660225244569391 9.018348574308455
Pd 9.787699163056473 11.231563554265986 6.851699453111061
Pd 8.65649932895897 8.728285220646582 6.882750697587276
Pd 10.737591699253976 13.560528376249218 7.727963773497961
Pd 9.581663261822321 14.751860589868365 10.194141342767876
Pd 9.102208973803506 10.10792325508819 9.267989492976863
Pd 7.8195406172029704 13.144777538889917 11.642107175863924
Pd 11.799878338272672 15.7159346381582 8.932136616978545
Pd 7.530401173379976 7.788639530946241 11.448495993502823
Pd 12.48638278415694 11.302392434400115 6.921590320650029
Pd 11.388384855495522 11.44444343864496 9.221834964005946
Pd 9.346864759165749 7.428878590110453 9.131493663058293
Pd 11.456366207232358 16.24095411763001 11.575570236986609
Pd 11.157268980084304 9.044163828543514 7.838549927287619
Pd 13.292776093143507 13.548416081822271 8.437940960648064
Pd 10.076918435443648 14.242659578012775 12.783889774721516
Pd 7.743793989599442 10.30724134637192 12.445135418311803
Pd 11.78866668640144 13.536187136390463 10.780308421203797
Pd 8.824126532740436 12.252481578583092 14.016272610338678
Pd 9.971815184125884 11.70411262485882 11.458830356568068
Pd 9.819387513210998 8.92483248622142 11.39319410403966
Pd 13.77063658100222 15.232438573241032 10.69770869644275
Pd 9.881934285699344 6.17408307731565 11.437502200267744
Pd 12.75319229098339 14.67006389450401 13.3224229036111
Pd 9.97389006513438 11.157466461461368 16.206677929224224
Pd 10.571019956659365 10.238849334551274 13.66095325044826
Pd 12.149314984781979 10.027848291322181 11.372159836229343
Pd 9.17342384221897 7.617432233006161 13.619203831396362
Pd 12.414610402041832 12.060769375592841 12.98188554492467
Pd 13.807741117404927 11.851642294123163 10.554572060193376
Pd 11.232341733574724 13.194268297846303 14.989273121983738
Pd 14.947955451797746 11.497240489969213 8.040247861742385
Pd 11.86248755055881 7.601441909218196 10.069351310765837
Pd 8.244655085505714 9.662351656441714 14.926005269361005
Pd 13.46598028710638 9.489133758109748 8.998255512023922
Pd 15.013967574313785 13.513276713402426 12.324212521838158
Pd 11.767987208183335 7.559981992058201 12.789675548787713
Pd 15.617519301637232 13.554674359510118 9.722946766944036
Pd 12.528320184246379 10.944488722219187 15.761482828564874
Pd 14.218719526495448 12.725754744943323 14.728262854460127
Pd 13.270024441883072 9.37608321198116 13.886406894523969
Pd 11.174812648157527 8.465591065033399 15.385542215408908
Pd 14.10107166122018 8.346470580959213 11.523074360612242
Pd 15.012505523167572 10.906313053434591 12.773503872258548
Pd 15.736357589577702 10.126989633992519 10.295889743152461
