49
Energy = -211.82814431 eV
Pd 17.368580255450407 14.0516232146021 12.867757100204129
Pd 15.803147567640615 12.743434751368593 14.54721590258336
Pd 16.494384551720955 11.713619836734477 11.95413083492737
Pd 15.769903967728784 14.140368507546883 10.776192878837552
Pd 14.974240841925074 15.172748072241413 13.199053939979398
Pd 15.290216004588068 10.188294286450954 13.815857509439093
Pd 15.085903786990825 9.50092276756112 11.231976960070003
Pd 13.378501767155962 11.654601427316344 14.867803844986234
Pd 13.634475059941124 14.178079765489827 15.28787613145487
Pd 14.599843835890903 7.703227183887572 13.1505768743747
Pd 14.666985380604027 11.792391942043409 9.958382218864742
Pd 14.12147543964037 12.751257218839195 12.493459999489497
Pd 12.934226422898671 8.968587808706566 14.64722590683543
Pd 13.187792325116588 14.985583280237835 11.18525716244674
Pd 14.039848776675594 14.134462900234594 8.789365545118851
Pd 11.17651732802183 12.95822835711122 15.95830842775321
Pd 12.37423623119021 15.800038744309123 13.572787231966187
Pd 13.246446886600296 9.660557102986685 9.34513990828948
Pd 12.851816202162276 10.47199061093447 12.2772042114132
Pd 12.02129481209939 10.385956384642043 16.714350340238525
Pd 11.585582981113287 15.575790584892037 16.120374783244518
Pd 12.777253014111428 7.781703045846729 11.314986506319245
Pd 10.973489949977628 10.818453875653816 14.221213466761949
Pd 12.931301933264283 11.840966253061561 7.958815760546645
Pd 11.617171273102805 13.245691380965589 13.176621046556567
Pd 12.236709006189917 14.085879179538539 6.746879500060572
Pd 10.858694410806352 8.501633029997947 13.037897052620115
Pd 11.619816076862731 7.591451911860891 8.872773019119505
Pd 11.495601935283242 11.615015423204943 5.796798061885962
Pd 10.935070402448167 9.72529504901836 10.574218604341928
Pd 9.823517422464848 14.935253185548342 14.303155335943565
Pd 9.767633507842731 11.776724169563002 11.875240990299693
Pd 11.45067723082818 14.745692001038808 9.212172295303631
Pd 9.442448792007077 10.836248587655104 16.50292282297622
Pd 10.554170590085597 15.10320473903046 11.674880053416098
Pd 10.936960007234333 9.99726930278486 7.8833766153711125
Pd 8.870401274609216 12.466426812559828 14.54618143208606
Pd 12.008818687012864 12.43995676577945 10.507121145848709
Pd 10.136065741166295 6.9873971250519595 11.035779805481306
Pd 10.325870914701044 12.621926695064367 7.906243796186484
Pd 8.195761586840835 13.906153947729345 12.457667809136755
Pd 9.053391389829374 8.357755835059008 9.030722839209428
Pd 8.691375006949254 9.567345717105104 14.255903376998988
Pd 8.548137342379608 9.18289340247064 11.609296164437099
Pd 9.14666981341341 13.767193701408543 9.945296520693356
Pd 7.315141860617793 11.23731152180607 12.750605521953494
Pd 8.82448708351141 10.95679483281644 9.416073035012795
Pd 6.933866695035619 12.451903365908054 10.502233274930338
Pd 7.71150546337829 12.817624608489279 7.948263980347637
