47
Energy = -203.14794317 eV
Pd 8.1875292168993 7.633596795422998 13.028750405289044
Pd 9.972212561657551 6.816351531013303 11.201995835646015
Pd 10.539556910950171 6.7410668816459856 13.859899129402798
Pd 8.200856229252633 8.781595547905532 10.618250451468342
Pd 9.611978501182934 9.152282424908078 14.853712527856418
Pd 6.66587869915646 10.870655325665004 10.814398978176273
Pd 7.873931403784586 10.226112860025877 13.098889075411934
Pd 12.469589427875883 7.42946317643232 12.157611702244923
Pd 12.202164187095441 6.825208888707507 9.580094982483093
Pd 10.522423888409822 9.273009794604919 12.3862486497852
Pd 10.603371495098598 8.912935726257484 9.670998498484476
Pd 12.30616834066966 8.56043747060215 14.597012362706467
Pd 8.721111488279789 10.73913570503479 8.588210160319152
Pd 11.393465057549045 10.819155325684772 15.849836860679108
Pd 12.83413732718491 10.112226643967974 11.072980828704319
Pd 7.406759172226559 13.115806481289598 9.760316327227576
Pd 14.414013089758772 9.061473208307724 13.001352264543883
Pd 9.430952119270561 11.321582829301201 11.075541137397511
Pd 7.7205694132561185 12.817200878971706 12.438458252736845
Pd 9.986724758946046 11.750695812918956 13.740232888884856
Pd 14.452527518738853 7.955483499662979 10.495354729130746
Pd 13.146867333259978 9.172399367528225 8.536986014137097
Pd 10.86216093804394 9.528887548077275 7.090987732210762
Pd 14.162004481571413 10.387759899213556 15.419330584046726
Pd 11.510053631355468 11.272708591123806 9.13407834773485
Pd 9.964508077717873 13.272721376907665 9.222049471510882
Pd 15.642622894637814 10.27796828172822 10.798775793609018
Pd 13.024894664087055 12.706321290088463 16.489885941005895
Pd 9.572254938322533 14.36910357568034 13.65287747380763
Pd 11.633549722593065 12.735391906046338 11.476829967176077
Pd 8.084562594493606 13.136645710782217 7.2046164114737845
Pd 10.464141839652697 12.109553243105113 6.745867602868457
Pd 12.536275778035648 11.023137342353134 13.48370313304064
Pd 13.006874739404957 11.252703936311017 6.804483152070758
Pd 16.124432904146744 10.970502805881752 13.381997655136706
Pd 8.368228950369975 15.431078136740723 8.70720692423355
Pd 12.02240773668163 13.548215179699572 14.15798518170432
Pd 14.623809212061364 12.844507948173664 14.458155735715414
Pd 9.108314978648185 14.796175844857302 11.159866994132418
Pd 14.090509845466949 11.863181213955883 9.254355463760211
Pd 13.399859933040416 14.328749530706105 10.31690742739289
Pd 11.109105814817564 15.634503260787643 9.391554150895107
Pd 10.247883305763892 14.793899619328336 6.898649532949008
Pd 14.00684242142067 14.845597134471483 12.856313274536694
Pd 11.532857806395079 15.31353507264635 12.054901022167662
Pd 12.39191846135221 13.616945703137691 8.019174808875327
Pd 14.378169714107738 12.361553774578802 11.873650956734364
