44
Energy = -188.89226506 eV
Pd 15.235301370545196 10.402434725428142 10.388154638779701
Pd 12.619020713383792 7.427761923810672 8.893917986626017
Pd 13.720301843495253 8.287929331943895 11.065373502009137
Pd 13.711333892978143 9.884588454400907 8.227633521260156
Pd 17.061810408028492 10.829558112110409 12.205355532703233
Pd 9.958995108454758 6.896949837769341 9.208563220089127
Pd 14.887786561549802 9.522132740324428 13.045333719975327
Pd 11.059165876214632 8.246553111737386 11.137175970738065
Pd 13.966742534965572 12.582614394182727 9.575720087252883
Pd 12.426732236301664 8.60248587415184 13.405572058042502
Pd 10.975079317245838 9.310788841717581 8.268815848758127
Pd 12.351965672237194 10.442316531242762 10.355824072964657
Pd 15.680868311014338 11.814566484021952 14.181984997329845
Pd 11.81150737497843 11.893935406834077 8.171360271242778
Pd 15.757940756528416 13.081198545916926 11.649368361674933
Pd 8.447960811100659 8.104510534882397 11.228522850523424
Pd 13.163413228599774 10.757857049420924 14.73085683622369
Pd 8.342103166634658 8.889855983111254 8.7173208026696
Pd 9.868629011273217 7.746189988668944 13.473636851977826
Pd 13.619217743089477 11.73233234358908 12.231953455934757
Pd 10.62231987724057 9.818427451787684 15.052977732988099
Pd 9.657134364009035 10.715346554141734 10.234060645443508
Pd 9.198824624434144 11.244807232792642 7.6181342186947125
Pd 9.857414969303152 13.569307109521136 8.57463750998297
Pd 12.31771858270791 14.534818795470416 8.924019836267114
Pd 14.348931298871824 14.079285714768082 13.894743997321514
Pd 14.21741208438481 12.610458133381409 16.227882924687712
Pd 6.584044295038088 10.710213156625272 8.231345271355275
Pd 13.423250326937175 14.421207818805755 11.42344555742018
Pd 8.586915611967958 10.044946602887606 13.026690799142933
Pd 7.075240192286435 10.419158731823565 10.841940330941217
Pd 11.457213446800234 12.150944014324336 16.21089269933468
Pd 11.906428856063867 13.1092813854176 13.776299580270319
Pd 11.1073657500296 12.985959003635804 10.951295744581031
Pd 7.6095060961606675 12.70682740336316 9.513723507281243
Pd 11.076932890587901 10.819611544517004 12.615895645817176
Pd 10.16718777302961 16.139558552252776 8.741970422752459
Pd 8.521924403428493 12.499162366564633 12.00053695724921
Pd 12.566306403812746 14.631059023123772 15.882943920630813
Pd 11.147233199471112 15.800492157678473 11.104065813193484
Pd 12.20887508347919 15.736378771858435 13.465109168858465
Pd 9.457452283254574 12.21490737161918 14.42778184570442
Pd 8.6813520207265 14.827904794956412 10.632134483426812
Pd 9.806953322532605 14.53296079171079 13.048917097117128
