42
Energy = -180.02100492 eV
Pd 12.198819202050327 7.3745609605321745 13.367786984493298
Pd 14.576647072460055 8.570520180987707 13.23651905932907
Pd 16.863475989108412 9.780757190775816 13.220063944298268
Pd 9.982651855293726 8.807285249520165 14.297854828303445
Pd 7.958070050248871 8.252436142049437 12.523889210668933
Pd 12.964846325729303 8.68325111336162 11.107581240295923
Pd 12.366328462398805 9.877052713417884 14.12933644007497
Pd 15.559212401752573 9.671918807001303 10.873287731233361
Pd 14.806745874408776 10.964577711258327 14.445560161974374
Pd 10.338392043336388 11.420696191108073 15.072353652473252
Pd 10.426524574644226 8.393816996215484 11.71759712317
Pd 13.832354581111714 9.840962380612543 8.855074922897572
Pd 11.072809293916404 9.328334336367607 9.386428276804029
Pd 8.39613750398564 10.705574867705419 13.351943701287306
Pd 11.859556709457307 10.360427512608965 7.08132024595359
Pd 10.76657732035796 11.005017573547683 12.117485667288413
Pd 16.118056993488324 12.066521534905295 12.18426750138453
Pd 12.866733315521246 11.634980242079465 16.133433905971373
Pd 6.296855786094698 10.13475038767757 11.733849599565918
Pd 13.589434415845941 11.10394073415132 11.949721891843996
Pd 12.423923534377215 12.634584570415633 13.727459771028528
Pd 8.67648200785891 10.064310095022885 10.511781698142551
Pd 15.017684454030958 13.528878712652782 14.122134163684494
Pd 13.420023417636566 14.208157801397606 16.082766353440675
Pd 9.351645364971569 10.760815404819631 7.973968184432857
Pd 12.13752334707281 11.671981821560205 9.768767515773268
Pd 15.002662226543253 12.11341898907721 9.75230062803999
Pd 9.386833536068021 13.159981861389353 13.323749212663886
Pd 7.5348467677003965 12.463713449445816 11.529850868422413
Pd 10.873940639224678 14.099393289243064 15.301199992070156
Pd 11.423274559610917 13.650852659996213 11.50003357534915
Pd 13.734272993592663 12.203408312540489 7.417387900896235
Pd 9.537773933567385 12.54588353267067 9.849891538685048
Pd 14.134800383063128 13.80410192122642 11.630956631557137
Pd 13.04151655886648 15.259825711361525 13.614732140116509
Pd 11.071277409126264 12.886491195465306 7.653945987689305
Pd 13.16925193857783 14.071378404287744 9.186135480629224
Pd 10.504390370357601 15.601368628377603 13.146362723956086
Pd 8.783757548476839 14.746292727751833 11.223398184447051
Pd 10.649914753008868 14.990815971130694 9.268469175135719
Pd 12.59039683952796 15.981589799936273 11.051278593695734
Pd 10.150960809735444 16.994304524815437 10.963453128107103
