47
Energy = -201.96723592 eV
Pd 14.431390333120664 13.190181133337743 15.555559592107532
Pd 12.20022926193906 11.765221849681366 16.30418341624885
Pd 14.117443282259277 15.261563100546857 13.841706182043195
Pd 9.851105535737776 12.456415555208318 15.244980465880372
Pd 13.873831595126381 10.876903203333132 14.41403860727673
Pd 12.16563224421275 13.322359883938663 13.98628592769211
Pd 12.548092422666686 9.043945401243068 15.793942570910167
Pd 9.681610284422176 14.674766313002431 13.939533524260828
Pd 16.3925807726188 11.513665860790242 14.275289617256071
Pd 11.765347650573583 16.050340129398027 13.179350460192335
Pd 10.126267689987175 10.003742204636493 16.326044214973724
Pd 7.830798104829306 12.712592139750143 13.579385208489558
Pd 12.635497112867922 11.364240640078567 11.741676296458763
Pd 11.302007582395266 10.665861760728395 13.848627563637509
Pd 14.74743591038171 12.927417760863227 12.854234754376728
Pd 8.688104037319022 10.231978087052067 14.107913040031741
Pd 15.204124004864983 10.39206252872667 12.071421112208522
Pd 13.184342482265599 8.673313470727061 13.231783113767195
Pd 10.538232302788584 8.165597838644194 14.122246508164089
Pd 10.182691647167225 12.57742402315321 12.263119411106391
Pd 12.938336143629884 14.30372952012543 11.490746966197339
Pd 7.805358650106718 14.875641216304928 11.971149459144076
Pd 9.32796996389656 16.93430223304949 12.637941177418933
Pd 10.359151980055785 15.11716206414642 11.06756880997011
Pd 8.666192881009529 8.315358488007194 12.210328849424188
Pd 6.396307737157166 12.754661352518461 11.267961486606453
Pd 14.599151595953561 12.524679001353551 10.294970962016876
Pd 11.186243777505931 8.659115687417128 11.532265099738245
Pd 13.74284119806237 8.60588550662707 10.707982623499705
Pd 11.374222758132454 13.156954920809955 9.692265055321238
Pd 8.695334869364757 13.213712028253982 10.090744376458858
Pd 8.084228353425177 10.82082898600313 11.641542003914282
Pd 15.58309783372606 10.167809116794999 9.404729698854258
Pd 10.364806564229225 10.821813792429667 10.20651325136371
Pd 12.909606841328136 10.646039215063501 9.212776773665018
Pd 13.510419562988528 14.296948258599548 8.668415102277839
Pd 6.818305655541682 8.951941792727641 10.373143932998422
Pd 9.270348638233298 8.48224278646584 9.559135862249619
Pd 14.699542711650905 12.1252274492228 7.662605636918032
Pd 11.762102304273403 8.251539979535835 8.859243763920896
Pd 14.32656690429738 8.047091333908336 8.197510180741734
Pd 9.559005771409998 12.708573238502517 7.682045704822525
Pd 12.12128360328178 12.328876504951054 7.277614306024129
Pd 8.003475363859124 10.867641173111252 8.883528235489122
Pd 15.585860953177317 9.859588845153283 6.734060936560388
Pd 10.399851207625412 10.180316736786954 7.610660897221436
Pd 12.937504496926188 9.815757848051618 6.749424617716931
