48
Energy = -207.64038687 eV
Pd 12.926963285258347 10.451760984971491 6.297982481230522
Pd 11.205137994821051 12.593304015199948 6.736774880058423
Pd 10.71999245213355 9.992277712230926 7.785431296586508
Pd 13.908875053690362 12.9994109767128 6.6769907688503425
Pd 13.16935663540542 9.036312554608516 8.614552449235577
Pd 10.925486627261986 7.848677130411436 9.846074048716822
Pd 8.795634640365703 11.85671349047559 7.555024868845639
Pd 15.174685951415295 10.838791972723222 7.822752072972889
Pd 12.746859902014387 11.6115872685736 8.717247373868402
Pd 12.424581754678737 14.302222951786636 8.513026839551369
Pd 9.803633163475254 14.635471205016515 8.047634074657047
Pd 9.137993556034047 8.88698943435115 11.879689493359882
Pd 13.51912414177517 7.964232274527877 10.926839903818072
Pd 15.439843212533326 9.112524095062504 12.590454503980315
Pd 8.757013978774758 9.984901958274998 9.544013461666218
Pd 9.151873062604361 7.786800781370113 14.316808116693661
Pd 14.843580081252497 13.206163064561837 9.16467315719043
Pd 12.78261629635748 9.973073459874401 12.370935198613655
Pd 11.254125169263478 10.295120141820766 10.459534600852779
Pd 10.408261991757321 12.6202951486849 9.552062870694622
Pd 9.553044213453434 11.63380519801312 11.98677350251343
Pd 14.777073978418706 10.643177340582294 10.48264062032284
Pd 7.747003999733259 12.48689518869217 9.89199192644431
Pd 11.331474784745884 7.653120704015037 12.513447676402311
Pd 8.12588499751267 10.365997743265083 14.104100281036272
Pd 11.730405279138854 7.803872770445148 15.22525010653442
Pd 12.957888601942454 12.50603384642827 11.165600906109466
Pd 10.754167776282841 9.919856421221036 14.035650065412035
Pd 15.627516928067404 13.484051343768405 11.612878306381122
Pd 13.738297740459215 7.263330824778277 13.534306275776666
Pd 8.73782322347736 14.834251096724943 10.57833918329907
Pd 14.744738054322298 11.64332614863636 13.189890962292832
Pd 7.400755851175307 13.358637103909844 12.377472843480781
Pd 7.062292157793753 10.62615300733452 11.658448587172577
Pd 10.909262684578918 13.934293391292886 11.848261485932667
Pd 9.51685924407116 9.647519196066037 16.3099931496471
Pd 13.595010851189084 15.075991365866619 10.828664543128554
Pd 11.11609701255839 15.922986967877037 10.116407075572129
Pd 11.827366499509774 12.154895997624946 13.536479858276728
Pd 13.82321878869004 9.66344764153321 14.711747436685167
Pd 13.649999763939624 14.13923604150412 13.373854634999555
Pd 12.18031915246502 10.03448504475723 16.669857866705122
Pd 9.090398946010767 12.837344786335013 14.288128631565142
Pd 11.9324425242054 16.154681113020164 12.767998802269792
Pd 9.216603924148902 15.286653628618433 13.232346034454242
Pd 13.461375164563561 12.26588506686689 15.533395248404076
Pd 10.714496448076664 12.069119076507823 16.061241040265397
Pd 11.352594352909046 14.396357267357503 14.82676240256801
