45
Energy = -194.53491926 eV
Pd 7.941359338093025 8.777466831112822 13.86024879034893
Pd 10.42132504027989 9.262449258317925 14.719358027594792
Pd 6.393458971545864 10.472804209954315 12.44188627471555
Pd 8.62189589099193 11.327053453819344 13.728257750876036
Pd 11.137643479138273 11.823509360952993 14.401134065096201
Pd 7.92510755844231 8.6365886986102 11.194090156403448
Pd 9.366557719572894 13.85080657162117 13.421855975463126
Pd 7.024885693310318 13.097688036051961 12.378856299978372
Pd 6.696570582608972 12.951378501903053 9.665243258152273
Pd 12.401217689963806 8.118485938993524 13.28449712425988
Pd 9.888758569219261 7.337908151081535 12.689960126051764
Pd 6.2898694808806415 10.240403956261897 9.767563840518596
Pd 10.294522275775158 9.903255683731205 12.149273861695457
Pd 12.829324546945912 10.774667504063167 12.531366995029035
Pd 8.916700718846656 14.18109089248109 10.684612798102846
Pd 10.834791821084217 12.45873825306957 11.714505976356516
Pd 11.874075565005352 14.333849926857916 14.197342649060136
Pd 9.473062070313004 6.813750147833434 10.063695942653004
Pd 11.064879361903023 15.26407974574957 11.830131608019679
Pd 8.4582699926202 11.405083340705035 10.899209669701067
Pd 13.022874273198337 9.98783156690073 15.096918141433903
Pd 14.05377731711342 7.295354795902908 11.263716886673311
Pd 13.807648853526517 12.486351501588286 14.495755008278813
Pd 12.138586570641722 5.989412501836653 9.410972437030912
Pd 11.644813112736415 8.139128608103775 10.759556096536459
Pd 7.8108765689203095 8.350467242686339 8.48239359623283
Pd 13.247105978303562 13.538703261763544 12.051365906627108
Pd 9.862872938505262 9.653062428322631 9.422054433563329
Pd 12.092373438016567 14.143044196869617 9.710148211351136
Pd 12.242951065631306 10.773447813325516 9.982293801668657
Pd 8.003248557353222 11.23341076558044 8.040205745793477
Pd 8.57952547900893 13.926968195469707 8.03547250798592
Pd 14.842923926917546 9.148839002660218 13.127532549765549
Pd 10.31986888061128 12.301188980270966 9.08757458326481
Pd 10.759498271404777 7.669405363327791 7.871270251259825
Pd 15.284451726332582 11.764918767211334 12.33287340763616
Pd 13.313605635922011 8.270424417514992 8.724277381619688
Pd 11.02108958336662 14.562693991141817 7.3164935714777215
Pd 11.815449268406695 10.096959818980283 7.392542488872133
Pd 9.374597912489019 9.533671885253908 6.570041595297574
Pd 14.276999430363686 12.442638806304888 9.90038250074962
Pd 10.178425714457918 12.110114515528146 6.5070375213416
Pd 14.666598018965297 9.804194164856472 10.559814330183304
Pd 14.387112968887424 10.557807535283686 7.974363783617043
Pd 12.734716457181923 12.58196288774386 7.632470131870227
