44
Energy = -189.05446804 eV
Pd 13.91743792663712 11.785973001280004 10.61237134433981
Pd 10.692439571153944 12.960470771362667 7.444716207030984
Pd 11.815386397158179 7.076211880111855 12.169906371727913
Pd 9.278537562588532 7.654336042456016 11.146404902188618
Pd 13.744388453221468 13.018305805301425 12.949230523113682
Pd 7.091357473739116 13.482202256768318 13.354393913505907
Pd 12.04580897508139 15.143111004644133 13.083933780242635
Pd 12.664674477707567 8.957892437755334 13.985269697687897
Pd 7.343376253133063 9.509939658064713 9.946809956312386
Pd 14.955050951253636 9.29731082823666 10.41334698579723
Pd 6.719568454933248 13.223891110674215 9.366357247018625
Pd 9.062953551794585 14.299876209608776 8.936084911731522
Pd 12.552989610547574 11.34100054341148 6.456768092592158
Pd 14.770216215548444 8.169289050135067 8.013865338211282
Pd 13.401915760047187 11.312410336267417 15.032478430732297
Pd 13.281935591723856 13.142538481502076 8.380645012683768
Pd 8.407062998901832 9.59967940390988 15.18081643212824
Pd 9.192936074064558 11.622652990784182 13.504636371917261
Pd 8.733119347197952 11.554445723840127 8.836188851037761
Pd 11.537021947183081 15.189784640018818 8.593513057510833
Pd 7.640022846581922 9.259524603616192 12.582685008534474
Pd 12.17444489885372 8.992089883551978 7.865906881799213
Pd 12.43489194506463 13.903649967586356 10.782060129148386
Pd 6.517646187066773 11.073819024091609 14.0610537512837
Pd 11.408406017473663 12.950434711380005 14.390309436401123
Pd 10.918376070160276 10.489694691819311 15.307866541306842
Pd 14.54186504580443 10.424722361993798 12.768440839218593
Pd 12.873484446561479 6.401623879114887 7.61333751143446
Pd 7.813855370676306 14.764441067216113 11.22332368359389
Pd 9.745395456419274 10.27618452171939 11.108360000868892
Pd 9.680825266059426 8.961824901175994 8.81809910087312
Pd 10.096286366673663 10.477599871780336 6.772919525902697
Pd 9.988548505738155 12.89931614071517 11.086803644089706
Pd 14.267704260264669 10.69730677311 8.285128070961258
Pd 10.157072962766659 8.84233696947617 13.341395633702444
Pd 11.154735170282297 6.92442662905289 9.476669812996386
Pd 14.41124024224998 7.7406180570113 12.487934875380995
Pd 11.814600399993429 11.174534191417035 12.473310117425408
Pd 7.393262140277567 11.760237623644016 11.401339514102862
Pd 10.395127067279862 15.575167152683932 10.974841715202118
Pd 12.293292875005083 9.201593614164427 10.751502692702365
Pd 9.524046319400972 14.394780532959263 13.295140540629186
Pd 13.724322958869243 6.878082546782141 10.097374522145891
Pd 11.513237145828434 11.285535666773168 9.31732658175284
