42
Energy = -179.44630244 eV
Pd 14.193315706918424 11.352310051114735 9.43052306628384
Pd 15.224618748673828 13.61049309317593 10.547453381204013
Pd 15.467224832830983 11.135901589271269 11.712262100300471
Pd 14.97129179031402 8.951444475396706 10.232436794130688
Pd 15.742845044306966 8.756428827745768 12.817041213766215
Pd 13.494356783723134 13.722353840641423 8.534971206353298
Pd 12.751634729051593 9.078797897882323 8.813273239370274
Pd 15.346956306379287 13.253168966502775 13.321707069075439
Pd 15.90972693365446 10.904472737458882 14.396270479708415
Pd 12.28880725219384 11.375106209531024 7.55302442788051
Pd 11.503800297395761 12.488927339060274 9.865136923908295
Pd 13.557483675672758 10.324661075411624 13.496931818781938
Pd 14.551194450352169 15.535689626593426 12.281580885528802
Pd 12.575241212315458 15.125239344748769 10.547702383183848
Pd 11.773888960851673 13.826204141753525 6.584121476033189
Pd 13.315202833460194 7.9862116188772 11.975272562478418
Pd 15.29865109231742 12.889652772231615 15.977465505271107
Pd 13.156129349596338 12.774826668940962 11.929915474832649
Pd 10.963602624000236 8.016264627448468 10.699307843464256
Pd 12.293184883641496 10.3268156767791 11.118663055003683
Pd 10.32135211283858 10.171452483755951 9.092012811502507
Pd 12.97126894767584 12.565743862171523 14.82597173907791
Pd 10.539518442817243 14.636988160400817 8.800124413299589
Pd 9.792402607064066 12.354145052315637 7.407208337597943
Pd 14.2163658422892 15.113281548464228 14.9431406208964
Pd 7.883527690138888 10.71768660327395 8.259557454814193
Pd 8.427682522002405 8.553666689291967 9.88341831607047
Pd 11.252298929546265 8.872048292300175 13.300901819801929
Pd 12.162018473161117 14.891393782775275 13.225067971256022
Pd 11.030840981044761 11.778045328796662 13.114147686830066
Pd 11.941519868945335 10.16364375201639 15.546318878949254
Pd 8.850877705582635 12.621905376154151 9.867144889510605
Pd 10.239695682536132 14.224985134962973 11.466523602991572
Pd 11.757600232822028 14.667589503681311 15.877397757193325
Pd 9.406589663779812 10.041504033915087 11.817708495802465
Pd 7.122024040112103 10.835262018048589 10.767784493380532
Pd 9.864561978596804 14.013340665955933 14.085112934686649
Pd 8.385268430754058 12.59917059519649 12.437072212522176
Pd 9.461083533540576 10.242825219808928 14.655011794015133
Pd 10.478837161890322 12.348523280463837 16.016772235912324
Pd 7.198590853280497 10.424062192500175 13.361670906049
Pd 7.977190953486059 12.388040004739779 15.075143882835278
