43
Energy = -185.35095831 eV
Pd 13.38508711064129 11.270849494876012 14.120130125554606
Pd 11.304347864022752 8.08609664018432 11.046676570919345
Pd 6.815111373946018 9.686043409450201 10.972881044714706
Pd 13.564741376445985 9.242655584097367 7.174261207637418
Pd 13.495780272569332 13.765115939251668 9.978602819419885
Pd 8.928626859348727 11.239241703188707 13.928432683041976
Pd 6.745505864647473 12.005838001452483 12.491556937749893
Pd 9.269229405897475 9.188596781777198 7.026842617076657
Pd 11.115450835861186 10.361967495474422 15.240047557715798
Pd 11.380042357445369 8.283271796601905 8.366853972195218
Pd 9.118289193168279 11.52611904530804 8.335935980558965
Pd 13.292534832804783 8.835683540949466 15.158084889258637
Pd 11.301467576701814 15.270546684425067 10.061531048098468
Pd 11.306502406282787 10.594467777185457 9.790138443490246
Pd 8.961230504061717 13.602730553357741 12.706801120964537
Pd 9.006324915141805 8.764401026293918 12.331087282021366
Pd 6.99651055251859 9.887425892384785 8.326021559025746
Pd 11.337368967035292 13.083310643326184 8.497550795946806
Pd 15.630572366441001 12.09249069894646 12.802207967066783
Pd 13.566442479520047 8.955328567647628 9.83556608589357
Pd 15.719149289359024 12.228507529021867 10.002095876422215
Pd 11.209643134531465 12.868026643917739 11.283150602767234
Pd 8.978827941654346 11.29133473646866 11.123763819214444
Pd 13.500058748567834 11.329753351141015 11.288134165692986
Pd 11.394357036309405 10.77173517170183 7.101060974423992
Pd 11.149920254740875 12.793019934760368 14.082218249026711
Pd 9.097174694750402 8.900427104826486 9.680754086446209
Pd 6.835696683318572 12.151879689693875 9.699338172568599
Pd 13.575111815249997 11.561338546467432 8.457513713343573
Pd 11.216316568220236 10.453406027978135 12.539159804665257
Pd 13.406575440841914 13.623428134318612 12.839767718720198
Pd 15.732194840757941 9.96931024846041 8.62672521329641
Pd 11.199248892595422 8.01412135953213 13.728445970557887
Pd 13.484436607740596 8.811863633074532 12.484443138567539
Pd 9.048530489058962 13.753880309971928 9.781395270735493
Pd 8.998310635865476 8.777282181120912 15.006460503776632
Pd 6.815425936487684 9.6103627944071 13.633022910947691
Pd 15.55314908301675 9.700417694675135 13.933018097266752
Pd 15.739847981058734 9.773221376382926 11.281080232263731
Pd 11.220628552252489 15.134030817193276 12.752938269584911
Pd 15.58801825848376 14.382742174604134 11.505079991083772
Pd 6.863618072528138 14.319549708353843 11.212563890271538
Pd 9.066321062256737 15.921137666017517 11.377988191267361
