43
Energy = -185.40205169 eV
Pd 11.899431328568447 14.907876553378166 11.512906985674679
Pd 10.236242634748866 14.792903463981476 9.257948170232758
Pd 13.321673112740273 14.758762919531275 13.84531503296108
Pd 10.756393908958502 15.45069793980087 13.91366664422114
Pd 12.74617179780331 13.660958841429526 9.350054175985553
Pd 9.614381571048177 16.129331287467725 11.541619742691667
Pd 14.050139312707742 13.366561930675632 11.672895220070018
Pd 7.79934090477787 14.520972633171622 10.471831822026356
Pd 10.813257405653085 12.60873954631565 7.775892262809462
Pd 10.520290286471772 12.609487851771254 10.629030271901133
Pd 14.883865883192367 12.597048351303595 14.029684832723996
Pd 12.59218211133148 12.703511525705462 15.49860661989516
Pd 12.784996175639254 11.076996070657065 11.670116983383307
Pd 8.358432048540191 12.721166061598735 8.657640703585127
Pd 13.40987133613345 12.276067634791813 7.149381131419427
Pd 9.858603309132798 13.30640591178348 15.226929783639404
Pd 12.326457591436172 10.886006818727463 9.121341961000915
Pd 9.010402611382126 13.813845269351171 12.731533528196033
Pd 11.502451071510853 12.810512904299777 13.138908478008682
Pd 14.828987721020386 11.934505336415658 9.558188301245234
Pd 15.35379435974362 10.793865704881705 12.048323154008866
Pd 7.9566041739203985 11.971453250599726 11.175677744397632
Pd 11.603136198750757 10.241761454176133 6.656480203079886
Pd 10.187936307145545 10.481954104720975 12.20871856102819
Pd 13.362126144590405 10.48472004930683 14.131717918010791
Pd 14.410954081295081 9.383942029385407 9.974051066566632
Pd 9.797993126244778 10.193589710012835 9.576620100762833
Pd 7.188067034406919 10.30038794687147 9.218029238699838
Pd 8.278080316697002 11.470668967339591 13.786327851971047
Pd 11.784767851718366 8.81135711197644 10.83494317461899
Pd 12.582646473538711 8.354373590841776 8.272343269697286
Pd 8.946626133259144 10.691715485773585 7.102731490097392
Pd 10.756564774069467 10.822614847397094 14.849558663347608
Pd 11.593668183646923 8.579700212151865 13.694185691975902
Pd 13.621916966180565 6.8316723034643845 10.168663808408565
Pd 7.6480855929766 9.45117885267221 11.847140496185972
Pd 9.670393440012056 7.678277396475035 11.967385321581258
Pd 9.994579977173993 8.327937627637915 7.6600120890504835
Pd 13.968543384961247 8.42031270134779 12.47195403327247
Pd 8.972985404346218 8.913968687277483 14.199209886991081
Pd 8.370895701001887 7.947059728445473 9.68527968542233
Pd 10.806747094599414 6.695832382682673 9.68377489968123
Pd 12.024211875939038 6.414193721418718 12.228275718487122
