41
Energy = -176.41046101 eV
Pd 10.10366321848843 12.17194579438557 15.05982758123917
Pd 8.385516780471491 11.20194072947062 13.251903119881414
Pd 7.685812842363171 8.50561934681652 13.717759587849823
Pd 9.960298482228165 9.515617383659656 14.57676819140035
Pd 9.779068191828964 13.43412720299756 12.75940853473828
Pd 7.254959442841721 13.140248593565085 11.748924046032478
Pd 6.828704604188323 9.834677699418448 11.700949594381074
Pd 11.87002138089432 14.409544526989814 11.38518471563834
Pd 12.353543664683603 13.170762017097516 13.727034694102711
Pd 12.31750399280635 10.675098766748343 15.003475481247717
Pd 8.78342446901012 11.55316202512188 10.418281250008697
Pd 9.871365847721968 7.03104033231568 13.533297698756371
Pd 11.184160031963964 11.181452092588765 12.537807268455962
Pd 9.662080537427581 9.28280470074842 11.667059000943588
Pd 9.297209605027781 14.355196596642775 10.38948239562067
Pd 6.07974847895598 11.251898448205827 9.720066318442473
Pd 12.003347394680583 8.582500507359985 13.164216948818726
Pd 7.270622862539657 13.497768268642782 8.96265017372408
Pd 8.217258210259514 7.184927799619077 11.285093051196256
Pd 11.394659357972113 12.201742683970163 9.998297970236376
Pd 13.970954049672995 10.241848094362531 13.077821495886324
Pd 13.666879991681347 12.313057989821932 11.516764267334466
Pd 11.310159825279994 14.928486156001869 8.796384642974362
Pd 13.714343582873202 13.990575288632005 9.444797107640204
Pd 9.717226646354677 12.968181917783117 8.067993712094436
Pd 7.858130083066118 11.187632779699099 7.724568223395955
Pd 7.724085142056722 9.072455253377816 9.388379586218793
Pd 11.053438430232244 7.1012514802147075 11.159896589751083
Pd 12.555934890143165 9.866196014381774 10.574988859754907
Pd 12.27876982469482 12.632635013598515 7.519621225850108
Pd 15.425843263229519 10.20713369107048 10.992484156183368
Pd 10.306599504980667 9.821904185792087 9.047186707740723
Pd 13.779885826789112 7.754989966940816 11.325457055160332
Pd 14.246307310092407 11.478800440542749 9.000031634434801
Pd 10.326575794494998 10.80925858788604 6.587469146153895
Pd 9.614836322384129 7.244132407477818 8.903071582358432
Pd 8.50288084151539 8.778333418270625 6.890091119430146
Pd 12.345565064258176 7.5688603664719905 8.976219599796076
Pd 12.58930995184085 9.978128469802698 7.670030970039802
Pd 14.648556758157019 8.819048278419197 8.882187770097232
Pd 11.041472953955152 8.082394827417716 6.738872135339859
