47
Energy = -203.23274646 eV
Pd 10.220951508203143 13.301099470199635 15.023994361880218
Pd 9.150884106431448 10.581453885318165 9.2055949861227
Pd 8.55191145601056 8.304609999501068 10.693998804226966
Pd 12.053075524672472 9.58210326260603 13.72694265112225
Pd 11.477386747438448 12.426203577652418 12.95367988522381
Pd 11.895246063709713 11.42800680225148 16.145288473602385
Pd 14.4381869552884 15.519190937309265 14.21519052637599
Pd 11.631603678676239 14.577323890256963 11.093499120066369
Pd 10.388284158402175 10.261234909620592 11.745446984635334
Pd 7.311147139978453 13.490638336851031 11.229991571302449
Pd 13.411841482579556 9.369496611674784 8.768849194558356
Pd 6.601170560330588 9.251441661275623 9.094859000613555
Pd 9.370442096883187 14.548465946907681 12.722946502276484
Pd 6.0995840508755546 11.89894201483866 9.294236358563658
Pd 13.374617099249294 11.2814627567233 11.536519642208031
Pd 7.503902300516113 10.882508593139868 7.157134160630284
Pd 13.722903479952983 9.458619903702445 15.838795231666488
Pd 13.687985602007593 11.651603288966733 14.183780059301009
Pd 13.889959844855472 13.813415234846579 12.331073978506963
Pd 8.562847562738582 12.042108270280668 13.173364637599839
Pd 8.84702246622193 8.346753332630435 7.931081769726206
Pd 14.410372035279215 11.927807287194303 16.889780673707488
Pd 15.336381132734006 9.915231173854062 10.626010756046327
Pd 11.795302444096372 15.158299970666137 13.667461933775375
Pd 15.991723864956287 11.606775166117174 12.755270516068993
Pd 12.639014050519673 11.883936395316548 7.257421217037771
Pd 9.177427965287066 15.199410987755291 10.081794270391482
Pd 14.72110168047045 9.3003306553845 13.239473531334896
Pd 16.09173804856718 10.648467243063214 15.208180533004828
Pd 8.283102726223104 13.146858286476453 8.588950065104028
Pd 10.629526542254888 7.7244690114163355 12.333213868377616
Pd 9.91961363661137 10.557763426360502 14.803619116531136
Pd 11.012331118177327 8.389115295504778 9.64505786750229
Pd 7.393225000369708 10.740504688663988 11.202610447405423
Pd 15.64822088101018 13.289666396300913 14.96202974069511
Pd 12.954355963675388 13.775582438658926 15.537266334572555
Pd 8.372003191399125 9.265311567547592 13.1852760788702
Pd 9.793303097153897 12.619440795365401 10.79402150217713
Pd 9.998665507306983 11.866652972315885 6.997072580220125
Pd 13.400346468857 13.263490766723905 9.630836348658853
Pd 12.983082646613788 8.652628724261573 11.342986660147389
Pd 16.49042202949136 14.23191645141883 12.661665415172768
Pd 11.162917593223895 9.543971453047947 7.2761040170943385
Pd 14.991272108348673 11.461461985294571 8.455530916690885
Pd 10.98518875082237 13.731206415445536 8.622213884205241
Pd 11.710096002669838 11.153991402052382 9.574998946604
Pd 15.826735629494191 12.837450357874877 10.503308879028717
