44
Energy = -189.63378648 eV
Pd 8.976662795969643 11.13143381985649 5.7241208430477775
Pd 7.8115873475385555 8.65455837191469 5.032823038128623
Pd 5.152076155554412 8.766229704439677 5.838437225534324
Pd 10.888321316156393 12.923456939564606 6.068442504114014
Pd 6.385024115075114 11.066145299917983 5.153066848107976
Pd 9.582211356330477 13.669456605448323 8.220674403293108
Pd 10.397720340747837 8.888683002113408 4.938189778881276
Pd 12.077918276144583 7.923953006470843 6.792820963132687
Pd 12.143772141743632 12.346549127890608 8.400490077831234
Pd 6.884714989247861 7.088375509041586 6.938108338321738
Pd 9.31918555548051 11.11374313959861 8.407406025057867
Pd 7.180485911693381 12.463685941108979 7.460407377231915
Pd 9.458334103174852 6.564528559188104 6.045953307237889
Pd 13.587973649943521 10.00885696070184 8.154819964715147
Pd 7.277307210607765 9.70900369423316 7.367111880438752
Pd 4.845123627201007 10.987334849142242 7.377675111410123
Pd 9.594064497417742 8.4555460484342 7.788882935017287
Pd 11.358405823125809 10.448962076794617 6.776950140598635
Pd 9.98665725206317 4.466220801145087 10.22200074933358
Pd 5.071714103760526 8.555897961757873 8.600160192357597
Pd 11.099888373616992 6.085400121384267 8.391734727516072
Pd 8.493073949384334 5.7770752903716565 8.475329529053475
Pd 13.049480531623471 7.732383120801728 9.2750272773256
Pd 5.841403001865888 6.062728643526117 9.143842795277257
Pd 6.38090116471242 10.76445517545595 9.566095096369033
Pd 9.967284327600881 7.441379068879737 10.434984841609198
Pd 7.937823192896457 12.809904424326636 10.143050262558605
Pd 7.537605977445343 8.11379600414497 9.58584803398939
Pd 13.000637508291067 11.11400052378228 10.69273385516007
Pd 10.59563126446561 12.398818412814258 10.469955709778079
Pd 11.213318121132387 9.668783466209492 9.525847360850364
Pd 7.697184092185845 5.679323482429023 11.026377232192264
Pd 12.170339789241922 5.859924007466931 10.911895002607263
Pd 8.795076011316308 10.145218737207024 10.876307460241355
Pd 6.691956600408035 11.35991847045463 12.145221587516106
Pd 5.789003536548767 8.932138276986672 11.385344325150141
Pd 9.884617770436547 5.851076133736048 12.540908591256327
Pd 12.247904517400638 8.468607046170428 11.66794313518702
Pd 9.048109732344287 12.571646064836774 12.599962905938591
Pd 8.038863306771592 7.927783637804676 12.346689516883437
Pd 10.937852603659016 10.649293341545574 12.426206856041055
Pd 12.30547623168611 6.525708012194677 13.463145897458656
Pd 8.529989599279151 10.142746170140219 13.629788153489667
Pd 10.391658540859991 8.30961126271679 13.591558456907128
