47
Energy = -202.00372105 eV
Pd 6.299661415581723 9.064040009036631 13.497881198585842
Pd 7.155306872933033 11.63037300406868 13.5939487649197
Pd 8.778018453439415 9.421701755879571 14.177707196397938
Pd 6.7786989254155205 12.83565530481238 11.218241455745694
Pd 9.607650339641188 11.940507714787934 14.660637503629736
Pd 6.919670665837546 10.219475037308282 11.245955416271567
Pd 8.737201066290693 13.714244315900016 12.834829978566782
Pd 6.8462830600770275 13.998227052531952 8.834064579792337
Pd 8.197343919352514 7.9685705419732 11.967744126948906
Pd 11.254468410725927 9.612698694983585 15.007863447287875
Pd 11.986409672201598 12.25610489609093 15.478077791033346
Pd 7.504820640018202 11.298579944061155 8.897637952550092
Pd 7.970090990244083 15.320523441390979 10.899760453585762
Pd 9.458628210659926 11.184103249044803 12.161713634708768
Pd 11.322580035006137 13.440994712931394 12.988221341151716
Pd 10.722327638894434 8.761251261338524 12.390333635974189
Pd 13.919856521347477 10.442930692046115 15.178361416889546
Pd 9.211984658619697 9.571399751555573 10.074462785608704
Pd 9.169959066993684 12.91794090153345 10.034869730003164
Pd 10.663788473264223 14.915980953786844 10.837238807566322
Pd 14.294847789477895 12.782021853001822 16.521730994877945
Pd 8.6335877985676 13.020392911937833 7.13283224030938
Pd 12.24698017140838 10.98145915971333 13.022465095990581
Pd 9.238832710211335 15.291226847771313 8.532540913623695
Pd 11.033096196736793 13.42750351815058 8.160812000313896
Pd 10.138809410214199 7.112658249039805 10.32859800809702
Pd 11.47448369387472 11.670995809853826 10.531425260898576
Pd 13.109532807795004 15.312465071182096 12.061309320219658
Pd 13.473314197032714 14.148193436426887 14.411309891864104
Pd 10.108535174921009 10.949169666181463 8.066193775535687
Pd 15.554340319932296 12.441388112885223 14.274867152315942
Pd 13.252106036563477 8.541943659879074 13.427835043038495
Pd 12.59317597910788 7.3188167110424 11.160119838955827
Pd 13.902420918279542 12.707584228839638 12.0485855538484
Pd 12.901770641647978 13.897373911407081 9.792767406543227
Pd 11.658529946522316 9.068130207755125 9.154297221867028
Pd 12.770076347547539 11.384589907285557 8.211407125960339
Pd 13.546467793233177 9.995938555854757 10.732878354496334
Pd 15.657403151187559 14.809504985550545 13.089085913302638
Pd 16.59634682724321 12.516229828217506 11.819376634487007
Pd 15.33963373123025 14.60410585795722 10.485579773782149
Pd 14.945749436339728 12.145030541264052 9.614461314923544
Pd 14.962047701538852 9.930043630067617 8.266511340627533
Pd 15.204339812486309 10.304767552487567 12.828105330946133
Pd 15.13556942626195 7.963996804329484 11.472289785115699
Pd 13.955335682326695 7.707424677596573 8.997207023776324
Pd 16.42063515299561 10.10979810200429 10.50866384697989
