43
Energy = -184.65354934 eV
Pd 11.680210585278624 14.37560551369305 8.2355785039373
Pd 12.794923732932254 11.947784334361025 8.246061244091639
Pd 14.351426377744744 14.080815929456092 8.655825454310724
Pd 10.042739446912027 12.071040133981061 8.163244698100124
Pd 15.209600487708158 11.295719750224565 9.120886244137974
Pd 16.64419910383628 13.386643280601016 9.99245217654182
Pd 9.013206999386687 14.495293843732213 8.007985359722893
Pd 10.10303139161921 14.874172523788136 10.38778449032315
Pd 11.28398183210005 9.863891142529587 8.88095655006405
Pd 13.175550205720805 10.487960011962864 10.606601543264388
Pd 12.661779410625748 15.192039866414918 10.593832213001933
Pd 14.076853607803054 13.019601512315823 11.065648642559673
Pd 11.326981274959001 12.511847897304076 10.43550989609637
Pd 15.24167767734983 15.557017699654246 10.81269525411887
Pd 9.139827042414648 10.449245890474721 10.269087698440101
Pd 15.969808394480983 11.3978576000702 11.769759490399169
Pd 12.874697136341908 7.934533299674833 9.735392009309946
Pd 15.217725833517159 8.938713212550333 10.938405555685517
Pd 8.238722122275188 12.953321802328695 9.992555820447004
Pd 16.401132890694853 13.949824578990993 12.581509885817118
Pd 8.569894697481557 14.372360295547761 12.38618345171183
Pd 14.822851129536833 12.504948412105794 14.03862019552704
Pd 13.84585036509859 14.79749158665078 13.043791800910943
Pd 10.17637158971232 8.00071778366762 10.476991952981237
Pd 12.440755574594323 11.9752536551231 12.889514771476984
Pd 11.218068398741524 14.410927484741805 12.744542419394232
Pd 14.22534576928991 9.977796991226212 13.234038501816707
Pd 11.691727364267809 5.937447191588933 11.10147607524525
Pd 6.191985354156194 13.744081412652196 11.463751145110017
Pd 9.73609740733245 11.937455917104185 12.448310002735191
Pd 11.250652713012315 9.685678271411005 12.147157590863214
Pd 7.201885475085183 11.368226137209275 11.940578383578778
Pd 13.143737693229752 7.7822200362750635 12.30947891374078
Pd 12.350003064856429 13.479926697670633 15.034147940599546
Pd 13.392253287248135 10.977389597965091 15.60641439225354
Pd 8.645521871822774 9.157011792871106 12.551480674120002
Pd 9.629294019743028 13.447074500016681 14.72741185905449
Pd 10.57730427298942 7.247996354809943 13.116159217199066
Pd 6.979163880588925 13.15146299716272 14.000722841999108
Pd 10.867978025882385 11.092064207117637 14.908870889961408
Pd 12.227019010971603 8.811583578014199 14.603002877977554
Pd 8.250494078023273 10.954962534575369 14.500563133236119
Pd 9.561727057284687 8.743043881493925 15.054740682874263
