41
Energy = -175.98524202 eV
Pd 14.350731367263942 12.5824264314708 13.080705975752714
Pd 12.826009467425864 13.386362273648928 10.995539378197567
Pd 7.0172648890816545 11.865303517820358 11.09918734914292
Pd 10.016399821423914 11.802090052835307 14.140246950165816
Pd 8.065750265745464 8.066213390717625 10.609844857468088
Pd 13.501265279204482 9.120966389161238 10.453531181205296
Pd 14.636924660627157 11.489238598219764 10.628085356303572
Pd 9.892008602546294 12.270719677620548 7.119328139963409
Pd 12.008868848626408 13.694109580928885 6.687237491005583
Pd 10.699667334242275 14.914502743406405 11.47284302103772
Pd 12.113224346500603 10.996463540117954 12.049091367166652
Pd 8.062433931925234 14.277005606171006 11.486502165294883
Pd 7.757707835015465 8.347892663722298 7.9374678950822055
Pd 8.341848949209716 13.102285742626604 9.099126732580906
Pd 11.696345621602072 11.001218258948798 9.393680450008889
Pd 9.437469919053155 14.361114882834428 13.800753877211719
Pd 5.828158708076681 12.291987953857422 8.812836789114701
Pd 10.732131112261888 8.86861822787779 11.006615922880442
Pd 14.41431253533689 9.950984269199985 12.832803933345417
Pd 10.095331195392408 7.488014629040701 8.815929981445441
Pd 7.607673614992839 10.994091481020753 7.38652123953571
Pd 9.011075760182216 7.546113781722281 13.05618669257678
Pd 9.972847212473006 9.627075819588214 7.246556228673922
Pd 7.571859799955272 12.438768497819803 13.535718884517236
Pd 14.121144743224605 7.359038594143667 12.273483824925291
Pd 6.397783465647891 9.828919937280261 9.661693834364156
Pd 12.329378090795217 6.794199996142663 10.171100907670143
Pd 12.251611358498845 11.017446591897755 6.775926382006329
Pd 12.595865701241202 11.16137411540707 14.653125249911886
Pd 11.60252887758421 7.023445511246582 12.81709062737972
Pd 10.906832054786214 13.564021383005432 9.179411313373679
Pd 13.097554648932814 8.465293870547006 14.557120865485116
Pd 9.056315088568214 10.47730556043018 9.600512222246397
Pd 8.654725770652368 10.16354003813894 12.34966904003366
Pd 9.829269059254594 6.074116877689195 11.026540901301086
Pd 13.548591622366306 12.768654424101717 8.556198567752359
Pd 11.926019526283095 13.528719480995795 13.467763123132626
Pd 9.934503214281115 12.381803813712152 11.491425790281399
Pd 10.783444074181427 9.374977687853624 13.72978470580672
Pd 14.403621783574327 10.287906952230452 8.230200907351314
Pd 12.320495308108464 8.662662620946488 8.12960534344723
