43
Energy = -184.64154246 eV
Pd 16.114479852717015 13.436210568681336 11.17836040997901
Pd 17.197915707695106 11.58116281085877 12.69567603877127
Pd 16.67636060713893 15.864315420938174 12.052875857541238
Pd 16.077279622098544 13.862348323184868 13.775599910734693
Pd 15.880332007440318 9.20640618458384 12.851544550083858
Pd 15.194875203071245 10.960513225478456 10.970232579079171
Pd 14.17150548814621 12.905029014383942 9.467059069443383
Pd 14.844637679179698 15.506285054515075 10.165880810566618
Pd 14.101688780350973 8.484093470205304 10.991982515752309
Pd 13.595419087955786 13.055013830539055 12.176294781413914
Pd 14.149084404818492 15.58120127316069 12.789077761876962
Pd 14.853331558099597 11.459835914636779 13.923926313834047
Pd 13.636583260187278 13.724354790581652 14.752973175579143
Pd 13.615411988672598 9.069998222204676 14.16232911727443
Pd 13.202814305585626 10.394095935714665 9.242735261709834
Pd 12.753521757932694 10.463025539366695 12.067813472456905
Pd 13.055527697670314 14.967123049355033 8.234595450336418
Pd 11.599765475553735 12.322758873496252 10.356401493968633
Pd 12.198868354976984 12.387046931398423 7.766912140313638
Pd 12.312213737194446 15.010934891121057 10.814500293753339
Pd 11.51782064317459 8.586785984891124 10.27673791525377
Pd 12.217696299847004 7.458914175830968 12.586895756464003
Pd 9.66141822707962 12.506914433184912 7.1376677490134135
Pd 10.561802007023784 14.346858485707948 8.859222098640505
Pd 12.432342741571015 11.303309598807425 15.061348627036306
Pd 11.586913399552543 14.907113879485525 13.386686922287858
Pd 11.025943702589938 12.295407520442154 13.040207100337767
Pd 10.978483497880609 9.411281075398032 13.837146109605866
Pd 9.830353445208345 14.24644479646697 11.474899631423142
Pd 9.597492443668155 7.77402448188772 12.209292880903883
Pd 8.9244025451257 8.483830750842044 9.674680522681495
Pd 9.92670542550877 10.41020688603979 11.372786546443287
Pd 10.472733788092208 10.406245447950715 8.596323018062028
Pd 11.182838696554795 13.532013830961512 15.729618794782965
Pd 8.890682654516102 12.471558409024029 9.631981360146503
Pd 9.728823363959627 11.322637636482932 15.217519554091545
Pd 9.100699337775161 13.865575922591612 14.070021685190346
Pd 8.34714849474233 9.808185973299002 13.506722186005081
Pd 8.161076000543499 12.271285464104269 12.145728345858
Pd 7.0781022657929284 8.341192708789478 11.647444723377694
Pd 7.350875484673597 10.517878302873527 10.245291133466445
Pd 7.251972667776743 12.005705063591869 14.614823700634473
Pd 6.015661606052534 10.68948006573787 12.557656877098381
