43
Energy = -184.59965579 eV
Pd 11.698838514055685 16.16309937219886 11.70188324523577
Pd 9.398566419515037 15.356128630816617 10.75166752605787
Pd 13.918824203214475 14.955826522681651 13.559217887632137
Pd 11.285600692610421 15.497211295257097 14.314014483266773
Pd 13.893362107168679 14.957522880448316 10.773247334406141
Pd 7.149883867752346 14.961426167722664 9.477969571146458
Pd 11.586401104893907 14.329595452972796 9.61946325917503
Pd 9.181488550080845 13.417981167515016 8.78406248010579
Pd 16.02946040482345 13.747133892722559 9.863720242235466
Pd 9.210344252744015 14.331431942043038 13.165000171858157
Pd 13.809639661632394 13.045964958164854 8.655388075148098
Pd 12.820915681231652 13.983659127662861 15.877301672296793
Pd 11.97039583213588 13.704406847957445 12.48384747837533
Pd 7.437095162226884 13.29940507452784 11.503335044973953
Pd 13.540819608872294 12.138623112968585 14.17894501568436
Pd 10.00832610885703 12.59688094706583 11.139249570726694
Pd 14.892776175113747 12.915981558637476 12.109687736459014
Pd 11.406026378224672 12.13708801508389 8.154594369636493
Pd 6.756024678264408 12.35449155301714 9.053156129692015
Pd 10.668176603859962 12.79776256318043 14.736882989483203
Pd 12.733100658097314 11.894605977678758 10.72907295862385
Pd 8.658902513071334 11.647015094472525 13.315634297114629
Pd 12.15304294428713 11.29966750936926 16.299801613665554
Pd 11.473696011158289 10.970277038974183 12.855170972577477
Pd 15.332838612004405 11.20511427840965 10.0475521493554
Pd 8.752901439569671 10.829193398718237 8.136776463725482
Pd 10.604343216260661 10.356161999062605 9.968759959808228
Pd 7.940731201522839 10.791456361128128 10.78507996574214
Pd 14.375850140646442 10.300038255874634 12.430832834716448
Pd 13.109856278642448 10.040409042716211 8.7952346371643
Pd 10.182638537467048 10.036351822227532 14.913439711453535
Pd 13.044990455262143 9.502211587497086 14.591814075146026
Pd 9.42595335464182 9.277139016990633 12.324335124082657
Pd 10.927922447325967 9.783846480391231 7.086903338879759
Pd 12.260003857403808 8.935294354037667 11.38458640575569
Pd 8.781631161748848 8.5033083724022 9.73775969152348
Pd 14.775821019384384 8.64825349670037 10.358842773321577
Pd 13.96365516866324 7.6512602469108835 12.86624790537032
Pd 11.226260844349133 7.86573645393648 13.703562325289399
Pd 13.040130916202916 6.60043805908364 10.346648116926396
Pd 10.398049478260004 6.984240495035781 11.228869696498679
Pd 11.35863221008876 7.966809980487321 8.871612278463587
Pd 12.211263207805134 5.666101223480517 12.671095878310044
