44
Energy = -188.78551906 eV
Pd 14.808778656605826 12.750202597918946 14.325460522727695
Pd 12.63010513465529 14.037763607081972 15.275540719124999
Pd 7.949764852121389 11.679276418077613 15.2207835247508
Pd 10.240019795566004 12.919337378501579 15.272339748009287
Pd 8.170577775972916 9.588519907909347 13.479617625399781
Pd 12.306954093328308 11.840474978277104 13.715228178082933
Pd 14.766349216256401 10.431598812313387 13.081148811482542
Pd 10.365092739535388 10.33580801562791 14.67842691898147
Pd 12.450400550559445 9.178263723495661 13.414727366628316
Pd 10.10248538583282 7.888827644714069 13.620986870938104
Pd 13.972445590785396 8.53536186552163 11.266036389834946
Pd 11.473469275411647 7.606970679648271 11.428310544520894
Pd 8.168924564280285 14.216263794602538 13.909285517963838
Pd 6.177471402598379 11.321269821739 13.232013535751967
Pd 15.411068625032529 12.807295285782779 11.711254139479738
Pd 10.809910737058292 14.68935738315483 13.437276731891773
Pd 13.34522670238393 14.151542859231 12.660914268795242
Pd 6.13224608765191 8.808224226608964 12.116394472178309
Pd 9.104370609072355 12.063941129700893 12.809982683254455
Pd 11.173624195753069 12.944747066636195 11.459792578915202
Pd 8.722730130028365 8.16114234702872 11.216419770767219
Pd 13.107799187357074 11.117696208635463 11.13897950110498
Pd 10.576452330123502 10.17200967750371 11.641321017368593
Pd 11.801550737031642 15.629370756914604 11.107509089697707
Pd 7.491661625080417 10.701084253875695 11.00423175890763
Pd 13.00613320429392 6.810083231869506 9.380270741733344
Pd 15.61409449698488 10.54822262236454 10.456504753824724
Pd 6.9781783704052645 13.327950208772165 11.624440461977176
Pd 10.198591328192999 7.397054781240785 9.09831341114328
Pd 12.108423383234785 9.292869525503324 9.274879556959595
Pd 9.168079772116714 14.814718580910073 11.360689754524742
Pd 13.44364937467959 13.598287997702082 10.034576184055583
Pd 11.806609921727288 6.938192909423869 7.0301590812839345
Pd 10.69168579781244 14.380808139768462 9.05623735146804
Pd 9.219056757969286 9.943875162729363 9.260449699573947
Pd 11.382705397661724 11.776639930766304 9.120844973139178
Pd 8.919630255314436 12.551380928487054 9.921556563284328
Pd 14.866342113997817 8.687701876166441 8.755881691580662
Pd 10.472675932485348 9.290834874727377 7.054481497295655
Pd 13.974259711846479 11.290145988987538 8.440068682027022
Pd 13.181129657625496 9.153240085521082 6.812643267803217
Pd 12.742412579761483 13.676522161426076 7.527083981101268
Pd 9.406411958092336 11.829600728690187 7.340964528812419
Pd 11.942592437132717 11.437863561512756 6.534825609068183
