49
Energy = -212.60983888 eV
Pd 12.909661871591721 7.156639824449349 7.789770416311795
Pd 13.853895998951549 9.654613211741022 7.126988067164826
Pd 10.430412754265758 6.615422885015605 6.715334640992999
Pd 8.553083680291731 9.90361837438061 7.044749195916629
Pd 13.16428405239865 12.411355887932771 7.251050855916475
Pd 7.7268032295138 7.3908155565364 6.612195733975992
Pd 10.543169349087378 11.855315300102797 7.268921320968796
Pd 6.0082793541217905 9.261170404696419 7.652510506558909
Pd 8.992389835780891 14.101029839429255 7.344754549328547
Pd 5.654966415270447 11.473353137461034 9.425948122179262
Pd 6.5827839142341835 14.065069690428608 8.808723913145313
Pd 11.179207429943173 9.188490892739201 7.096879357780435
Pd 12.521204305082252 10.685607500264322 9.105847270200707
Pd 9.221996724542914 7.758440932776186 8.71321475756028
Pd 8.189545388769107 12.027328977897275 8.724961196071737
Pd 7.4801579305954755 9.56096928056256 9.79189675487773
Pd 14.346524647080162 8.760631968106727 9.729132930418604
Pd 10.95719177335616 5.67480475866672 9.263113553918037
Pd 15.12190891401548 11.278356818255851 8.981330095865921
Pd 8.490714975796596 5.218986714801748 8.164221835803296
Pd 13.406027452897321 13.198401029049716 9.80306342467849
Pd 9.97196758867649 10.192599251317548 9.325115984477751
Pd 6.621904828070951 7.003153333985611 9.152359424001702
Pd 11.458022929423166 14.362044923507765 8.287592308001303
Pd 4.915642677495112 8.909585752602093 10.169876195514648
Pd 11.675661372829948 8.219348592031817 9.793692780508485
Pd 9.006472704852774 14.542717021242282 9.968283597106897
Pd 13.408021226396853 6.269564308804587 10.400429611513829
Pd 8.62977656484612 5.965369206586349 10.743158881156127
Pd 14.364266169022155 13.584285277377283 12.1412486319868
Pd 10.76172211524128 12.574847290470222 10.03443003073558
Pd 7.010251190351449 13.079227184413185 11.221636303324754
Pd 9.4231187490595 8.512432089238349 11.357503467372778
Pd 11.580068437191008 14.831489773605673 11.086081258803281
Pd 6.787984505494739 7.770011704379645 11.780848545257742
Pd 14.021531453026212 10.975153064793675 11.46145798665234
Pd 8.833860706916521 11.240210713305277 11.468045596934322
Pd 11.132621268293713 6.469299450585158 11.896063843977982
Pd 11.385189687103127 10.3066104109301 11.593018680448013
Pd 6.189407305056987 10.484333715883755 11.989565219142392
Pd 13.149901046993957 8.341835262343059 12.164175001258956
Pd 9.509532892504893 13.598820926769942 12.480892054289942
Pd 12.019189176840824 12.684610891015385 12.613184280367994
Pd 8.80867200245388 6.759792152368657 13.332585742341566
Pd 8.168459861803765 9.399676030222203 13.54593228208769
Pd 10.844515985242609 8.551863321686465 13.68968615493586
Pd 7.603119474903449 12.080274627173337 13.687647166460044
Pd 10.17702764010613 11.22459564305912 13.932541318659647
Pd 12.816018581870273 10.433963234663391 13.876477292701425
