41
Energy = -175.97059088 eV
Pd 10.387129602863153 14.548330893745238 10.77783623428191
Pd 12.08713488594265 14.342632345968143 12.808588156015343
Pd 8.737118617697831 14.960901236019447 8.77766288201254
Pd 7.845570390002759 13.583821894151278 10.939533501480081
Pd 11.30516038700003 15.023117430118099 8.314030472373904
Pd 13.084230508559033 14.266915318216014 10.263133796303396
Pd 11.753954395728464 11.913493737486403 13.819490834998616
Pd 9.557283410033497 13.335016126976127 13.009513488847064
Pd 14.10061507672117 12.53049665416972 12.265433081282934
Pd 9.818269171392805 12.244967498228558 9.526780676657681
Pd 13.756307596898974 10.213637096820046 13.710580415874203
Pd 14.545945296047849 12.105989710123849 9.519617641244489
Pd 7.283601245501724 12.830996826090082 8.361228516672856
Pd 9.780037939262682 13.008108556503982 7.053279164102834
Pd 11.803523904609843 12.154146097683618 11.159822308842553
Pd 9.401607813891706 11.320470733518881 14.86313941987705
Pd 7.511358657677267 11.029444742471192 10.27666210173529
Pd 12.321465363378042 12.687023952457116 8.179499282343283
Pd 11.889476702130736 10.094895962468563 15.66281568082536
Pd 12.476670194627136 10.285735320899343 9.472343635437438
Pd 13.827807248514217 10.59097983277706 7.286203419753998
Pd 14.538408175730805 10.12860197714472 11.204941090322176
Pd 7.2370653878146785 11.826015702022206 12.898700468493328
Pd 14.442015147493674 8.471740133524786 9.15353685325028
Pd 9.52412041655171 10.840843000515903 12.168249586401553
Pd 11.043296708220486 10.579939847676167 7.243828878571858
Pd 11.850363926886544 9.559024504984631 11.995311336530346
Pd 8.458898994919943 10.558365467767874 7.717345493709401
Pd 9.986914692877889 9.544105472571792 9.881177870685882
Pd 6.345988963705777 9.33408046377413 11.781937131477521
Pd 7.687310919646242 9.42650135649728 14.057277484715126
Pd 12.709604610361481 7.85334130715041 14.246027582023956
Pd 12.370197079576046 8.273279578332026 7.357452628019393
Pd 10.281592705143286 8.847284338388784 14.043998131589323
Pd 13.7894758495754 7.688915734875244 11.792423861530594
Pd 12.00001459113112 7.607165528654448 9.802930879167958
Pd 9.710069220264852 8.16890183417966 7.672990783717421
Pd 8.744617580144098 8.245804498761727 11.955218549736347
Pd 11.107273278917805 6.9464196239958875 12.224348287916445
Pd 7.560084611364074 8.511919464577167 9.371231142433107
Pd 9.565292012811856 6.747416560149088 9.966880230826769
