49
Energy = -212.80341758 eV
Pd 13.621917871402424 7.224732319772315 9.084530068435017
Pd 11.116057104404078 8.067965130056276 9.528304388164461
Pd 12.541567263416727 7.480499001607138 11.683928245013018
Pd 15.173260014065296 7.876870984636162 11.094612292488693
Pd 9.896415541842936 7.566267690889693 11.918553030525793
Pd 8.698360488401294 8.967543207084647 9.997002539820352
Pd 12.618255591950447 9.040216886967563 7.508981039335901
Pd 15.390695046232798 9.513849222278765 8.800245978122234
Pd 7.25512371148025 8.0215050829425 12.182800151011337
Pd 9.71550656705014 9.326952068439109 7.517638676825416
Pd 13.947389888762569 9.111891532746684 13.095683114825563
Pd 8.828772916703564 8.145490969708991 14.334305938248589
Pd 13.326040446252367 9.801396799702752 10.230546523465629
Pd 11.354154029181892 8.828422691478602 13.952842944656263
Pd 11.166938205398164 10.889600182418585 8.96907663382048
Pd 15.853329741866487 10.372105573202408 11.538946264613521
Pd 11.120983942998595 10.046016900275708 11.556970037188874
Pd 7.4950754588872694 10.763056708999878 8.39603303394408
Pd 8.738582918413043 10.218552296861986 12.534447501063374
Pd 11.487123600088616 11.088196946200288 6.230642084420408
Pd 15.562987026981052 10.977394784199747 14.110499528360675
Pd 13.688039474603572 11.454262921188967 7.755899290849409
Pd 6.388998556759027 10.81634405239383 13.393102311929132
Pd 8.458549863843238 10.558663632851632 15.213645448540289
Pd 6.390828221006698 10.097608474102675 10.745833295085543
Pd 9.450041184905224 12.299409155764355 7.474689413696438
Pd 9.064922036335263 11.644693192699087 10.290863585216655
Pd 13.214361114330393 11.553868405441866 12.317549544786921
Pd 10.887899365210602 10.473541563669663 16.28889952269221
Pd 11.888740181168926 13.482347116111011 7.354988653109423
Pd 10.75492517846497 11.499761422197706 13.901451208962124
Pd 15.13417309092879 12.141226253880557 9.859017558338259
Pd 13.144246932467544 10.781464491191862 14.954686086687673
Pd 10.787345358489828 12.825285976251443 11.776065252374321
Pd 12.570262957775311 12.787279848400923 9.934363048952257
Pd 9.48282920781333 12.891392286294673 15.965880512137096
Pd 8.320000599771685 12.766025160628637 13.566094287152415
Pd 7.589128259596971 13.513035299681496 9.012545427057884
Pd 6.8950570370206155 12.571668829731903 11.388274073435543
Pd 14.39992899868499 14.043999738443338 8.217589309309991
Pd 10.211953853334817 14.049209297006291 9.37215100976613
Pd 15.390998763284976 13.00702630442943 12.393477352758389
Pd 12.080969387539964 13.12960424972822 15.491133857856223
Pd 8.713960582038183 14.562907710733336 11.5310015501991
Pd 12.91308039487385 13.994442516355525 13.179428578145492
Pd 10.32029082354627 14.549246183892764 13.855134049450466
Pd 12.350047401820724 15.604637228478786 8.957471807445637
Pd 11.334068850005854 15.430617011608001 11.453659628519132
Pd 13.98392871859643 14.685696783445504 10.880558644509572
