46
Energy = -198.83742964 eV
Pd 15.595713810833441 8.838537878900906 11.986677514722864
Pd 14.641153394680291 10.64317047944572 13.701614164809065
Pd 13.193993098861153 7.641136893295597 12.934334026030143
Pd 13.954338333466815 7.3881751292242255 10.353768321296398
Pd 14.251289478059698 7.984816674859475 7.705822076628952
Pd 13.22048248023938 12.108582781340615 15.450244537817463
Pd 12.661035534031514 9.37435511582247 14.911190720543487
Pd 15.494402021192007 11.605984372173376 11.294719189527415
Pd 14.986127226562433 9.775305575682314 9.519587363492652
Pd 13.11844361725892 9.896425053444647 11.72435606228996
Pd 10.253782967577818 15.473244813658452 15.56367752533052
Pd 12.288130728539642 14.34433479969246 14.356598392109786
Pd 10.18840859674278 10.217415353662588 15.2552515802268
Pd 10.7678308350425 8.83401863522967 13.049196582693726
Pd 14.056969134901841 13.123827166082663 12.946154205794027
Pd 11.807113913509914 11.455552992783653 13.370737324327148
Pd 11.300568457025141 7.478038915904656 10.88002559068853
Pd 15.349570994318812 12.276371727060333 8.628745048218038
Pd 14.319209819134638 13.962260030558173 10.40350100160131
Pd 11.895631976591403 8.66246948872392 6.630998139244466
Pd 12.080068394728654 6.648472723853326 8.466166215788524
Pd 10.427119987774212 12.800333304286431 15.450984109414485
Pd 13.664391143066375 10.649633177739924 7.290120362042629
Pd 13.074634070699439 15.596549634525248 12.042488289932928
Pd 7.975385780770147 11.621467522862307 15.415489110509933
Pd 12.945063198552992 11.770618930243202 9.9590143337463
Pd 10.131101221522224 15.283844494467852 12.969197792220077
Pd 9.456036150290812 12.709283594307754 12.933970158594411
Pd 8.53425186177136 10.269129364489299 13.173072319453329
Pd 12.80932735949368 13.191919199241596 7.8636847041762055
Pd 9.99236173399836 8.469054866856995 8.581397877266772
Pd 11.645232006225559 13.415839889647703 11.549367699160504
Pd 10.533820665963137 10.89076276295604 11.048707724294502
Pd 8.97795197267677 8.736738467586365 11.03384473475806
Pd 11.901792537777387 16.938387115139562 13.983957510471628
Pd 12.037516044731815 15.13997381583698 9.545108386927065
Pd 12.34078120979383 9.299910721223164 9.291277176550635
Pd 8.101722977693418 14.18104506495842 14.747129812861555
Pd 7.021895418939835 10.568422522729106 11.064650179953459
Pd 8.197316421067033 12.859165468387387 10.656858539543407
Pd 11.049442950063883 10.966951381982568 7.6872799336587745
Pd 6.799896123949358 12.414184669566373 13.068046603305142
Pd 8.79415421235195 10.802517486046352 9.065434083571748
Pd 9.5639371896828 15.14506080888279 10.454943194586876
Pd 10.37925966767797 13.01594285464641 9.125982520386122
Pd 7.610577928510725 14.920000928334186 12.253861907774766
