41
Energy = -173.95280749 eV
Pd 16.260134778370603 9.456492933102702 10.567054180703986
Pd 15.25630834699794 11.703641214532267 11.484891855294165
Pd 15.450923430066851 11.888283626173816 14.192447718633705
Pd 16.599041432492218 9.845425136028283 15.334093865570933
Pd 15.361330519534341 9.349846758037923 13.074520071678789
Pd 14.611981023624985 10.8016936385012 9.024402397766929
Pd 12.890199180853708 12.063003848707783 7.60472163900527
Pd 14.289314251324797 14.009210560642988 10.252078465406576
Pd 11.92018311565941 14.61975385229193 11.424550500833073
Pd 12.613806628143262 12.040103431349705 10.417710651311966
Pd 13.651856292423581 9.259089310366845 10.987392259844707
Pd 11.95020070533891 14.254226552893869 8.770543586777716
Pd 14.034021499194182 9.770266871040366 15.409168732638985
Pd 13.06508156865486 10.966647423944682 13.035895178936267
Pd 13.06500075225403 12.364204935356664 15.30428066150724
Pd 11.918217317513706 9.935885103589191 9.05947860242089
Pd 13.831004363098058 13.501627479719085 12.859239422236714
Pd 12.847478346754967 8.359370115853837 13.340165922312329
Pd 10.691603123906184 11.24456410313994 11.99784360622966
Pd 10.256594847765744 11.619808329768084 7.800492524702216
Pd 11.232251999007467 13.644058053663533 6.306878969974341
Pd 8.842682460932306 12.123026923593086 13.842038314110004
Pd 13.516561890879773 8.628995486094531 17.655963490186753
Pd 11.929124385632292 10.564576273240084 16.95805099506039
Pd 9.97163406056319 15.728322720108787 10.036057649110413
Pd 7.721814994987553 11.919869949312886 8.667173234896868
Pd 10.273097896262454 7.776949300770239 13.662542083261004
Pd 11.262649135407221 13.272425297101561 13.61526750158701
Pd 10.55626220926047 16.107022853301437 7.4394722436128
Pd 9.349968158628581 10.147765124699369 9.874664154839795
Pd 10.04419728631467 12.931016844975264 10.061837733460832
Pd 11.810970752860264 8.125769554911761 15.773371988560102
Pd 11.092057958869653 8.738387513977983 11.306888000993489
Pd 7.907362653073975 11.932949622189781 11.360492074289274
Pd 9.29517130397975 14.260517730099762 12.198387597767422
Pd 10.446396922837994 12.474853110083735 15.990549095983873
Pd 9.048796847791998 14.012894652415747 7.764536374412967
Pd 10.770029113124505 10.268146711134102 14.514633208505835
Pd 7.597746091182364 14.286898567638081 10.063587707946828
Pd 8.035689559749972 16.326060087870108 8.36489914440012
Pd 8.690296247680902 9.635391850777033 12.560780046228011
