47
Energy = -202.86260799 eV
Pd 10.769755174563445 16.301701788242035 11.69932763978297
Pd 16.12118308193027 8.765599904131752 12.726985931374271
Pd 16.066790351477735 9.996910568817148 10.313471038706204
Pd 13.839073314215195 9.955770071405775 11.76339287505514
Pd 11.712989400564496 11.030845212321639 10.553921295647994
Pd 12.802264532232588 17.636095799798515 12.62634310590625
Pd 12.23285409078132 11.231673626589878 15.18199321992923
Pd 8.610395636266283 13.916878830522881 8.56905923014654
Pd 7.753765792787375 10.76385506918413 14.597732554653065
Pd 13.662528954267454 7.718598981657402 13.339320292358002
Pd 13.032191005055132 14.390504216025654 8.911661476616962
Pd 12.724454909449454 12.241023068387126 12.76450771155662
Pd 13.719786725608106 9.69521615928363 9.107901605417705
Pd 14.424820465953232 10.092250614778358 14.365630000789208
Pd 7.137413643429607 10.534176239548747 12.004421098073394
Pd 11.298884514312238 16.233017303749456 14.322791731055961
Pd 15.013385959477075 16.518302431206312 11.72008530931208
Pd 10.430944921970033 14.004410994719336 12.996676822247515
Pd 12.556958278357486 8.609764226417989 15.571800820360508
Pd 10.112972919001153 9.64059191976576 15.291320833421988
Pd 15.393879820428545 14.736315973328944 9.804771592520364
Pd 15.884022627267635 11.475948226003583 12.594304282604035
Pd 8.649284214624602 14.807968569811635 11.155076549240173
Pd 12.887715611692133 14.651231632919266 11.646556234700652
Pd 11.828394186295249 8.360062021147359 10.478918848489455
Pd 10.903396039041818 7.193370573701175 13.971896380649952
Pd 11.589096933283027 9.486371138903362 12.93872121413727
Pd 9.989883968473421 11.469739764381638 8.506939510404969
Pd 9.89933102003014 11.392114145687366 12.695596324492223
Pd 12.035268311291038 13.814216319813099 15.065168689446518
Pd 9.795831483045207 7.072828367636014 11.497579950412105
Pd 9.791916587071745 12.388379995924476 15.135774928069623
Pd 12.645202384688563 11.869521059409754 8.20610024571489
Pd 9.392324091542735 9.65295298979592 10.578334152688045
Pd 13.814688802823822 15.409771662365017 13.950395088116732
Pd 12.910318857647498 16.766019537016202 10.023929780030022
Pd 14.263499029744708 12.296198585630156 10.392796384388808
Pd 10.989289442116727 13.763722948293733 7.407867038510423
Pd 15.391498873314811 13.963364094123223 12.314758004688695
Pd 10.893436263574193 13.444921818979028 10.281709468346536
Pd 10.498601360219064 15.788224794893418 9.135426302435024
Pd 8.825499483993688 8.849597123133323 13.10726423375867
Pd 8.487848154726993 12.194889448906338 10.540585924081112
Pd 12.274915166174129 6.142752315591726 11.798257749143644
Pd 14.512949674199536 7.609229544990425 10.755505712636822
Pd 14.534756184941358 12.783680283465017 14.57219844756505
Pd 7.869343397672403 13.011560542587203 13.06731436552861
