48
Energy = -208.16385222 eV
Pd 15.00175575355373 9.292696730963277 11.216934987829294
Pd 15.901808703804797 11.577149661311507 9.951420305305199
Pd 15.203463651883904 11.635595125629576 12.566660637095316
Pd 13.702506438314865 7.5926252576043005 9.55537651732707
Pd 13.050386063313153 7.527609843419508 12.170302892888808
Pd 13.814778642734085 9.627292220581214 13.656885325049977
Pd 15.713585607598192 13.977622867894294 11.268239926723158
Pd 11.9527894536965 8.00521739883924 14.564259253998488
Pd 14.155022336384908 10.093206125681892 8.674964309968024
Pd 12.48253445439331 9.796080272745918 10.874915819360977
Pd 13.5792045013636 12.552131223544421 10.637599237110884
Pd 10.485114018326458 6.6255323264367565 12.644163289600753
Pd 11.09608954592514 7.447915119433512 10.22726800794806
Pd 13.774604534068603 13.895004471548374 13.136228953323396
Pd 12.650375763671468 10.826097570029408 6.45939152139035
Pd 11.862981896605557 11.535720808167708 8.982398277869214
Pd 11.816117925112618 8.885997323495742 8.133235757436589
Pd 14.04715207270249 12.710962170627045 7.943322808170532
Pd 10.510648269058974 9.265244372969455 12.704057472072817
Pd 13.450401438590335 15.441891835291878 11.015339054898387
Pd 9.80270402839305 6.640315831473734 15.221666479779996
Pd 12.24300605110871 11.56734640532121 12.763414262678767
Pd 11.7536638236521 10.613557322801093 15.207128195436715
Pd 14.051188282964336 11.973540436989351 14.9649847953745
Pd 9.500492416650896 9.274241421155486 15.21759654756009
Pd 11.719696947132878 15.674048052534424 13.209502482744902
Pd 9.966589902158878 10.02018050737502 10.063167636738049
Pd 12.153206427181281 14.292526560350238 9.043419134391229
Pd 8.128021250311004 7.730491507184654 13.461759719336746
Pd 11.676646165486593 13.311434806418667 14.6876580579068
Pd 9.214401229674106 8.160222328191516 8.307145481275
Pd 11.12372729004839 13.11357238484818 6.935674336766585
Pd 11.284316631996607 13.66413430390918 11.534351033396145
Pd 9.622467613658518 12.596349046321476 9.644427039703947
Pd 9.397310339587955 11.905979346819931 14.764250880049348
Pd 10.025235593874367 10.624623674824473 7.2123666100639685
Pd 9.652471520824234 11.67273707319108 12.18614944128474
Pd 8.562136920167214 7.88954480423427 10.9357330174257
Pd 10.812264526465341 16.082122039794175 10.609541763101086
Pd 7.597597251588508 10.28406544772002 13.66330793034336
Pd 7.721530414723049 10.430500498466222 8.513055047579604
Pd 9.633235008050187 14.94429959623633 8.43535337018644
Pd 9.46065307358154 14.21963260791799 13.43348553463276
Pd 8.396793297094332 12.771202678100686 7.3314831395961235
Pd 8.573496926889325 14.619280007539826 10.97115570348204
Pd 7.320353828653498 12.751691378098016 12.537932931293335
Pd 7.486712722339365 10.348058872496193 11.104543488053556
Pd 7.024239657679321 12.680344518647608 9.814990289488502
