40
Energy = -171.46500349 eV
Pd 13.100965730004816 8.3658634381332 10.260575325312237
Pd 11.444900964978409 12.74425690334639 8.71508264630319
Pd 6.949006350819497 12.4590890646881 10.253409651558615
Pd 13.971564466223217 15.351164441322133 11.622893548070365
Pd 13.461421060299966 10.749676951394333 14.321464571616927
Pd 8.709094483292619 8.95970530051118 10.277850299440352
Pd 6.660135062229762 10.081766960958227 11.706878835667576
Pd 9.71547936941413 15.924363232328467 11.651675639401374
Pd 10.803694032672562 7.951687787283002 8.890028073797945
Pd 11.745686053374882 14.972930171912623 10.198526054880537
Pd 9.357733509401275 13.699443795217562 13.070925905671581
Pd 13.040833271630806 8.514622247573612 7.598121929600985
Pd 11.45374016384638 12.686981851651671 11.533105102174325
Pd 8.717967078953544 9.030962236387095 12.982452732306616
Pd 9.027016529075553 11.495253467892855 8.763720071182517
Pd 7.324732051738587 14.663803682963053 11.67952470179779
Pd 11.461070440377801 12.643045110938706 14.356969028582796
Pd 15.388913388394661 8.929596774487777 11.671761563269188
Pd 13.760511919396297 13.180680511937004 10.06833553288769
Pd 15.707047835954148 11.19338115422745 13.004948250675534
Pd 11.144785989593313 10.328347396598678 12.898034921161967
Pd 9.016027719274458 11.396323536054656 11.57441927966002
Pd 13.46388344137926 10.801828912529876 11.550862283232833
Pd 11.760777698208956 14.953238433678912 13.016012702906224
Pd 10.811381122842965 7.928025182755916 11.58222504629957
Pd 9.332541049707986 13.768861817286254 10.093874884043716
Pd 6.9721208393277 12.340059962668358 13.050457635304179
Pd 13.75392938224817 13.115196435178872 13.046377286379922
Pd 11.129506669295354 10.339941994674405 10.15493673301141
Pd 13.136548167882033 8.441727914575557 12.96669216058603
Pd 15.953482366153587 13.515250579710347 11.611367913544276
Pd 11.118648702506512 10.362434331111208 7.493033301129227
Pd 13.448865269075252 10.90593649740764 8.74304517123393
Pd 9.03646207150382 11.331857645489457 14.3462803199224
Pd 8.781337518011368 9.08003681885465 7.616702814735713
Pd 6.709088419398814 10.133734770428056 8.9938480166958
Pd 15.326887246085388 8.979384707196575 8.958165873917514
Pd 15.722207275662816 11.284773084017031 10.20277410966197
Pd 11.156450901836612 10.281405001219749 15.61697761717052
Pd 10.82869574682474 7.999045145184397 14.272537354753768
