46
Energy = -198.15256118 eV
Pd 13.838032266453666 9.485710330175374 7.208958050505834
Pd 11.705168303614794 8.467642814538225 8.409760635218584
Pd 14.098954306461554 8.588351444447568 9.73459150979301
Pd 12.145808732149337 6.716373296228827 10.412833430821019
Pd 14.810476002704055 11.04452162527831 9.088215080110311
Pd 13.723119388783749 12.158493042718803 6.923527061501194
Pd 9.266099615363306 9.27074886040856 7.812697988165717
Pd 9.702881153618984 7.897764603454338 10.076201778233383
Pd 12.737812428796556 7.455994596009906 12.90221430523648
Pd 9.624094443967122 11.807552053903608 7.76820049719145
Pd 14.518235358512529 9.310999616797686 12.228533874460872
Pd 12.068706480648647 11.05306100567662 8.714565812001004
Pd 7.362715547066165 9.242409428427623 9.676993240902585
Pd 10.228762480681677 6.604806318813033 12.355346761366517
Pd 15.970496342550325 11.404699723538121 11.363703026390274
Pd 9.795895180690605 10.678891584195908 10.204250884628278
Pd 13.62594238589283 13.588671649706232 9.248868381840312
Pd 11.548871031149716 13.493694388933166 7.448766458828235
Pd 11.956437274667305 9.328993462764085 11.059648918558795
Pd 13.187386323398671 11.63097849397426 11.18922029754507
Pd 7.537609346920347 11.9252588353545 9.43759315577883
Pd 10.729650419682477 7.971764088586563 14.691329513468766
Pd 7.699425362145964 7.910086810009071 11.952029559323613
Pd 9.864496967515525 9.25162704728042 12.589436491769325
Pd 14.399379887897227 11.640825965429228 13.496088585937999
Pd 11.135940351379487 13.110503407814623 10.199296495945338
Pd 11.301576138890775 15.698892529484601 8.748756168250727
Pd 9.043674910421823 14.150131164450338 8.973038351390516
Pd 8.362764397948082 6.875757555671074 14.292616832127534
Pd 12.386770825035466 9.928010556257291 13.796709037770272
Pd 8.67761724747359 13.169078060854087 11.52253008611883
Pd 14.883592867250771 13.832689658393502 11.694399848635545
Pd 10.74594952901295 11.73638959823293 12.579965833208124
Pd 7.635163578085956 10.705663746773299 11.89258309061113
Pd 7.937146768970935 9.48878485409985 14.346358048253034
Pd 10.109853793054015 15.390501483108965 11.111815189445263
Pd 10.255800032860613 10.570987812925583 15.196327001127239
Pd 12.874884562644471 15.616769212882867 10.820395479327203
Pd 12.424245554240796 13.826261651296514 12.659594472890898
Pd 14.481298625132432 13.887282979975168 14.671309397222792
Pd 12.129261951380844 12.444466606059825 14.88527393102206
Pd 8.489418823380577 12.115032052765676 13.962871531269451
Pd 14.044471293426431 16.00298560982646 13.169732237689766
Pd 10.047023938898974 14.282605611263376 13.639412894066604
Pd 11.417891854151401 16.539118644756105 13.011984992651518
Pd 12.182090223512386 15.14650426355718 15.13166477092437
