49
Energy = -211.88573244 eV
Pd 7.951520071848265 11.285812484558953 5.820474242127816
Pd 8.71966771149327 9.212713893098122 7.315925479949542
Pd 10.428686552213659 11.305159505803429 6.898386723599387
Pd 12.986195460878246 11.03609472045184 7.521881517601241
Pd 8.965921419895812 13.592800292851875 6.918761859720695
Pd 6.3097506620891 12.82894718934497 7.2332084738744475
Pd 11.31993242697659 8.981292467314294 7.762929120045061
Pd 11.738009815616865 13.556422189058877 7.404320483805678
Pd 13.882934053382698 8.56392351606737 8.439270560705566
Pd 6.227768071602085 10.227579827116873 7.740732249673751
Pd 12.095313448982386 6.427516718379851 8.27807487326118
Pd 9.58464854784328 7.333787068959263 8.962873517837645
Pd 15.276026142450304 10.739320581178129 8.960005905969387
Pd 7.4907784668627775 14.001049782563545 9.20411658253962
Pd 9.988748689597397 14.912945064651757 9.04303890608335
Pd 8.425561874075136 11.574383327922861 8.608150656490881
Pd 13.700413329656655 13.002348008224082 9.222753231257064
Pd 7.417514783476248 8.931584433662477 9.721828769996614
Pd 9.949496539056966 9.860018823639173 9.957408834538656
Pd 12.649878171572254 10.66684384448428 10.150378423432992
Pd 10.868506163908398 12.508132905738021 9.610262742930258
Pd 6.376457339936354 11.41465807695501 10.27751401042596
Pd 14.014910147713199 6.412429969047169 10.181522258578
Pd 11.999242927158132 8.170621246158468 10.30608342138289
Pd 14.819975915833572 11.677222603215574 11.365073100298025
Pd 8.641252463206525 12.51404165710134 11.175683674108699
Pd 14.777317709562952 8.876970450325267 11.044640468984744
Pd 8.249743014922375 15.651859819400736 11.068491964637932
Pd 6.237490603479857 13.939742713313807 11.523844809863276
Pd 10.449964968904006 8.45726766779743 12.417598915143833
Pd 10.44869567012403 14.415422809176905 11.639144371535663
Pd 12.68056454401558 6.818564985707241 12.441502135739897
Pd 10.805142960550732 11.252359536844011 12.11160863613854
Pd 8.20742827183623 9.904815347723003 12.080495951477568
Pd 6.608739833378633 11.829668590073995 13.029313280686898
Pd 12.6821187719764 13.203441309453332 11.661520184034789
Pd 8.478140026216263 7.166755538858405 11.371894578977846
Pd 12.910632756945457 9.64378236312625 12.701843817957739
Pd 15.582326928910964 10.213456676669503 13.393581881623273
Pd 8.39662403994491 14.009611056640837 13.350533512975623
Pd 10.848979310078686 5.841662284031408 10.803156389449097
Pd 14.61173428417323 7.78354063986192 13.828149023282768
Pd 9.276026809202905 8.985688114699101 14.650251918003603
Pd 11.154230494198867 13.23905857006879 13.918448327218202
Pd 8.996751388871486 11.546658420276325 14.088974168424754
Pd 11.929391777064087 8.009173313504128 14.708585715618392
Pd 13.536146992898564 11.95333773105755 13.815745044134676
Pd 11.36676962779194 10.622331289674799 14.752168310480776
Pd 13.839348877227813 9.80060143376949 15.421267832977167
