49
Energy = -212.3249496 eV
Pd 15.779133667842913 9.844592718228439 11.976543717383747
Pd 15.143208514893063 10.369264778308139 9.447960064120302
Pd 14.145260988718436 8.063138203160198 10.72342198750192
Pd 15.00172374713581 12.422578454598591 11.426740567525261
Pd 14.40686369350653 8.154630167891266 8.120908125968558
Pd 13.728682491942317 10.64619988182679 7.234192626604357
Pd 14.14471446587572 12.807114977024366 8.910015424024234
Pd 13.9036906279548 8.432062284990298 13.349807680572434
Pd 13.13651551506209 10.500507093229274 11.09739510084278
Pd 14.129789158187192 11.101108718814544 13.637060106575909
Pd 12.457435191483075 6.547743094225759 9.1978282801604
Pd 12.478060044784652 6.445189933842187 12.109180621836673
Pd 13.964843604195686 14.811195591102152 10.803840546113184
Pd 13.24164709793994 13.688368217694926 13.299314590192521
Pd 11.992225284623226 8.6034095299368 7.10129325169803
Pd 12.65981216685209 13.11111258785268 6.656288437598086
Pd 12.618577452900764 12.246016669286856 15.501142933960232
Pd 11.764906205075395 11.473756880015264 8.776239608835269
Pd 12.197018993316652 12.876803574463185 11.046277896202103
Pd 11.580196584888538 8.911247109782513 9.663139662733252
Pd 12.154272497544175 9.554378145167961 15.020662727049109
Pd 11.346146822330022 10.961274852284932 5.976239435022647
Pd 11.52948759232136 8.883702489935931 12.33900686818301
Pd 11.973524690305718 14.411587056367186 8.783184121873468
Pd 10.17551286717174 6.9026438580897045 10.839673157309182
Pd 11.49990558919121 11.39375614711705 13.186759605724294
Pd 9.753535850933618 9.982991361910361 7.793779722981894
Pd 10.656442475644145 7.3926284097264645 14.20761393405213
Pd 11.366822190848312 15.549335468990598 11.11368172217647
Pd 9.972184451855902 7.252343433729157 8.174436310223903
Pd 9.561358535096186 9.829531875457539 14.892342247465594
Pd 10.044899494411865 12.580726689151414 15.179228797117963
Pd 9.67267932852456 15.684333531839536 8.97280910391901
Pd 9.821523006972695 13.286268222459448 10.123723196054549
Pd 8.519575965591558 8.795243082954675 9.805381695880456
Pd 10.403675610129572 13.840296416960644 12.865485962395566
Pd 10.129000472086503 10.775549609831476 10.84336031817346
Pd 9.828901800525962 12.803822535859474 7.475854162596015
Pd 8.930136355459227 8.608440619907345 12.45952678267041
Pd 8.795171810777958 11.476884923610434 12.967572411326548
Pd 8.016437194397252 11.370682047955576 9.160805480003772
Pd 8.596129563400135 15.304093194584889 11.473738870390163
Pd 7.587842593974856 11.678601309381945 15.485792582306924
Pd 7.016540748823931 9.53042598212502 13.9818659395982
Pd 7.400468803566998 12.957388145760884 11.286864363762803
Pd 7.623334160552233 13.982435418639081 8.806886851066912
Pd 7.91521274350923 13.883291179656476 13.839331285288843
Pd 7.000553005221945 10.286974694752855 11.388933375289945
Pd 6.0112625443873515 11.932375588048714 13.315852733177792
