45
Energy = -193.01559269 eV
Pd 15.142708777832704 9.855568897975001 13.32362876422398
Pd 12.526300865387581 8.87227081004995 13.182178406343578
Pd 13.113630806556952 11.421625182948842 13.978222541610325
Pd 12.324266010199599 7.59954162931944 8.063478845739143
Pd 12.546033566822915 8.121491132623744 10.63032416141611
Pd 11.484555135788607 9.73383372698299 15.424398013924758
Pd 15.661982443919408 12.272305486829133 14.396088406998057
Pd 10.486036481496862 6.511854558849396 9.772112299144204
Pd 13.991013424455335 9.584136818133354 8.820162738229373
Pd 11.098590377597468 6.776465278578598 12.425985703914167
Pd 15.516417383243649 12.092238877828937 11.749307397431714
Pd 11.013002450423263 11.178214337771195 12.197638883954726
Pd 13.607856928377554 13.748539946879239 15.269357655668156
Pd 10.03654730352288 8.799010886729016 8.139283411574056
Pd 11.63889359902609 12.253234946092327 16.177249639696065
Pd 13.56306643800822 10.43552919046822 11.339280633522188
Pd 8.561262414624991 6.857219634112975 11.683327276910152
Pd 9.847279987193586 8.934588081387155 13.48291601860057
Pd 12.127461356333184 10.06696025121072 6.9601356359842255
Pd 11.643299110985051 10.687395165904814 9.546149233523707
Pd 14.84520321367881 14.399643149138193 13.03372566089936
Pd 8.037023719468218 7.320826398671885 9.054152564245868
Pd 14.084564431462361 12.178373259866241 9.382531294202991
Pd 9.699255843026368 11.513949392758331 14.502862848437543
Pd 15.283883562627668 14.348391125359306 10.351818806380896
Pd 12.946327262714256 13.212573004884609 11.755893452942113
Pd 9.994170759091775 8.933634965733315 10.835282139810355
Pd 7.268252616975866 9.136703568031068 10.825329332404326
Pd 12.154354517755026 12.673624202200699 7.661683867602362
Pd 11.329455826208038 13.580519901920944 13.921593450996255
Pd 9.161225083052654 13.267325223310237 12.48548970328081
Pd 7.295045912413427 8.483126214267887 13.356870112965844
Pd 7.6295656384319 9.891340102591093 8.325246451003066
Pd 9.078823694225626 11.298886203320102 10.102281825192431
Pd 12.64488475807505 15.86291667750534 13.894230280200512
Pd 12.797934448700644 14.632017278341078 9.307848935223436
Pd 13.540914860938361 16.07010706913281 11.408061835016321
Pd 9.834832220729764 11.384286183915414 7.506848197298556
Pd 10.845903079180744 13.189085461720149 10.195423115090184
Pd 8.027654466135656 10.919629209792783 12.593160805801
Pd 6.5551923581868525 11.738394729683415 10.449120124860553
Pd 11.02057811222299 15.198359775076602 11.840800237613694
Pd 9.807305612858677 14.007817634316838 7.9592082484078785
Pd 8.19348010182324 13.889951313785446 10.178847566276186
Pd 7.485222026277561 12.557752102058206 8.001722463495916
