49
Energy = -211.33393921 eV
Pd 11.489010336853442 14.518806004827578 16.154361366877215
Pd 12.063409696667222 11.962507861934501 15.768228871135815
Pd 14.57337892746416 11.709892019657676 15.064514938947344
Pd 9.568280141197233 12.770495921018636 15.235751695995496
Pd 17.206673926826692 11.240737255772217 14.805323644036761
Pd 13.82026139891191 14.181356658243704 14.819380896809074
Pd 16.240026194967776 13.547918375655264 13.894443832181762
Pd 12.243785845855554 16.22181857097993 14.216380887392873
Pd 12.851889674680308 9.490311959933312 15.307609742786708
Pd 10.518327185684715 10.416960132597765 14.287933524708787
Pd 7.901212065513883 11.034294449450032 14.118811065830554
Pd 7.708796198301751 13.801162275567963 13.497073306733428
Pd 9.787794855034512 15.285536798177015 14.2329920931349
Pd 15.497333698152836 9.261891421029345 14.767431671402665
Pd 9.518431843568386 12.315502816209547 12.425833644011815
Pd 12.939434949291828 11.021940990311519 13.093058716093939
Pd 9.093230793491989 8.654773880627786 12.996750025464438
Pd 11.746414933386594 8.30804595508449 12.995704230756129
Pd 15.81749096367749 11.242009455485615 12.536937689705775
Pd 6.523306584448486 9.333309610729783 12.704031977444371
Pd 14.16257748839011 13.399036250488015 12.262498354697378
Pd 10.170493439721984 15.07528089138774 11.738960926096746
Pd 11.671599995340198 13.405220054761715 13.479628791665698
Pd 13.831310844530577 7.284317760164937 14.275384459136399
Pd 14.519501524677056 8.959961562218325 12.358491175321646
Pd 15.96280505340248 12.641665219955497 10.274317318252974
Pd 13.59049297212122 11.258375918222283 10.557329502552932
Pd 12.74813807272124 15.538075987059747 11.77436082236071
Pd 8.189844073159591 9.619749579493297 10.752260924892822
Pd 9.012831237989609 16.26309645702512 9.689764455498214
Pd 7.976346085033008 14.079377155901417 10.755288990046944
Pd 13.8323596678607 14.174148710274178 9.695587768937367
Pd 11.594558217909437 12.966662846374781 10.765892895933261
Pd 6.990343550286455 11.814334433663566 11.674798213077382
Pd 10.910026948483491 10.393083848048434 11.468540019503013
Pd 10.25430091699505 7.909311464773189 10.614839812561108
Pd 15.722088867135247 9.874964771831754 10.14234111663175
Pd 12.821267580847973 8.591587756357539 10.489378517091534
Pd 11.51082129259043 15.430082003411767 9.407420640358938
Pd 11.568811012547846 10.679788876780297 8.94796519602512
Pd 9.278097607814384 9.444480501626124 8.430660621352649
Pd 9.456668716544012 14.03533919162521 8.367775102543675
Pd 9.13249926231916 11.855479130191481 9.747341672868984
Pd 11.983684125425134 13.176942124650092 8.013559824540282
Pd 11.559259342168202 8.138982006164177 8.190488658299508
Pd 14.421688807645994 12.026731390120242 8.154996757983428
Pd 9.854302276477698 11.746610505208674 7.089575323899194
Pd 13.952669839285862 9.391499984265593 8.212380255481797
Pd 12.517199790600104 11.00254818979349 6.54784543154241
