47
Energy = -203.90905063 eV
Pd 15.202357787389559 9.681649499766284 11.411948506138259
Pd 12.783426699758948 10.61168014498669 10.233109411803952
Pd 12.913550121528921 10.195490428870434 15.581376318879256
Pd 6.513093155836938 12.162975188586156 10.630648541875148
Pd 14.326571857665671 12.201787477092145 14.45109951544642
Pd 15.159563669232336 9.592104052639721 14.116790006479548
Pd 11.572555005228711 12.54791632527501 11.846498898719277
Pd 11.494101933217767 8.3154437359106 14.18411028524338
Pd 10.292292948323189 14.408873132926056 13.437757697501121
Pd 16.413654703042347 11.77929702860678 10.18847934645822
Pd 7.907465809535974 9.884967132278547 14.385475478094136
Pd 9.141061119601884 7.943482640944495 12.795829458636794
Pd 8.873658365077697 12.545525763715059 11.949552108989128
Pd 11.465113627299576 12.86710203224776 8.998699498403537
Pd 15.675589899489676 14.306650165931739 10.501703594603484
Pd 7.792118902873908 10.300884647214188 9.037690407289125
Pd 11.257853883486566 8.850845715426729 8.708904000103178
Pd 8.754758597859032 12.838153492898268 9.225504291932516
Pd 12.855294768765166 10.361806973914964 12.900095323212653
Pd 14.162199636050797 12.72395053659022 8.940205879733044
Pd 9.998660370184112 10.979831914303771 7.712216836670087
Pd 10.146606552362538 10.717896469423193 10.384910089013978
Pd 8.926336599770902 12.435979585046068 14.694286745113029
Pd 6.637119265554317 11.937239239861924 13.295236103717672
Pd 13.60530842593267 8.007401332391245 9.985236076754598
Pd 14.235809258306697 12.377764867702172 11.696364885606929
Pd 16.506188898053672 11.521406140628143 12.907193190179187
Pd 13.004884127383292 14.289871497310596 13.420121294740722
Pd 7.733972552160334 9.993347995146415 11.695949821342243
Pd 14.423878739567671 16.08803393849111 12.032708614228637
Pd 7.65268853801487 14.444980464308953 13.475040410357128
Pd 12.909199666984536 14.533829873306232 10.47078146144288
Pd 15.747491112461947 14.059822616477135 13.147363563998603
Pd 11.640191480791731 12.365478326966956 14.677974623300363
Pd 7.5751894847352945 14.626415588021269 10.852544050399448
Pd 12.639683100771796 10.925052326956148 7.5685673000927505
Pd 10.274394614744445 10.323999306784327 15.744505174192938
Pd 11.74679784342978 16.255341965242266 12.155303355161381
Pd 13.712550290286453 7.7555488593457005 12.609016513234957
Pd 13.779362994490059 7.691746466182863 15.291771241537488
Pd 9.077074753139792 8.213117539645744 10.130482163980302
Pd 14.973927685215143 10.099762455979945 8.731885893762179
Pd 10.21820151508826 14.630354390902921 10.665470156641245
Pd 9.234735838093323 7.877836059362471 15.43232254802704
Pd 10.203843064249009 10.476675852115555 13.074584015867808
Pd 11.394293007479003 8.44652110158785 11.437485230584533
Pd 13.475419515283122 8.4186391557419 7.3648089403466095
