45
Energy = -194.23839567 eV
Pd 16.13531698630808 11.963880846535627 12.54007948443936
Pd 15.026612752574708 11.514730754476194 14.896386433783926
Pd 15.362205227203246 14.112084150510599 11.024827710919077
Pd 13.855285272481016 11.106857214716728 17.17672784080642
Pd 15.504165505317507 10.374975049953237 10.514690248032354
Pd 14.457679145041594 13.838023729906908 13.519264122573398
Pd 13.321281174408561 13.404975074045803 15.944227331800192
Pd 14.925037722780404 12.460879212395051 8.9429788196724
Pd 14.347074034504258 9.847767944156521 12.904797111940287
Pd 13.036460070325825 9.50803519896668 15.222362291676294
Pd 12.044497813984885 14.082037123335983 12.274155739352338
Pd 13.648750924847583 12.127214946006067 11.474307647869452
Pd 13.542354623831221 8.54849388569156 10.71711157429591
Pd 12.501101348617057 11.807421573531537 13.894569122217076
Pd 11.36130480383476 11.341876035160038 16.31434249922875
Pd 12.271718088797764 8.090455623459816 13.124867049888522
Pd 12.562317098352874 15.523386785214868 14.498097884061151
Pd 13.08818279318618 14.23992888170297 9.670305313617517
Pd 14.669876277413946 9.1847644765636 8.274084324168381
Pd 10.831840781072476 13.659545428109366 15.041521953418483
Pd 14.443008326702829 11.229439297267401 6.657207595748258
Pd 9.928421812096156 16.046694670420806 15.316182468872032
Pd 12.4184289204711 12.639268031347399 7.534889756643933
Pd 12.88221984107394 10.776209299161227 9.33392264431621
Pd 8.995207437115482 11.798017930037362 15.236709458097721
Pd 10.509930444043505 16.12723148270253 12.80428334022863
Pd 10.046441903884237 12.227896439480784 12.760556217924913
Pd 12.632107111142828 7.48988694665088 8.412760295086583
Pd 10.494261901946667 9.779952508922813 14.280637931196855
Pd 11.496079140618765 6.871747194462759 10.834150631191875
Pd 11.67982195982508 10.317198944734535 11.781932708430194
Pd 11.405535499027698 16.106906731900928 10.344364570550155
Pd 8.638996755501836 14.357555034131432 13.634206697216046
Pd 12.106675837470174 9.791216564788346 7.061160280485089
Pd 6.7647367166889305 12.523233204660094 14.084501274910965
Pd 11.103059615101639 12.495772012487059 10.275436400692104
Pd 10.600940015933482 14.347577882192976 8.445107243372085
Pd 8.129666605727028 10.37671033002772 13.069556774679533
Pd 10.795089763563727 9.050684695201646 9.47420176157983
Pd 9.441650354761101 14.501824316789392 10.986319423355011
Pd 9.716873021704172 8.52449686772243 11.998009028094963
Pd 7.583890018746062 12.753585194222685 11.642671157864095
Pd 10.142259037256293 11.271891194427587 8.113832087871767
Pd 9.032444540756343 10.73251989178587 10.5489415096559
Pd 8.361424781173026 12.938165771446876 9.119190905010628
