41
Energy = -175.40811354 eV
Pd 12.297710994594718 16.075932310079697 9.184553156961112
Pd 13.44593318813169 13.68590145664591 9.622847090186895
Pd 11.164704705211378 14.195757983855627 7.84742998453817
Pd 11.41151875732624 14.669935036449738 11.157213744291967
Pd 14.769597969206842 11.444018289013597 8.843809533702268
Pd 15.492954555781276 12.507005328047896 11.179953401430389
Pd 16.732357215470714 10.52287730863829 12.548743983312205
Pd 13.476002993725643 13.82895793967799 12.468025659572529
Pd 9.523798625051697 15.493898270013883 9.56323852857994
Pd 12.46779173178033 11.849868562526886 7.661026810730526
Pd 11.35620228167856 14.8549279459176 13.849612303768604
Pd 12.841856746403552 9.635333254493242 9.183625128877045
Pd 14.62846810882213 11.647727861703265 13.54031734291057
Pd 15.012881017340291 9.669825801218089 10.82624553431327
Pd 10.894098453934985 12.402988895841514 9.769815475823904
Pd 13.027244123684973 11.434157322808788 11.16260064595344
Pd 9.297519047882263 15.758281187944489 12.324716881313082
Pd 12.603248063476004 12.727699611185033 14.780361941856686
Pd 10.088485562356498 12.190867225885096 6.521430175561891
Pd 14.684426383700037 8.953814540596886 13.414541355729297
Pd 11.929555894939869 11.604332508910927 17.029406912268044
Pd 10.404752707476653 10.201594766357841 8.271397563951046
Pd 12.168583331088962 10.269987447842785 13.516525272221855
Pd 10.91613431310113 12.477573724499896 12.611091804253196
Pd 12.79419238689313 8.398124119683178 11.543784881559969
Pd 8.646940661178121 13.198572114456075 8.537982267235897
Pd 10.641231682210694 10.150096465600347 11.237102535449969
Pd 7.928415291628801 10.873357305660672 7.4465735045259756
Pd 10.801243542672205 7.990904877749157 9.737339096947725
Pd 13.76820892145808 10.249221695967627 15.607897762557661
Pd 8.721427398744822 13.401897530826087 11.20945721743638
Pd 11.277983938007601 9.279820143174053 15.998657664591512
Pd 8.311875380811982 11.024284552224692 10.105473760682747
Pd 8.927376131505975 13.62596671810581 13.926436748782487
Pd 12.424618029093695 7.701908270638801 14.132110440167502
Pd 10.061047775997286 11.496218805449125 15.056925940217765
Pd 8.35398197756528 8.6349634326674 8.913025824830202
Pd 9.783800503944013 9.108397205002941 13.82880679293943
Pd 8.47935816354741 11.194777449370305 12.792721312705583
Pd 10.543037209781366 7.192176429583676 12.247034870453314
Pd 8.43206443435407 8.736106246147246 11.563307761004692
