43
Energy = -183.78637633 eV
Pd 8.861519709452795 12.741677007894303 14.684962968753728
Pd 7.93609619261538 13.963465735141428 12.45341901175437
Pd 8.480458435933947 11.315729130576015 12.339668676027443
Pd 9.070820092587361 16.330844768089978 12.009401227372315
Pd 7.871984466320689 12.534421033760708 10.140482856350864
Pd 8.515210786898884 8.654739639380338 12.524328196773888
Pd 8.401992558794966 9.93630762943338 10.070673601416413
Pd 9.381497269035028 10.194282663428659 14.56264303140472
Pd 11.422455385187853 12.982534885886352 15.447457277673564
Pd 10.30223933577204 14.789052716544331 13.787821128783076
Pd 9.870708721391814 15.902230607292248 9.544515006962756
Pd 10.993487412613769 12.034581423451181 13.039505688589108
Pd 9.780365428463808 13.352876158768703 8.616562573205087
Pd 11.759344541423529 15.959639299624058 11.718704651886968
Pd 10.35324007827187 10.896546492842536 7.751848011904274
Pd 10.242151001026155 13.839481531881583 11.228161316344986
Pd 9.008439586919545 8.629637126652584 7.898332606808877
Pd 10.571812509582818 11.367960570148536 10.36730063631962
Pd 9.21937887829556 7.374346636669935 10.25199950349286
Pd 9.420321816760463 6.16569296176413 12.568817674943915
Pd 10.598663008876919 7.859254371864844 14.234903272831469
Pd 10.960892701096878 9.475775871225188 12.170192165890738
Pd 12.839902278882542 14.095701913153247 13.34253247913863
Pd 10.799694328154748 15.292283221105768 7.138201078735844
Pd 11.200528610627714 8.87731530969528 9.361273069586321
Pd 13.899386490035896 12.231431987892526 14.959531819318062
Pd 11.990942426363844 10.192449921435779 14.940735083944892
Pd 12.079834775748251 12.926581925845154 7.3115024094140395
Pd 12.792420770532495 12.695148830355494 11.003028184536802
Pd 13.401377516765951 10.807725567846909 12.76565949854064
Pd 11.660213371020177 7.06173775723641 11.461698268569592
Pd 12.205147855908947 14.734789949294063 9.334761616188304
Pd 14.202084555276489 14.991760055496307 11.157148619177319
Pd 12.864903076612132 10.911942146678957 8.870041433751863
Pd 13.37852543717127 9.104228852398464 10.719069541384084
Pd 13.122570590176455 8.158583043727862 13.514991204077793
Pd 15.138379947721452 12.87988663636578 12.69412228029781
Pd 14.729186342813948 9.744864676052607 14.946257688648194
Pd 14.284347887715537 13.195419906294683 8.826529819228833
Pd 15.065300797690137 11.133145820255526 10.564405484332264
Pd 14.33794976541778 6.820440887070934 11.601776555296551
Pd 16.312466904505 13.489448504799467 10.44751521468949
Pd 15.47544062151281 9.143363021989916 12.408779997421407
