47
Energy = -203.28684096 eV
Pd 6.485516288155608 11.838130663575662 12.568189661414984
Pd 6.335299297700217 11.232948815449463 9.58556445220528
Pd 6.465193482700946 8.541007368742267 10.29355912663306
Pd 8.685446721406933 12.645091194110705 13.774416435669828
Pd 9.491646684619482 14.517750938921978 12.11173625471852
Pd 8.047165869188753 12.916973984461213 10.75309689116579
Pd 8.613906848429604 14.8231685559371 8.97441850466624
Pd 7.830859406142447 7.7978930407672244 12.5507526838034
Pd 10.670084925011638 16.05372198149284 10.347289140314171
Pd 8.081028566621475 10.049792777724933 13.944294358006836
Pd 7.988311287643621 9.532311168814553 8.3128621858707
Pd 11.255651393733475 13.502128473388629 13.961808247361736
Pd 8.144949540281203 10.31728589800264 11.221469625552723
Pd 10.536485855672776 10.843291087082546 14.578905589229054
Pd 8.40681212797332 12.251587883791194 8.12309427722103
Pd 9.096023852510566 7.9436781758139325 10.167311862452914
Pd 10.45246878609037 11.824721676908197 11.949292479054053
Pd 11.33345782857887 16.107556801484588 13.01410381757597
Pd 11.1146257559154 15.117167758668373 7.831856524623879
Pd 10.84710862794363 12.572614697479494 7.145503607681973
Pd 9.978643116488609 7.964676859144622 14.582076575298741
Pd 13.232081674991688 15.604827450348235 9.555159634653185
Pd 10.606426486830996 13.295073681372806 9.718660333125197
Pd 10.186332605255798 9.203658688046898 12.368393118169898
Pd 9.777477938678452 10.361446363362102 6.517823687413245
Pd 12.306251944187288 14.197814992585291 11.565716970435437
Pd 10.170566134458177 10.648902538355184 9.420339215666814
Pd 10.102477690306078 6.415173805272298 12.153763654665797
Pd 12.830769290335253 11.807005918251258 15.390188618048018
Pd 12.611625215475174 10.253273374361147 12.649809117158277
Pd 13.039274104484932 13.266795636418081 8.33015465536782
Pd 11.159129637110167 6.287297389024552 9.657411634051483
Pd 10.438955848612022 8.282682565305217 7.904877876230203
Pd 11.765633642113288 8.795934764222178 10.345926016532964
Pd 12.52781769535197 9.156722218855865 15.030530948813972
Pd 12.630212230166851 11.558635274569419 10.374601647674933
Pd 13.707086394902808 12.617442375177093 13.044940893174362
Pd 12.296982358675377 7.505736805772047 12.955711716325144
Pd 12.39969338681496 10.356579761925547 7.882955652505497
Pd 14.644238513856939 13.493849835828826 10.582416760857699
Pd 13.001839372306002 7.652966609738712 8.138475823647681
Pd 14.890487983429193 10.504221195862618 14.213594952341035
Pd 13.562173666791074 6.837910038437987 10.7363841245156
Pd 14.655509421025805 8.561740300353437 12.46498949686577
Pd 14.913028270215044 11.509910722821942 8.77485526577466
Pd 15.22069763303335 11.037358109762838 11.487473850023108
Pd 14.286701104848015 9.227854134464705 9.816298419614105
