47
Energy = -202.54272726 eV
Pd 15.663323880716922 13.378402086986295 9.820880072969288
Pd 14.950286204520237 10.984817905639458 8.53697006242678
Pd 15.398120767704901 13.210366240120177 12.474046460462265
Pd 13.801574788866947 13.320203895612421 7.682366326358091
Pd 15.55779104053787 10.977546767701718 11.142586373586273
Pd 15.642628737198402 8.656259132497443 9.836706057174766
Pd 13.705654711392313 14.869064549825362 11.328673311704275
Pd 14.395342598913242 15.552050734046894 8.889340286446547
Pd 13.115299116930107 10.985301468361847 6.593919651535308
Pd 15.29207168204016 13.24957554061203 15.110459103298536
Pd 13.92933306932027 8.648181308635076 7.719602406983749
Pd 15.310057111821807 10.87871922145587 13.909703697607798
Pd 13.118444025394615 13.711074026320073 13.674984444394813
Pd 14.569278216958015 8.809287933930207 12.471103921381792
Pd 13.092676723300645 11.19727113353984 12.476586887738714
Pd 13.268900942741105 12.413517099304974 10.156484528181862
Pd 14.165464110335304 6.738597166705754 10.830612936616676
Pd 13.185516659671073 9.631429132745359 10.171054711604322
Pd 11.355424158808892 13.565910122384322 11.738125998398424
Pd 11.378210389633502 12.199497920243523 8.206750710602325
Pd 13.227181929784512 11.604321943532291 15.349609823239494
Pd 11.910994587725188 14.68092734224969 9.261155466127345
Pd 11.437081693878286 9.584771885313733 8.147182534689872
Pd 10.060499801740105 15.77024355231993 10.888919620793876
Pd 11.078481605599427 14.27779982098047 15.147669447163759
Pd 12.185689868379606 7.225043780676009 9.182480684281233
Pd 10.985843621877283 11.032093951481624 10.802092724039726
Pd 10.903680672016518 11.871283882636085 13.763128778434428
Pd 11.014210567863772 12.076164938520751 16.632555398086406
Pd 12.042433669283211 7.959177093750697 11.833089635840619
Pd 9.548464428123086 13.425055467755621 9.64820987158363
Pd 12.389687312196392 9.2317911122616 14.127299775513182
Pd 12.149365623572018 9.67228136555073 16.737575144293505
Pd 9.135548955346838 10.854009595175787 8.889819942988964
Pd 9.346852190730788 14.509851253705785 13.21053978339991
Pd 10.033089149943496 8.551888229113786 10.154555466667833
Pd 8.876841942424734 12.160313434569211 11.97525292817239
Pd 10.047396601347753 9.390967191741138 12.741966888454604
Pd 8.82725533886695 12.708359195692866 15.163052504168506
Pd 7.687187888861801 14.663067452498522 11.131627035825048
Pd 9.942397795745256 9.963851015253933 15.350773895263865
Pd 7.1000858106214615 12.210970100803165 9.973537105077341
Pd 7.934773521876274 9.832626908309557 11.099002680112978
Pd 6.9057094412310605 13.248958781703148 13.406876325099724
Pd 7.884298486231907 10.575024832810536 13.827710604415088
Pd 5.297313173383412 13.571618097508308 11.343545684249703
Pd 5.884303585771575 11.106299524297201 12.147919418713059
