40
Energy = -170.36767451 eV
Pd 11.36996513688608 7.364050913942588 6.501012582670015
Pd 6.853418756014113 10.221624856895682 10.039510305998514
Pd 8.252624567722641 8.010826280772141 10.562395523001776
Pd 9.793398257132987 7.694594278453948 8.537630708995126
Pd 6.924374234407256 12.290900979115397 11.760448670854466
Pd 7.7991493094883335 14.590060424132714 9.82639080037323
Pd 8.41835048070721 12.538161489427113 8.048336796347078
Pd 9.274089944975874 7.796451745923126 12.983189994520885
Pd 8.62114147417658 10.191202614255996 12.021567463193938
Pd 10.810581994230331 6.652112945381452 11.05623976272683
Pd 11.445330521348 9.662838573614126 7.719497082087016
Pd 9.176548414414691 10.295290888898041 8.97784197926669
Pd 9.314771596662785 12.674027354130292 10.72477213650946
Pd 8.093696472047109 14.519466799790889 12.526560863592342
Pd 10.90728798538171 9.177197285569566 10.707112782660309
Pd 8.734114312819342 12.217453554547216 13.767182529345202
Pd 13.536502441184822 9.509262093815723 9.37642902182556
Pd 11.822291193369052 8.204333876447338 13.179962851478386
Pd 10.052135551678449 9.925417912663152 14.373852715977959
Pd 12.367774762359575 7.1835413068175065 8.882228869704234
Pd 13.502200490004613 7.5695496544802285 11.218565070560338
Pd 12.736536349529612 10.26738717279563 14.537590755689973
Pd 9.979785163527106 15.609448130258015 11.016525804252389
Pd 10.911027865870794 12.253417827801288 7.143145383198864
Pd 10.952113759470107 11.505092146443824 12.413761819984016
Pd 11.534607893038945 11.573170833701958 9.634887446160462
Pd 13.05713368596361 10.269244387518427 11.880774182570244
Pd 11.144400645028488 12.3361300847072 15.02237221079224
Pd 10.337187715615382 14.268973650966398 8.769601726932462
Pd 13.48207309295037 11.392340885460351 7.611612503251845
Pd 10.687784085911064 14.155537438850702 13.123258079216589
Pd 15.503428240708361 9.573677660222936 11.153345247021909
Pd 14.499974562824876 8.585672704504626 13.516412726057048
Pd 13.871356791074627 12.411852592877274 15.385378676010436
Pd 12.021681276770355 13.867230047847963 10.859713130525144
Pd 12.898396900839906 13.806098819610241 8.40785047488671
Pd 14.125155773028816 12.122831848698047 10.368761150949737
Pd 13.116882227234566 13.005520416028697 12.999706964076353
Pd 15.091451779709606 11.255397996780015 13.265257656411475
Pd 6.13818099455102 12.611516226512045 9.258222250981966
