42
Energy = -180.80628837 eV
Pd 6.199261521956492 7.173652865429054 5.139789855418869
Pd 8.744061927223283 8.112923766323595 5.288506840917948
Pd 6.740533895484064 9.755079157463861 5.884107246792064
Pd 7.4673352457718645 11.956892941890377 7.254565916296831
Pd 12.804994044540297 6.736216640492017 7.037836204875573
Pd 9.32226032276754 10.756780784760842 5.525760636765008
Pd 7.937910306618167 5.413600259600367 6.000128377986278
Pd 4.721941911295004 8.123316775285838 7.059200733787324
Pd 11.451196521652948 5.602661580534498 9.111386524253334
Pd 11.267156091103585 8.760484302104533 5.793833574920463
Pd 5.786326160584958 12.577011002064507 9.426567541925422
Pd 10.129933077433614 6.538602954118576 6.9049445833397805
Pd 5.9087363977098795 10.10647644825606 8.35204902828288
Pd 9.084758245341881 9.780944421206996 7.8958591030780925
Pd 11.390266568252436 8.48571546276537 8.42815845091052
Pd 8.32757859189835 13.778096206217924 9.151600307366806
Pd 7.424665778219337 7.695154175745796 7.610119506449961
Pd 5.938037444401225 5.655255796128283 7.9323053950642946
Pd 13.440790713059046 7.5713458275300285 9.629998270807802
Pd 13.631533372058831 9.344254300682435 7.329989934555205
Pd 9.845786730494686 13.021235914605162 7.042544755178895
Pd 8.046473400613056 11.336775508582502 9.864147493538391
Pd 12.698116291339058 10.513857930040096 9.546832330295198
Pd 8.605364857372171 4.881597133046231 8.497604398772213
Pd 10.59508595865798 12.238146560912629 9.478706573033747
Pd 9.372655559435946 7.240402693617131 9.389816700397985
Pd 11.510320276584773 11.042442892815885 7.195958053534399
Pd 10.140978441629793 9.697812673408404 10.45953663299622
Pd 7.531184819607829 8.822262859340993 10.082585093037068
Pd 11.952767674355242 11.576958071592136 11.800238519569541
Pd 6.836990394120113 12.45082340597348 11.942098887479963
Pd 5.1429027955176 7.762907675501085 9.640013384334173
Pd 11.276864316626762 7.239147371499624 11.312604269222577
Pd 12.98812255328526 9.13070792248367 11.78071358385275
Pd 5.49110568287578 10.293641258172679 10.98247344640677
Pd 7.106154864937395 6.087158229469567 10.398169428451228
Pd 9.592666070430917 5.100067538972652 11.056102285785816
Pd 10.526553414081565 9.421113802305111 12.985227501468753
Pd 7.83467490974332 9.964581801665 12.516432505405637
Pd 9.437051548649395 11.992001125447386 12.049849752679103
Pd 8.767835157864264 7.474389288680125 12.146902340138315
Pd 6.0961682075638075 7.902604736427164 12.189836093787187
