49
Energy = -212.88481447 eV
Pd 6.768564390543853 11.325545722049357 11.720952683156202
Pd 8.10466299622645 10.631137370944632 13.919497218043876
Pd 6.726299900509438 8.700024282985478 12.72734138693861
Pd 6.674294346387154 8.978591309302299 10.08443635582501
Pd 8.034554099910636 12.98489396801376 7.545025310875845
Pd 8.333875452141026 13.222968469468865 13.07689119112157
Pd 9.484287925874119 9.406052477606464 15.81253394979179
Pd 8.373000657078924 7.194876433610971 11.255846059716553
Pd 8.071989330218264 11.062511096019785 9.310935997508825
Pd 7.550658169009066 13.536131988366346 10.470912757548252
Pd 9.122676994530371 7.909082344223013 13.65328627477204
Pd 8.966109118294211 9.873287366885371 11.501323095426091
Pd 9.966625306031332 12.104941033380019 15.05682191057355
Pd 8.861405877020138 15.259783163304574 8.81700708180369
Pd 10.162483466276742 11.039409407797983 7.456100927365937
Pd 10.479288857006257 13.832967811418365 7.088567295846047
Pd 9.170101151508518 8.668258842544807 8.999715809934642
Pd 9.804182178957229 14.879507500581084 11.36440365964453
Pd 11.01714881318571 6.20475686044194 12.593343568072026
Pd 9.908565645127629 12.88841945840496 9.602966597761345
Pd 11.081292277170215 8.338991015600506 11.225455039045473
Pd 10.859051321490508 9.924929414187996 13.54021185116935
Pd 10.260349555647007 6.276023456715104 9.707844873747353
Pd 10.369916079638994 12.058560185157841 12.069954835754533
Pd 11.103014497275352 10.520180444103001 9.838516475054814
Pd 11.636480592944299 7.835999790953727 14.763883167862266
Pd 11.516714829436166 15.158159627408224 9.278925599116263
Pd 11.962716164193148 10.313950551857806 16.064554011437956
Pd 10.94977031396061 14.213681679667836 13.64004586217804
Pd 12.827705419606515 6.399715733847884 10.41974172142527
Pd 12.372206604339214 12.160151625929208 6.164196354334297
Pd 12.348602934345692 12.638716257352218 8.836696998934688
Pd 11.725904924672868 8.199912596608602 8.462451449086137
Pd 13.311903352106995 7.793115268792206 12.624661612699846
Pd 12.712797414337254 13.135843692770592 11.445160973318634
Pd 12.461149043872163 12.037711735971003 14.097496355408257
Pd 12.778385913546336 10.487837946556313 11.886858722930665
Pd 13.17671124217961 10.347261580404144 7.926100570362607
Pd 13.030034757605932 14.664851573444029 7.036279285967606
Pd 12.389123532266295 15.660961208387773 11.739613766697454
Pd 13.88205888211787 9.72054286780029 14.316037678917462
Pd 13.74318852131987 8.89662469215482 10.031206265886453
Pd 14.13292130155487 14.552793650717662 9.448942939060299
Pd 13.72240577689262 14.312942479769504 13.714002049055194
Pd 14.723291707840742 12.552653766820104 7.633095946469211
Pd 15.34762560533098 9.469574459079634 12.047287608091871
Pd 14.895064542272506 11.889859125763648 13.009171959847007
Pd 14.618416722268252 11.59870850644361 10.201892532580102
Pd 15.347463498113747 14.015396380002455 11.610619068306342
