40
Energy = -171.35133368 eV
Pd 13.705625108890368 11.752242914801405 15.250206379136436
Pd 15.549607627742445 10.647141048677048 11.106523495320554
Pd 15.043291860784873 12.489975371199723 13.005607987674427
Pd 14.192449771698872 14.961796672754542 12.313975469372416
Pd 14.451344359679977 14.289294220202223 14.899788266666842
Pd 14.676185886062521 13.120005200904291 10.370249699778975
Pd 13.87057884158908 10.856392420497452 9.015109241157097
Pd 13.580111102501835 8.83769386921319 10.858735450469267
Pd 14.197054729527387 9.880096606192234 13.350321869791644
Pd 11.797331634850385 9.16145011511928 8.875881366587135
Pd 11.673587233404742 15.797879220561788 12.754406671767153
Pd 11.170704042303992 12.631348598399649 15.724421167011416
Pd 12.898693229023745 11.427258596424963 11.554063608486107
Pd 12.403483197918021 13.274487975265616 13.42648937585385
Pd 12.190237962509284 14.151398701901734 10.745310057015175
Pd 13.00503055064855 13.340318560923887 8.33327671748011
Pd 11.953600144700163 15.16639231501361 15.334849227525861
Pd 11.977270314185494 11.179105400036283 7.060340412447837
Pd 12.223273368145135 8.156779426867535 13.140782574723994
Pd 11.647832261424236 10.61574984782941 14.038416151670583
Pd 10.35635527619836 12.26272054942818 12.029771679286908
Pd 9.106145307244287 11.590783672139567 14.30901039979568
Pd 11.162522218323483 11.771541623290062 9.517254178379996
Pd 11.502149422910277 7.159543799868197 10.714968126587074
Pd 9.84677298737803 14.226243609594059 13.988852683514754
Pd 11.177776000494285 13.672757332826272 6.460984904125274
Pd 10.835718542714524 9.659147580255476 11.421598483921953
Pd 9.509453842187591 9.076299391045032 13.663444528684087
Pd 9.601076573720075 14.779546165415287 11.341677811644756
Pd 10.295084741925013 14.232481282964716 8.868901479725258
Pd 9.890726703625559 9.505854005208452 7.013712705391378
Pd 10.110621809732928 6.591248137836024 12.985892987039247
Pd 7.764528423864055 13.224551888005912 12.60512241240124
Pd 9.61896448788221 7.564916762552175 8.831219719325391
Pd 8.435820431837804 12.650218997174354 10.066719212805365
Pd 9.348063678828026 12.062226968550014 7.574433935022064
Pd 9.326095453626777 5.6490067056673 10.613254805802873
Pd 8.990052006503527 10.106042099207055 9.449541799436622
Pd 8.1002035713552 10.64855471254667 11.918654932825067
Pd 8.628663890213192 8.11030313099293 11.290789725597007
