44
Energy = -189.51376545 eV
Pd 12.013602307262214 12.702577254398086 7.074587167475566
Pd 13.172290291163684 10.277303923890209 7.491940882722652
Pd 14.039473555579645 12.38286483222766 8.876462063551296
Pd 11.913715331339342 16.051833425354033 11.036099133579029
Pd 9.895515062663817 11.119407556012728 6.74972328798715
Pd 9.535932409896498 13.430479375670364 8.123483367961462
Pd 14.1329999287025 9.835216384389494 10.043795200407253
Pd 14.011680928554835 14.236493184780214 10.87239431447561
Pd 11.794474079245767 13.894873860035268 9.44199744200811
Pd 15.438311610034576 11.928249683233256 11.17577128267304
Pd 11.106830616140645 8.791697162236774 6.682884085093574
Pd 11.221085063102278 11.02195851776765 9.020074932397154
Pd 9.482177472286978 15.0292504257496 10.435155353394675
Pd 13.414570846885795 15.529054099221133 13.165048107643287
Pd 12.687260041358646 8.055700802519757 8.855230193037109
Pd 12.619832930873589 11.77634040250875 11.053526736123574
Pd 8.308621351734695 11.159656447343732 8.841408827060226
Pd 9.746915580795282 12.462167724260457 10.720544100845107
Pd 11.48239004510653 13.748047772382769 12.320183877323736
Pd 8.326197761782435 8.962287312603914 7.149006075566821
Pd 10.91030148458913 6.332681953246265 7.681107644688638
Pd 13.96693300659074 12.875492279529043 13.21680705794661
Pd 9.801753319220001 15.471266940586277 13.10155019699214
Pd 8.456427643854592 6.610676665580997 8.660133164568473
Pd 12.207320829422118 13.959368776534252 14.92715403967179
Pd 11.577320758652641 9.139364599988108 11.220881594126823
Pd 11.215869956084708 6.451725951206399 10.273879122291808
Pd 13.970144711564325 10.205693913192196 12.723116900705683
Pd 6.889394328131703 11.424291038684917 11.092198172699254
Pd 8.093343820946435 13.534667144984788 12.336182616533435
Pd 10.884576158481295 11.115214135979127 12.896601750211769
Pd 10.015132798107905 8.658290229838347 9.074133249515473
Pd 13.529098794456647 7.621698632539173 11.760371156050962
Pd 12.572106813210663 11.324529131678156 14.86874577449735
Pd 9.147078627505097 10.00826149286947 11.169461265711792
Pd 7.201317386484604 8.850174618977281 9.689277313603272
Pd 9.811242117489485 13.00071344285895 14.408589969602208
Pd 12.053150778347401 8.873130832667592 13.99954188389326
Pd 11.063349341558562 6.749983752886112 12.813921804114582
Pd 6.9195081221500905 8.945549108353283 12.366475205229477
Pd 8.15250396564044 11.096835064347488 13.496083458458443
Pd 8.861377377414374 7.304336810569244 11.277556302352014
Pd 10.091723897036683 10.431812215189483 15.382015519501964
Pd 9.379794610747954 8.691380467829068 13.480457574559313
