45
Energy = -194.44548019 eV
Pd 12.884623029285482 13.438546281522806 14.235643021004666
Pd 13.799020792812707 11.067264335878663 13.48157979203355
Pd 12.734506702483944 11.202770560676566 15.856815988833032
Pd 14.843537587172962 11.754298365081102 11.244066512156426
Pd 10.7391267962229 12.934113277428748 16.011468188130923
Pd 13.95583739192229 8.411109221161496 13.26338948881492
Pd 14.251460455424995 14.324123868999433 11.824843973696277
Pd 11.964765896392361 15.437728395365585 12.674245515982877
Pd 14.906780306316413 9.223230821622145 10.728970309343547
Pd 10.140546742794436 13.837723954471139 13.631216400689736
Pd 12.196648880594509 12.734704403231213 11.642869341953114
Pd 11.04366034146606 11.375982415763163 13.666484599502573
Pd 11.751437717920727 9.09497375458952 14.606896023940434
Pd 13.49206984017437 6.929041627607032 11.078640132970358
Pd 9.648377036062286 10.472902423405042 15.631428358359402
Pd 15.46746140129019 11.04376765072313 8.70247771005861
Pd 14.01714671140428 13.425441773455717 9.296030441981046
Pd 11.492004335704843 7.180677410473894 12.857929739837028
Pd 8.212065794561333 12.774449304780992 15.00966122753889
Pd 12.380376193625814 9.677285921948164 11.587350863250638
Pd 12.268372796553132 15.256110866404356 10.064691539048637
Pd 9.808608945719522 14.696330750477754 11.219925476073952
Pd 13.744589642148238 12.294141851638464 6.8971661358846275
Pd 9.101141111062606 8.183133835310358 14.259092276912902
Pd 7.6793295452921155 13.263212036424258 12.343914166349716
Pd 12.998948592781597 11.015076405501429 9.285048983756056
Pd 9.025988515592005 6.71278208938941 11.851735554171684
Pd 13.0546510655567 8.420908366878974 8.981248696661678
Pd 12.060456326777148 14.265363098905027 7.461533159615623
Pd 9.83545920859153 9.295282442986462 12.07753434224778
Pd 10.966617573442758 7.514467456904587 10.228046869288475
Pd 10.937476446167546 12.940248120543556 9.352871572430965
Pd 9.930488949704307 15.416787232280528 8.689842940888676
Pd 8.03971943723796 10.73997337927623 13.45267993299494
Pd 13.106593047321901 9.699744013923784 6.770036810058157
Pd 10.578366400206118 10.286370884219222 9.741649224041913
Pd 9.692252356132489 11.894936325058678 11.478002758185209
Pd 11.18673388386961 11.376610554711826 7.171358005706154
Pd 7.18967767977817 8.637514282899641 12.113861995635972
Pd 10.610640429614541 8.689743552338276 7.7464875085800955
Pd 8.203959242440835 13.255491534366913 9.605481716915534
Pd 8.507441087667658 8.552096995667688 9.71669872463721
Pd 9.394110048916449 13.266213676813448 7.164747618230625
Pd 7.437672286999481 10.917938564511987 10.71953972834245
Pd 8.616543104319828 10.85510150974217 8.206871476678508
