43
Energy = -184.76077994 eV
Pd 13.205835971035622 13.05916371990203 15.308565653029003
Pd 15.996443172107286 13.38661363936666 10.574345062485033
Pd 15.60659807058555 11.074477499732597 11.707363319747822
Pd 14.790430839079212 13.290815869855349 13.091454017003716
Pd 14.233635263977773 10.878611850703996 14.05592651002011
Pd 15.33097176012286 8.718364069835593 12.907848809535247
Pd 13.468899634163567 8.455763102676665 14.824965972673258
Pd 11.170684676815277 12.591069984295764 16.997180406384345
Pd 12.316880982857832 10.512566056532053 15.967721530713808
Pd 12.348758125454973 14.380179392396618 13.15779986346592
Pd 13.675661021996142 14.49834818053672 10.885876065757712
Pd 14.608745023591938 11.547337075657628 9.142810162695596
Pd 14.484510430574437 14.157766993443648 8.423954093793785
Pd 10.408725855468381 13.925129306539812 14.901782221018822
Pd 14.5420603648595 9.084547069857827 10.21090593522874
Pd 13.115321437055798 11.94113367116496 11.323484518520035
Pd 11.6735880448248 11.789401873397377 13.541652676187878
Pd 12.847344179841029 9.450914430455862 12.209030257919585
Pd 12.1625845096769 6.97496369197142 13.035669170058728
Pd 10.93715040550653 9.128910060948247 14.107592883264244
Pd 14.30897408793409 6.756665893568541 11.515409279197517
Pd 9.882950364419901 7.8737528791902145 11.980034745618273
Pd 10.524816294367632 10.532688355978074 11.52308252000091
Pd 9.672818278697806 11.24143683789834 15.236602658917796
Pd 11.92390281734324 16.387051829015874 11.488332012811522
Pd 12.260903907126387 12.75955496386662 8.598692480469287
Pd 12.08712103801736 15.428628429955042 8.934547076625304
Pd 10.998595477394831 13.527343280341665 10.883388437379727
Pd 9.785409125486371 15.193298800974368 12.680516265424993
Pd 12.094213402598621 7.69414093332501 10.380170446880049
Pd 12.273257486186525 10.188880446305962 9.329451117954964
Pd 9.133338061612479 12.588259976134923 12.962399481305788
Pd 10.009830420471198 11.553100975053662 9.184557421679457
Pd 9.225079844602586 12.002013801931632 6.780309767976057
Pd 7.916276622133869 11.349757939607915 10.919896646117161
Pd 8.495254256928638 9.953988413808334 13.18191110666852
Pd 9.745363469347252 16.066401252763512 10.06346158946266
Pd 9.834236658538801 14.09161825090004 8.328469205390777
Pd 8.345499961604043 13.93467440475743 10.79796755070223
Pd 7.685870854713425 8.752343588941027 10.811521646594436
Pd 9.949395298809675 8.865060984251404 9.428608519661886
Pd 7.860738157148055 10.1198873152263 8.435705170225255
Pd 7.501797844141865 12.763022255537173 8.62499296148078
