46
Energy = -198.78581758 eV
Pd 13.412030198356511 12.223718412038215 14.005734042198483
Pd 14.976092046278035 11.68226780193582 11.878259250266147
Pd 15.000357091454836 10.13671282182853 14.034324587781152
Pd 12.442301316677643 9.923711538590958 15.185183983394584
Pd 13.4678808666251 13.967781101552099 11.880738712290288
Pd 13.778905506798418 7.8146857462143 13.867869994023552
Pd 14.714221697767764 9.004568823727173 11.552993275115112
Pd 10.98392564381095 12.264860802795395 15.261544543184804
Pd 12.068749735117677 14.519549846394334 14.079542443047515
Pd 14.911637671321724 13.279273372672789 9.717927335328572
Pd 11.158714208828503 7.9341100232071025 13.715879364200285
Pd 11.01628151883986 12.322763435825015 12.693699802057811
Pd 9.74634015401918 9.94040290939253 14.782406873573022
Pd 9.737834451451631 10.010684382869849 12.176476304038237
Pd 12.479146849483886 10.015691570020618 12.5740417806498
Pd 13.556824652368883 8.274724459584116 9.186463127251447
Pd 8.334853225438383 12.185049136478108 14.863266502677073
Pd 14.660265257838182 10.616531762352533 9.38171798694914
Pd 12.626671139205145 7.296494129592052 11.523588455789307
Pd 12.401163004946381 14.165549875988873 9.360529706240083
Pd 11.073336309840847 15.10235058137796 11.55740996204869
Pd 9.458480902078977 14.253908583022119 13.609016894457707
Pd 12.618018682369849 11.765956080230906 10.612882676777476
Pd 8.535432735567785 7.756983945622948 13.587177241513023
Pd 7.339976008111962 10.139027987257128 13.38914036617857
Pd 9.955590025988434 7.292347447728601 11.39299962716696
Pd 13.425153535303739 12.275271954771734 7.685730875438567
Pd 13.819650124590964 9.73949781646646 6.960863349547931
Pd 11.39740739872373 6.679409346361059 9.212846233430431
Pd 10.059994674132833 12.96321988572833 10.37733870642447
Pd 11.400568565866733 9.391098044448427 10.216783224176575
Pd 9.93193355720858 15.111197382745518 8.915428677978628
Pd 8.772627060452665 10.761203106510573 9.812322234402613
Pd 11.405617029199568 8.807042586013953 7.5310435230986945
Pd 8.40362645143485 14.958804571515792 11.20904804569837
Pd 8.144393319588046 12.393000490201837 12.218021234825352
Pd 11.182225253293659 13.600572771492718 7.002047174168778
Pd 11.080691731627411 11.375435882212438 8.530446248718016
Pd 7.606373824009477 8.529863566080062 11.149399362591044
Pd 9.188842527866193 8.221461278360119 8.96947918693135
Pd 11.599168191149035 11.051377548621497 5.994293478218201
Pd 8.821178999377015 12.782929921980314 7.86085212680527
Pd 7.152091026398517 13.037100922578832 9.819857295750042
Pd 9.117080987772708 10.20727746010078 7.074816043398807
Pd 6.846984205729077 9.443869016435288 8.656881418083008
Pd 6.300850130775165 10.82761016397323 11.000001703219635
