43
Energy = -184.69474163 eV
Pd 14.843664930297441 15.098115769692049 14.811624613239209
Pd 12.459838184480407 15.273022986924639 13.573965283887643
Pd 12.79602562216598 14.119088546022839 16.022395695712785
Pd 11.226981704786814 12.230199366017962 16.90462423633476
Pd 11.244085746840168 16.862635937716327 11.772532811047277
Pd 14.13077454473032 12.45603084233207 14.59218570058267
Pd 14.7408270755586 14.192612568474686 12.372607230608844
Pd 10.281053858873484 14.427559995125794 12.251790349052452
Pd 11.872895392158881 10.861472669421909 14.765069421754735
Pd 10.728543392154481 13.409973149172101 14.568298673410384
Pd 12.727288092346768 14.937210294738598 10.845635647836742
Pd 9.22152112454994 11.438904258150103 15.429180242439864
Pd 12.508331268326938 12.6283576367971 12.566352192469608
Pd 10.333735276301875 15.382838003219868 9.760382171890548
Pd 15.083190681615738 11.583329935202645 12.222904992332419
Pd 8.400144262716477 12.86027095172824 13.221936763437112
Pd 14.300633458733428 9.8543102982498 14.09171070426546
Pd 9.73027362495275 9.260355787432522 13.989019301452187
Pd 10.990866632661044 12.564947987363121 10.298120756885194
Pd 10.219965196230069 11.194077408512094 12.362897409427859
Pd 7.260408976136115 10.530127564090119 14.00904930978603
Pd 8.477774759833446 13.444730540045157 10.579305663744694
Pd 14.262769209859588 13.031981501895755 10.055476825259303
Pd 12.964030713312448 10.745498313730959 10.602100823506058
Pd 12.211045901047779 13.78770787415059 8.39588538612386
Pd 7.672423517735283 8.477099357210689 12.372385536816731
Pd 12.156647283959266 9.300205542672378 12.71089104516517
Pd 9.460927620916271 13.630399291993335 8.031979403291901
Pd 15.75834371475492 10.794318936713024 9.754173624874145
Pd 7.793740495260691 10.933813598222756 11.425173499457289
Pd 14.730656661982103 8.991707677857582 11.58679997873925
Pd 10.629680284751446 9.875516048821986 9.963251417517661
Pd 8.514992847613646 11.330996261083442 8.941301563173736
Pd 10.128295868136309 7.947544759236962 11.701124497619324
Pd 13.602405155432642 11.34629248860093 8.135483499442998
Pd 10.968368620702819 11.4904022309608 7.744214221218922
Pd 14.359718561876221 8.780335728264198 8.903958122928794
Pd 8.202647392888993 8.796873347711866 9.769627409826803
Pd 12.521031659717664 7.83852950756584 10.5667648975568
Pd 9.404701180421728 9.297362915082003 7.429180920237361
Pd 12.026798476001613 9.12450302141666 7.734899643865436
Pd 10.342718259551125 7.290135870729743 9.052893145301844
Pd 12.829701910894649 6.699072372917764 8.23131450974678
