40
Energy = -170.37894874 eV
Pd 17.081051739257543 11.996733707285582 10.741187759152687
Pd 15.438274343017136 11.908203968933346 12.812706430793108
Pd 15.520344358988806 9.88132793438439 11.082727624237801
Pd 15.218562714323651 13.897777226396538 11.062927748083604
Pd 14.766940327996553 14.332552829108188 13.745151449975834
Pd 14.888586611017642 11.893417221753419 9.257831171201852
Pd 13.693461157029574 9.881989637227743 13.061299514277101
Pd 13.831389382707641 7.788951323261176 11.440096021885115
Pd 13.208909477583415 11.997988497700316 11.31280372515313
Pd 13.191507968174683 12.253519760096696 14.168347600875443
Pd 13.235364326421935 9.761206297447542 9.729186896341636
Pd 11.726058603712415 8.012057407585488 13.228555369509312
Pd 13.048378343797733 13.923609271153065 9.37487913603104
Pd 12.173433007036778 14.669718845057016 14.648058808717193
Pd 12.607614773448342 11.6990353230762 7.9454180651576225
Pd 12.835256437767686 14.612321642039197 12.00873236724601
Pd 11.981001880536494 5.843593332456018 11.849198255083966
Pd 11.453614230492706 10.300888239137942 14.354474532362753
Pd 11.247592555309422 10.097103898063498 11.624716582740167
Pd 11.417440079509925 7.811249858394403 10.237504642867643
Pd 9.307446089971794 10.289298609845213 15.78738839545813
Pd 9.55510662664671 7.000813902571979 12.047781922667298
Pd 10.827498767320186 12.06476333451904 9.923648939983545
Pd 10.934195574857156 12.82406286334396 12.758742335587124
Pd 10.879907652422741 12.506223547179506 15.643624621765928
Pd 10.739314808003849 13.796633644194534 7.940975443281537
Pd 10.84221550299205 9.724319232850393 8.584830035833365
Pd 10.713818322412099 14.68641843445229 10.45607255115681
Pd 10.269885810512568 11.48418174337031 6.655022786793942
Pd 10.624519151138621 15.88310463912027 12.789486890075617
Pd 7.241315412408957 8.17769046110889 12.115764525119623
Pd 9.177729185365278 9.479751787667949 13.201663194863155
Pd 8.616706718018955 11.510967081502491 11.334554092229665
Pd 9.461223608804222 14.499047200328663 14.699748152804613
Pd 8.972623905882172 9.059365392252218 10.366727680084571
Pd 8.70759692313446 12.025578376374494 13.945524765776636
Pd 8.42715574945591 13.617834492235263 9.615200395483836
Pd 8.547943282041569 11.073563074021903 8.691150813875963
Pd 8.629599013277323 14.086769050870956 12.182491081909502
Pd 8.302513670587349 13.173297646430639 7.039580765434136
