45
Energy = -193.12566381 eV
Pd 11.675997217722944 8.955179314636403 8.963325865902874
Pd 14.845464871881866 7.968030827660123 12.166168495513011
Pd 10.449482047075298 6.6853572257068645 9.47260049313164
Pd 10.261984354400589 8.541331652215362 11.47492024572354
Pd 14.140898841899139 9.254609063097547 9.961543198901412
Pd 16.30955496055356 10.085446739004777 11.252523169451603
Pd 12.451165872614844 8.607872339510473 13.24178826052602
Pd 16.051634360312246 12.572743007286038 12.622763646708133
Pd 10.39528499080319 11.268251077457185 9.11409941833501
Pd 17.364762816112144 12.251586419157295 10.287038135095926
Pd 12.127922254539568 10.48353197958878 11.329928676841359
Pd 14.38968301089404 12.034598337350875 10.581020939804555
Pd 7.711193327477939 9.530211075083661 11.260193641698068
Pd 14.375805788625483 10.428814767875664 13.025521420043232
Pd 12.115556500780196 11.080564542336191 14.419083373398466
Pd 10.13957511175705 9.40896615952407 14.069823406745995
Pd 8.210990051115056 7.876019594763184 13.210037125469855
Pd 9.132829213425767 13.54264453001479 8.432743347997945
Pd 14.580401688613005 12.349903904628986 14.890862727311184
Pd 9.648002330492357 11.254721695020752 12.239488968282
Pd 12.601642643665521 7.293806062211849 10.90715498141159
Pd 8.11254812807088 7.004679566063337 10.657035734231373
Pd 12.980655776146778 14.462081782779196 14.809649697948105
Pd 15.722528115015143 10.960082144085622 8.57820150987722
Pd 13.178480748027383 12.828080747228437 12.701684526926588
Pd 11.255191911619617 12.959190766014807 10.945169429025528
Pd 15.846446286890531 14.343556451995234 10.415148811883665
Pd 9.008418658979664 8.94678340146214 8.985088845875772
Pd 8.99476829834213 14.363360679801968 15.470318579741878
Pd 7.817958989311986 11.35776913849299 9.387704723386458
Pd 9.527651004543026 11.677426475795968 15.32921622218276
Pd 10.766126107718126 13.31748394035141 13.701830028393665
Pd 14.637785056620036 14.953824298738718 12.717206511523575
Pd 14.482741480474107 13.411336904789783 8.260949490655658
Pd 7.617969077206478 10.429083520823037 13.857817842389561
Pd 12.9655739136123 11.199389853167604 8.547386853878772
Pd 10.895776815921383 16.01744717470265 14.768948794923597
Pd 7.920493551402866 13.06078129547746 13.52164067215923
Pd 6.532643214793407 11.798396449362457 11.737677269175483
Pd 11.760006912013036 13.593369358650955 8.342488246880315
Pd 8.569940400484805 13.38684831750494 10.958397738143411
Pd 13.25244345325339 14.662236264071469 10.285856610188224
Pd 10.460649690318375 15.30510045934299 10.147883396792665
Pd 11.963662652055794 15.429667015415369 12.412201983954228
Pd 9.293653359843143 15.259685555783026 12.681249649157625
