48
Energy = -208.16863158 eV
Pd 15.408944117832235 15.489860117538475 11.960675495926958
Pd 13.703923106394376 14.497426817056766 13.682961202234614
Pd 12.374115904228074 13.84241732062989 15.816907168762352
Pd 14.218448579886678 12.137297428745278 14.737436817900319
Pd 11.369745870555478 15.801953751296546 14.238176529627124
Pd 15.83176363894748 12.964944559297143 12.733737820709907
Pd 12.941868429167464 16.56278331887883 12.094533757522427
Pd 9.855500728355018 13.569403173688647 14.728515974438512
Pd 9.093168276416307 15.197969418399815 12.68168270637626
Pd 11.659305051710875 11.295980668884118 15.989725328155336
Pd 10.440905503749779 17.381387209798234 12.263392780457645
Pd 15.757484272833725 10.38400503908114 13.342523864687836
Pd 13.497045386950154 12.852352119702564 11.47862579081112
Pd 16.04004780673059 13.658606423209925 10.141967139422949
Pd 11.059801211821233 16.04655859294277 10.056098473543257
Pd 13.726006182882033 9.602132087718696 15.167166580563642
Pd 11.741736105229728 12.242527178550578 13.586654123589534
Pd 15.373632403008935 11.09595998378659 10.687175778313074
Pd 13.288360399248436 10.402489176242508 12.618441531602526
Pd 9.424759291479079 10.93680437406464 14.409854277795272
Pd 11.419635937845252 14.328528904063814 11.986413985651406
Pd 13.662539060468134 15.049999018835761 9.975426978680101
Pd 11.244253283633215 8.935703066135822 14.931278192901605
Pd 8.264053909474654 12.727636003758786 12.728200059782317
Pd 13.323412004506435 7.854013363263453 13.108340873583568
Pd 14.107542137604081 12.663696489676834 8.721871044747745
Pd 10.824407918486301 9.571385477674799 12.448206485515607
Pd 10.328120986934143 11.996169558296033 11.363828902410823
Pd 11.651537995237238 13.487515190477975 9.305104639408702
Pd 12.40969442299252 10.82058257874391 10.138601436785695
Pd 14.128264021153962 8.731512178691382 10.649125704188231
Pd 9.15305091609001 14.128189296498437 10.198591030647064
Pd 8.791926020075595 8.323988403503717 14.149831868582625
Pd 8.125563766080129 10.093009417040884 12.22932906362287
Pd 14.439394167139906 10.069735435859902 8.350408607209499
Pd 10.843699904519086 6.819190724908264 13.370703120202188
Pd 11.702613498420652 7.576240976798861 10.957592663730635
Pd 7.722884896599224 11.796468846618096 10.242378494903596
Pd 12.093996027838399 11.292040425436364 7.583459423826879
Pd 9.970630811375008 9.78654562582123 9.919881573521453
Pd 9.67916842827141 12.052403246511592 8.467500278967634
Pd 9.005756772971386 7.583426809968945 11.558818975884192
Pd 12.241259480160245 8.577848394990855 8.566450415008596
Pd 7.511981857811578 9.018056921282408 9.874621794028497
Pd 9.887327357075067 7.310763767101848 9.024581441457725
Pd 10.03937558379037 9.587670880180244 7.306620034926529
Pd 7.5666173765658735 10.650821781507297 7.7818473157824055
Pd 7.8801309820581045 8.029400249445398 7.470134244205865
