48
Energy = -207.49176232 eV
Pd 15.53619965905032 8.434084693020973 14.13170910950328
Pd 14.683158271170706 10.12735923636666 15.980461251928201
Pd 15.436304326881471 11.159671622712027 13.505361522380639
Pd 14.962314082958503 9.275531956813937 11.662288663554365
Pd 13.09010882080079 7.935674983190004 15.477964386686846
Pd 13.45841817491089 7.32975613892626 12.843672246184349
Pd 15.330064997709965 11.863581009311561 10.86606458747311
Pd 13.17801962400992 9.86177752386873 13.661827085336478
Pd 13.091275837739829 12.081343952981445 15.192434599826354
Pd 12.070278826403989 10.237162729661437 16.71100306379938
Pd 13.76941686814289 13.13375447139629 12.91054858121749
Pd 11.167175738910164 6.713627118490671 13.924801844297413
Pd 12.761287289582864 11.594323466284235 10.967818712125146
Pd 13.9638215032858 7.229273655976301 10.266494964759284
Pd 13.942731833473482 9.708839375584047 9.28732517887347
Pd 10.764999958266342 9.238382746154542 14.714978229766098
Pd 13.672835305008618 14.159177680027051 10.448033812056796
Pd 11.403273376252844 6.591765484343331 11.150719929030783
Pd 13.899273183775911 12.198825658654147 8.53582913606209
Pd 12.026204349088703 9.137520428994648 11.272152993350534
Pd 11.429472106695338 13.950156688112623 14.345429328412003
Pd 11.313716605498362 11.485725759277784 13.209481988700809
Pd 11.099130648935471 13.506363472998919 11.484906966872098
Pd 12.723498323835074 15.538555410984255 12.58054601398183
Pd 11.733176689129593 13.722496880761234 8.709928496586098
Pd 11.984576859327408 7.922251030309166 8.683518207983854
Pd 9.751979716574013 8.352862898010008 12.47882152027695
Pd 10.104187957539867 11.817152635634137 15.490907575491079
Pd 11.364776369893486 10.62728419268619 8.9655479433615
Pd 11.275336559172386 15.824068740732956 10.325768584292867
Pd 9.844443738435263 11.018325960155126 11.127749461258546
Pd 8.629838882838548 10.53958202395838 13.584722466243619
Pd 8.636134647756343 14.581864553491561 11.040956672273262
Pd 9.689438717816872 8.351168837680586 9.855358773488941
Pd 10.085403611615517 15.713261155707542 12.846672347332088
Pd 11.832663009943232 11.847459903162049 6.773008389080598
Pd 9.048026212647066 13.12260014152792 13.211615550597237
Pd 10.08470667408755 9.20754384616305 7.24466796930717
Pd 7.6304469194764355 9.429383207787948 11.345216209969719
Pd 9.341160413564772 15.446812144746032 8.592534945904202
Pd 9.282167817856601 12.845823082689355 9.057543698874172
Pd 10.38026304258003 14.05554110363581 6.509124336312047
Pd 6.79683761935998 14.419898677332153 9.269820780881629
Pd 8.327598241776464 10.332834664959979 8.94731838579451
Pd 7.395970965164416 12.153881908327813 10.88183369713975
Pd 9.10297862534156 11.659601246372802 6.720497662624003
Pd 7.79601320908406 14.104856065439204 6.815491119976178
Pd 6.667542791516154 12.083896894734163 8.082400498106223
