45
Energy = -193.93676808 eV
Pd 10.195072085019635 11.150238729407329 7.458659528490001
Pd 9.682436551558041 10.121700129613806 10.403086844830625
Pd 11.65756462962923 11.210177064975046 15.154587174189507
Pd 7.970895007901126 9.98442840764881 8.496089658078482
Pd 15.267649870100483 12.217494645262974 8.187574463245964
Pd 15.441891302746917 13.388545913340094 10.655014169296091
Pd 9.109373870189241 14.759179966263405 9.856865227208456
Pd 10.177487600535551 11.43716832967679 12.90012780558159
Pd 11.374012910859683 7.648984518654481 10.120021544482704
Pd 14.366632724823807 9.71999277927074 7.782104597403084
Pd 10.870624113088436 12.394977957250957 10.138113349102564
Pd 8.417109570851416 12.673765127430318 8.471500316723922
Pd 8.25905994019207 12.472835586128348 11.098485650422138
Pd 12.041926506466101 10.062273743243345 9.050147454658147
Pd 12.732506038647138 11.925522589117396 7.312703378225683
Pd 12.916611985866266 7.170248209868178 12.22439555439712
Pd 15.115312708798577 11.871164565720543 12.829911109132462
Pd 11.683729725268373 15.112715392589065 10.471974461511719
Pd 10.665704820834188 13.670188909345516 14.702115861372796
Pd 12.218366105443275 8.912568898357012 14.08091121235427
Pd 12.723708036754456 7.5606501654041045 7.852750406527355
Pd 14.461654453817882 9.35213955024587 12.53719297943609
Pd 10.08117382428443 8.452269882991645 7.943256073021089
Pd 8.166137297436878 9.462889011032482 12.485838005247688
Pd 7.23450670695638 10.521321566095901 14.70252072804802
Pd 6.497050111294201 9.1709011514958 10.52694781329777
Pd 14.170233961386865 10.532425778428227 14.919506148622645
Pd 6.284704708616629 11.276761561372092 12.302779461116792
Pd 10.89097113927703 13.86369182379578 7.966203185082804
Pd 6.220209751671091 11.65997499320463 9.614245566126348
Pd 10.01456590898893 14.088095799747467 12.23800467961418
Pd 13.26255794513192 13.51808775495499 9.280618247879012
Pd 12.277157476579655 15.1820901442547 13.109025820174056
Pd 13.321022671134335 13.087685687509946 14.511738101561182
Pd 8.12808634952351 12.879047184820436 13.732484511491295
Pd 9.230774554015225 11.78967900938344 15.915784522813869
Pd 14.280463486532328 11.020891269033928 10.333886748714942
Pd 12.743007268741328 12.79146174155541 11.947900293263858
Pd 13.972288077621345 8.365056532343571 10.105838918256655
Pd 10.323594644050518 8.003638679672484 12.4696065740995
Pd 8.722874518981815 7.69529709524461 10.267474031582497
Pd 12.059170300224743 10.046414115204888 11.689315522264426
Pd 11.986396458335912 9.57581021903427 6.287347693159448
Pd 9.675474625290759 9.411528717569263 14.682506148637655
Pd 14.842015606459073 14.521787054367994 12.91660641118119
