45
Energy = -192.70571358 eV
Pd 11.261381384391568 8.035101841198408 12.273777397781929
Pd 14.051362353325333 8.345391063788764 8.832093262327627
Pd 11.52745274083128 8.50698874969518 9.644603210898554
Pd 13.815917218755738 8.351276870453994 11.567682813207133
Pd 8.742189136164567 7.451057743970725 12.821930110615975
Pd 15.150056490683818 10.58020541789994 7.456819680930223
Pd 9.272256496090856 9.151212304027107 10.844962192683257
Pd 12.775925429704603 10.634669468178549 8.505488035684035
Pd 12.691694554844451 9.565239061325476 13.833323809335111
Pd 10.299326288050136 10.897925125753986 9.259188778701947
Pd 15.148365807687982 10.35011392795994 10.106324217541054
Pd 12.460051108156742 10.525440387906231 11.166577858781125
Pd 7.7516641414492895 9.853566864753345 12.890895965150152
Pd 14.864020011287007 10.549615276033313 12.735308511442096
Pd 10.031646733560708 9.005578759192373 14.553943340381643
Pd 13.846592583130438 12.971700774919807 7.974800037964645
Pd 8.417750950057856 11.702974414170091 10.908238485237582
Pd 16.246939306824988 12.516764465629368 8.84298455949616
Pd 11.294376704611093 12.61004063279019 7.494945239249805
Pd 10.34238530418877 10.837643636358827 12.757177873773642
Pd 9.495797899842188 13.517797021549796 9.19599173206283
Pd 13.991319559014858 12.705406431360315 10.78269918897494
Pd 16.573089827916537 12.169484471919617 11.479359149282196
Pd 15.793613787308246 12.721853794112858 13.88098303772646
Pd 14.04895286893093 11.266938820286342 15.335725397038546
Pd 8.596441407752087 11.334308989846942 14.901946168903137
Pd 6.787621150115098 12.326707603027769 12.864979830430652
Pd 17.299568034750767 14.449124741764791 10.188492117244444
Pd 11.298716237359818 11.227417121818336 15.329799939847732
Pd 12.093494692117595 14.439914272019378 9.291974574861479
Pd 14.748843383739885 14.962895360138688 9.58268592517778
Pd 7.761106430080709 14.25690764183277 11.08119192779887
Pd 9.253879328490662 13.377733858147774 13.06619726699476
Pd 12.840745957740106 12.442948732716346 13.276368802836961
Pd 15.58927990496766 14.678591516568495 12.121566982432858
Pd 11.184833996535453 12.77994110266003 11.169723360979821
Pd 15.102278774804555 13.5345911120995 16.253459492739786
Pd 12.965816870275482 15.062773351685122 11.708278612722554
Pd 7.412203872634889 13.729792254243465 14.964561314676152
Pd 12.514638887505827 13.516972834512005 15.987262235641902
Pd 9.984566507351861 13.509287534510248 15.675539756130945
Pd 10.31053070236337 15.241791368372782 11.272079926055948
Pd 13.993680141312469 14.7688043093979 14.144988611772416
Pd 11.359423449085986 14.702341152383935 13.758568995535173
Pd 8.175936036775896 14.00090226959078 17.38224472351828
