46
Energy = -197.84890192 eV
Pd 12.03849733676968 9.542881898399349 5.871768895218157
Pd 6.932447946436148 13.324371299455763 10.872536095929728
Pd 5.444569717710041 9.05995536564058 10.091758568568322
Pd 6.551356328383773 6.632345343923937 10.572384146360871
Pd 8.796275332967898 6.276962810515544 12.03963479212722
Pd 11.81282785885956 9.33845551734492 14.25456197527258
Pd 4.753199084413231 11.684299172781268 9.584009258251237
Pd 10.118918082623093 11.584704483543328 13.786615434214257
Pd 11.421326139813377 6.840848719744293 5.721428494093858
Pd 11.184414993882067 5.874960942221364 8.25188988071616
Pd 13.367566938293956 8.952497492453677 11.97878334059635
Pd 10.108232027594712 7.62297217067584 10.23419440641928
Pd 8.636949348775588 10.209317067229664 7.147948915220851
Pd 12.588444699192731 11.492937668058863 12.70990492578532
Pd 13.659702441926205 10.457515143836583 7.766400570368162
Pd 8.868120250058885 6.6322958049521255 6.85825486303086
Pd 7.697951978703446 10.282434353365721 13.894231337830986
Pd 10.93195279469065 5.0526139015278355 10.821085760719788
Pd 7.565847415320043 12.906651541353014 13.44739156568245
Pd 12.809242091932795 6.896855320636156 10.197652737360306
Pd 10.229222032540394 11.3130585054331 5.165746938584579
Pd 7.766988024183356 8.82013330474758 11.505896502116405
Pd 11.383747690595591 12.066101024388683 10.419804586104487
Pd 9.691206595133062 13.64392678957815 11.828399098410356
Pd 13.92866767707429 11.19244203327418 10.391429774887706
Pd 10.529563630306058 8.479029855338446 7.691109787151523
Pd 6.544612527109064 13.333080842815674 8.262634505455889
Pd 9.137648368015052 12.878354401493384 9.208824240764999
Pd 12.127230765025681 9.455162047575822 9.608476560256497
Pd 14.759126298120579 8.704380212305566 9.633118562835095
Pd 8.516568138841278 12.72336492356158 6.627208907604269
Pd 8.623655109255928 11.325649238076055 11.601243442395651
Pd 8.69725900212765 5.596930036598344 9.315504890479398
Pd 7.604237041292791 10.727089190174782 4.760486994723681
Pd 9.502012147144345 8.659922975898851 5.070569817430792
Pd 7.683803574103468 8.165234092676023 8.761734336010585
Pd 13.164023032789894 7.733272408118091 7.629727407601906
Pd 9.592944050861792 10.112796800044729 9.558999975701754
Pd 11.100665326831043 11.480277623341756 7.744789237209292
Pd 7.183608492379019 10.92397686611777 9.36186893890907
Pd 5.949423271330176 10.979187042017768 11.944250795234021
Pd 9.356069292184028 8.295962127139271 13.664309278781385
Pd 11.464189928073557 7.07390695378372 12.56998007724111
Pd 10.706751518667483 9.708832022950125 11.91499945861296
Pd 6.954205290869405 8.4811950147376 6.183858296927242
Pd 6.040868211665832 10.986997495020676 6.99873146967109
