42
Energy = -181.12808851 eV
Pd 11.864535311439724 15.265228373472464 10.862932971467929
Pd 14.562759011986909 13.280629559493585 9.197348987206567
Pd 14.152442865024979 14.215369113767139 11.631356221604687
Pd 9.69256422784325 14.475877194047568 9.447464276015685
Pd 12.121437646914337 14.50434054461804 13.432533529160528
Pd 12.251687748647829 14.376624368512243 8.407020020072475
Pd 9.733604406553752 14.253135874559826 12.056851475346733
Pd 9.770686715050491 13.659719205038398 14.623512653708717
Pd 15.265597840492 11.766440981512272 11.380442186985658
Pd 12.279126384363975 12.6367259127258 10.435286326765315
Pd 14.244932905476396 10.638190476313182 9.24296224173281
Pd 10.494730811105722 12.489773452850963 7.874065341624787
Pd 9.66342974319724 11.870685588267902 10.426776472410099
Pd 12.049394697785639 12.525493353618495 15.41215566343559
Pd 7.485105107301658 13.455674845937635 10.812083894102118
Pd 13.015204772499905 12.005111299871833 7.36736877353278
Pd 8.493828239879702 11.996391347898626 12.901442003745352
Pd 13.706891955643247 12.274339134550702 13.399286585642336
Pd 11.179800901138128 12.104586070677168 12.768560157016612
Pd 7.906111029174455 12.788013792508139 8.257402722128942
Pd 11.503489417644081 10.315705590331966 9.268507743446397
Pd 11.061725186072545 10.371815978418034 6.351335070435338
Pd 13.30665347308141 9.31667223046787 7.172768272077721
Pd 7.309459936377603 10.791254529354479 9.932938653385909
Pd 12.872570589205331 10.147266848935324 11.557881037760714
Pd 12.274760110237137 10.04611976891876 14.232228131654928
Pd 9.900520108446656 10.965057209789027 14.984841604796005
Pd 15.575234729166452 9.107643900612697 10.919238842704143
Pd 8.971108529560578 10.329890234021555 7.940592659473519
Pd 7.218220729562798 10.46237473375949 14.552500084422658
Pd 10.198949128313627 9.787174136360923 12.066598829276387
Pd 13.53635740907807 8.068327638132727 9.45861628430829
Pd 6.071736218655438 11.496688896940402 12.176243169217663
Pd 10.937107553052606 8.14893514660351 8.060135313739849
Pd 14.806200651218639 9.858909806257776 13.392409325314713
Pd 11.325738378860612 7.721189369120175 10.709181647744117
Pd 11.38532588189941 7.741660107172448 13.427438295412777
Pd 8.985016380083191 8.638424305779218 9.892473877043399
Pd 13.664425104197875 7.700775294961189 12.118315953896607
Pd 9.077874863896698 8.602945472157064 14.281481245336348
Pd 7.569345533369106 9.299810138841744 12.11289042196277
Pd 9.114577738793711 7.0992781451143925 12.054801005176628
