40
Energy = -169.74888157 eV
Pd 15.673416786583948 10.018845239982081 11.531853995701677
Pd 13.079560781183638 11.202137767462188 7.600432534719072
Pd 14.50180497968219 11.84885776087107 9.704804681229486
Pd 7.150047965083782 13.304080434423753 12.075812294239514
Pd 7.69402333785413 9.254838036249886 13.61007476849961
Pd 12.30284961571385 6.68689034596585 13.13972985485516
Pd 8.637770052309723 15.188814688408307 11.032431710007417
Pd 13.214876298747573 13.331538991501516 13.887108456033317
Pd 15.340617950570978 12.843482113283512 12.062704060323178
Pd 10.621969947728093 16.83024942906332 11.007470707179227
Pd 12.58484322925955 13.161775389616725 10.941880374236106
Pd 9.44505096280199 7.786640010404175 8.830995040076935
Pd 8.935136238317183 10.369512031419214 9.366740367260066
Pd 9.438385987982894 12.534301857330826 11.049682893172998
Pd 8.516247518094673 11.772211222665877 13.716736454016141
Pd 13.439236475077696 10.962302864638266 12.22704242507151
Pd 11.596318788078602 14.980065610525134 12.556488200579098
Pd 9.57505879468453 10.041683981871897 11.914703235210734
Pd 8.4330695951063 13.22918968280581 8.80429170669887
Pd 14.108207877946626 9.377970714047752 9.252359058561844
Pd 11.752700296452248 10.230176962766189 10.312368632323652
Pd 11.113390603163303 9.523704187248788 7.898196874944832
Pd 11.131000380725814 11.973899960777503 12.887754141544876
Pd 13.45448148636508 8.181720718813402 11.381970448758192
Pd 10.857765144212543 7.679145910642995 11.016422520442264
Pd 10.682118352403311 14.564528023160022 9.53021691360871
Pd 10.830310487337538 12.130722383416739 8.603439568384125
Pd 8.201391245797566 8.042005125930903 11.136010284659005
Pd 9.742776134002636 7.639200392720098 13.566394690393874
Pd 10.653169407572184 12.747024182924168 15.302174222159275
Pd 15.225902985659292 11.270755511277763 14.148823228982213
Pd 12.901157560823522 15.888431019773 10.111139322508663
Pd 12.983770334743683 13.779487276070304 8.347759274576935
Pd 11.778168621178658 9.246940803598308 13.174855711465675
Pd 9.318622236303357 14.223999313065617 13.372187553825068
Pd 15.107907408102767 14.413474623244728 9.959460084773939
Pd 10.07478456720644 10.06180297132395 14.967001747890032
Pd 14.275778647765659 8.793151454858865 13.899145386100711
Pd 14.210170065454276 15.251883994435035 12.330755875300921
Pd 12.698877355423086 10.915293514914831 15.023317203185215
