45
Energy = -193.69315539 eV
Pd 8.843915624074466 15.102520107648989 13.181699183821895
Pd 13.463630003296146 12.471171504918427 13.643636186613294
Pd 10.498058573085915 16.52560980814111 14.705235413451092
Pd 15.002725350092248 9.386669399593078 8.109405633947318
Pd 9.608063110028084 14.020556058941658 15.4853206537689
Pd 10.751341896245673 13.65716011631195 12.166337164179875
Pd 13.435131533724693 16.775123567689693 10.832610160301634
Pd 8.39197420607583 12.416864441982437 13.697638038085834
Pd 13.992258525734565 8.106762065443569 14.435778706932794
Pd 9.886060649676319 11.29165916101056 11.305650736956236
Pd 14.13422177344158 14.332217538280572 9.592144727983536
Pd 12.060928611423266 10.310720640419904 12.655197245455149
Pd 14.245814227876261 7.461387831870913 9.825130935636038
Pd 9.772674275039826 13.381235188233068 9.510874615287955
Pd 10.171558866313106 11.075767883048414 8.432570063808779
Pd 11.90504551529828 9.579572049366458 10.011181481951324
Pd 14.455761812691234 9.963472929221442 10.663688765065759
Pd 12.057711042568682 14.47817960623164 14.45896718484368
Pd 12.104195065574828 12.98186318200729 8.285048566456295
Pd 11.637349160513821 15.12776339654531 9.855918336223636
Pd 12.429297542800514 12.167846389206941 10.770036804884045
Pd 11.348507959216649 8.346758779893166 14.233007721680117
Pd 14.789318534180762 10.311701864790773 13.212622529384817
Pd 15.040301154286212 12.45965076978705 11.424950849602123
Pd 9.237616192930682 9.861940027441522 13.577887876753438
Pd 11.590934030958756 6.924569125606809 9.784869831894738
Pd 7.848797881391057 13.446092191162768 11.331039753931387
Pd 14.49111178807679 11.856528007943352 8.810305150069082
Pd 10.418686214458617 8.496997959399685 7.991839350203058
Pd 11.118737357399425 16.360532073074143 12.158145942262099
Pd 10.285021638150138 8.156467542728501 11.751173367478657
Pd 9.119729559934894 15.71578094384444 10.587734864863062
Pd 12.875625475062838 7.798969055610284 12.052216266449054
Pd 13.429332809723368 14.542905892011909 12.135720706788662
Pd 7.6882280318654255 8.307074626360828 12.100571213372799
Pd 8.791984783747537 9.287430111874468 9.91523051771813
Pd 12.569988525741364 10.374320691889437 7.626078538480348
Pd 12.948516959549128 10.422734440243083 15.278489913553875
Pd 10.401244214118433 10.097497622844067 15.973134004159064
Pd 7.732691622087645 11.654875742875515 9.320926418128428
Pd 10.890017801920779 12.014394287937524 14.272556511126858
Pd 15.510911541888612 7.97483746019615 12.12810313990886
Pd 7.284006306553363 10.869117131707293 11.839386590771223
Pd 13.166699742840322 16.747554937596945 13.650730666446517
Pd 12.934589478467283 7.7174628171920885 7.579524639442126
