44
Energy = -189.33108641 eV
Pd 9.421346916823142 12.971219885756794 13.160923405616234
Pd 10.93948038897725 16.120069702478684 10.507827586524899
Pd 6.33687384286945 10.849581863144346 10.993262027957721
Pd 8.795196368053942 14.866404852015586 11.38787784192118
Pd 9.717446979606116 14.388048633548305 8.856257576521608
Pd 7.977052356586527 10.812082127650955 13.06093402407723
Pd 10.905308079338148 15.179918385255599 13.055447192310002
Pd 13.067722935261518 14.95306934649274 11.520097567798052
Pd 6.887619343515196 13.158221568486272 12.303292283647677
Pd 11.23511796613436 13.316975973070484 14.97765052066324
Pd 8.459306370659835 12.344096799329071 10.342539340360407
Pd 7.654796898856298 10.236908138514329 8.737608607492378
Pd 11.271154308033287 12.257358560458965 8.066953223081441
Pd 12.441680488469862 14.469197205268143 8.964432758171128
Pd 9.961912506296251 10.904392003806798 14.900352813868931
Pd 10.34375192757499 10.512447388550148 9.890498998516733
Pd 10.98868180121119 13.209359739495529 10.909290302536823
Pd 13.3847995357653 13.414468169855361 16.476489528037913
Pd 8.413238128129585 9.188316437952755 11.018138746185647
Pd 9.321961610861175 8.580315870097165 13.434415551501425
Pd 8.71629174363016 12.310801563162071 7.622764941578208
Pd 12.732074546176753 12.598495301221613 12.88422510974702
Pd 13.382875247262382 14.830903655070761 14.204855471617945
Pd 8.738602420859028 7.812368625178609 8.738754507620342
Pd 10.820236803577918 10.780892280372173 12.423930445483322
Pd 10.034328763642153 9.8821748828898 7.423729610522329
Pd 12.879076541884563 11.443766062027814 10.443824612795744
Pd 13.836374597976764 12.416280185705807 7.777725620814922
Pd 14.681842817581467 13.41180563070289 10.052966323587746
Pd 12.712593066384871 11.15327098274417 15.237960967530254
Pd 9.580872143910444 6.858138285861011 11.108673391538117
Pd 11.707938585658075 8.800602911322162 14.529236591434373
Pd 15.39315997418251 14.304472313786981 12.507071886092376
Pd 12.70854547410988 9.997974474017672 8.087979453846016
Pd 14.89046885054675 12.53797650800505 14.49479134441639
Pd 11.579056546309522 8.307877892318569 11.939263517887102
Pd 15.334382542208916 11.734082497306154 11.96499315835955
Pd 14.152964155105712 9.016461005046034 15.417359690615884
Pd 11.274652225123615 8.12331871906977 9.331847067333902
Pd 15.169204716850428 10.756017589248614 9.36418848389703
Pd 13.547083195385046 9.840856541111375 12.852151663790917
Pd 13.594756857111461 8.763965042197494 10.331396369874557
Pd 15.864447716472966 9.233759872899501 11.51736647505016
Pd 15.99294366362304 10.20050647610314 14.027875346373072
