42
Energy = -179.70544196 eV
Pd 8.38057854656069 7.296995127884811 10.812381229326794
Pd 8.677524913790117 7.682760808302898 13.4745543047166
Pd 10.863206873720708 6.941613956484875 11.981140916062113
Pd 9.182917370018556 8.60693928933945 15.980284969950386
Pd 7.193843714458145 9.74334608811064 14.561946156272684
Pd 10.520442591966567 7.42424024395902 9.33787479985988
Pd 7.5309447513011785 9.578808473144555 11.925228658226782
Pd 11.122269057236135 7.486662364548106 14.619068829859328
Pd 10.217087924473457 9.383653063320539 11.23023356231254
Pd 8.547214490412063 9.430705886791394 9.13396951235505
Pd 11.530859204071056 10.090848073671285 15.559831197432118
Pd 8.944641480528448 11.273374746306203 15.942805113484518
Pd 9.79985175526897 10.04007526596414 13.629661062207969
Pd 12.77279671770327 8.30015126917621 10.604975820393836
Pd 8.111226574567569 12.07217995596857 13.440213977659926
Pd 12.348570450897462 9.138635780629441 13.091015181781795
Pd 12.77041665298412 7.838198151052923 7.960295077567475
Pd 8.759424445038933 11.633647438516414 10.959007883111019
Pd 10.373316598611305 8.72764401114316 6.960441238539932
Pd 11.577933655495896 11.664469193293442 11.855818086169993
Pd 9.466331421146268 11.134695776641104 7.301977967599431
Pd 7.418269550178893 11.843873819947675 8.702574700788878
Pd 10.649334195760785 12.451002874006877 14.396859773936315
Pd 11.38474428597471 10.138594363693807 9.039039368606586
Pd 8.036303272309564 14.017117435122813 10.142654279869081
Pd 14.058073820370858 10.412626932174602 11.614552626207761
Pd 12.634777454149233 10.229441680128451 6.7409299965133505
Pd 9.9430219487614 13.838553762447486 12.084085852382536
Pd 10.530300503059518 12.691232750723623 9.441020550094205
Pd 11.543131218068527 12.570883247697429 6.879661090722078
Pd 14.227308373338392 9.8376638312612 8.927943155914642
Pd 9.085303762031483 13.767428971719147 7.585574100917837
Pd 12.371195282082576 14.07702422078443 13.43369415475684
Pd 13.066133673872287 12.10160318822347 9.669396570359526
Pd 13.211654055910262 11.54441344752583 13.986693585969316
Pd 10.26540476699835 15.340231513474727 9.700638146917473
Pd 14.183053148206847 12.428793238987 7.416435614627988
Pd 12.39968042453674 14.563088699072177 8.280867354862842
Pd 12.370779985575707 14.385340174986089 10.889668799089941
Pd 15.701369285231827 11.775795635667318 9.942805111366827
Pd 14.359198980268776 13.02211297988599 12.001526331416535
Pd 14.76906889217473 14.241278865038678 9.548729580962615
