46
Energy = -199.25269726 eV
Pd 14.958435798749443 7.445666577269004 10.363136269881048
Pd 12.504135640002623 7.256338607971151 9.2557428273539
Pd 14.118712763455758 9.317958177859534 8.59878950314194
Pd 13.007365626358482 6.330790931159314 11.737826572050286
Pd 10.55912854267594 7.247784243392884 11.011738760797032
Pd 15.323029841327745 9.924318060076224 10.975384857073688
Pd 14.365241918789257 8.36171607215629 13.057705413819255
Pd 12.176774129421966 8.542364514352109 6.956331144054589
Pd 12.769850924107223 9.18131720200462 11.19839087814479
Pd 10.004783300844965 8.098161191479207 8.555647467097428
Pd 9.007276934836836 7.594777890608532 13.088449727407005
Pd 13.933742086565235 11.750757381256228 9.345903426831656
Pd 10.245574813006172 9.914612617424998 11.568348274734548
Pd 11.663771624952158 7.892416329800594 13.382927716882728
Pd 15.203379180834597 10.998439215798838 13.540876719224276
Pd 8.172985418674727 8.456576184404929 10.5873831943028
Pd 13.340005166118281 11.744109631370971 11.922019451172657
Pd 16.037047530238347 12.366352235316775 11.079724150334842
Pd 10.03700690416739 10.082192048702737 6.701139154107786
Pd 12.581309152221362 11.283238605107762 7.0582772689698565
Pd 11.50663239525508 10.213672183876305 9.184106495201085
Pd 12.690641615946198 10.180616771737858 14.160234373159366
Pd 15.034856431105819 13.768173226702118 13.074130301822642
Pd 14.124572082712698 14.093829219207093 10.499184708515752
Pd 13.146219369644811 12.757812315009785 14.603290918742749
Pd 10.24408579035194 12.406155958741394 7.879162510813691
Pd 8.849055110734502 10.52376993258256 9.11100681400642
Pd 10.02095941270009 9.681503294693622 14.375351461965174
Pd 11.333275170629053 12.646250508746583 10.421156963653434
Pd 10.931087356868437 11.99773806171669 13.003378211368808
Pd 12.502566281976911 13.824039001824222 8.3303431465995
Pd 7.86834275884382 9.950693636056894 12.813175466118054
Pd 12.07047465370903 15.671921264761194 10.304939298959699
Pd 10.977570710623903 11.75552296077305 15.727624626013574
Pd 6.66201858585867 10.827476024769155 10.580671602749588
Pd 12.475868182311876 14.333238829705797 12.574406658100113
Pd 9.992687029882275 14.729811125890476 9.032895072752584
Pd 8.747481038487889 12.269328052534966 11.420797638128052
Pd 7.9185986092083915 13.015775185237517 9.0533563525006
Pd 8.652036540541866 12.032369083107577 14.343027347861476
Pd 10.456417882241492 14.151218124665721 14.393812361620093
Pd 10.044116599179269 14.69556408463043 11.767207620922411
Pd 6.274300764233711 11.975247496600018 13.116278970334205
Pd 6.09213056537533 13.451921480201426 10.968463155403631
Pd 7.865539165143985 15.314678857035046 10.478839694814168
Pd 7.817829915045953 14.220276032803413 13.035478128482326
