47
Energy = -202.53098101 eV
Pd 10.619477982325602 12.005381130354342 6.697384082277626
Pd 13.32235807082962 12.142450307347262 6.822207181847123
Pd 12.267544148236114 9.867781224407226 6.019597318540006
Pd 13.643608319065171 14.794572408643711 9.856867145228884
Pd 9.872433055243675 9.481262821584059 7.1134756780736765
Pd 8.00596872224918 11.478354244787386 7.059408131474531
Pd 14.221700694615091 9.875545864651777 8.026220437009647
Pd 9.10419348928299 13.711423606228674 8.295653463088856
Pd 11.786923850616883 13.604024363053057 8.424497387794075
Pd 10.883657394642404 15.128980267584996 10.373065613890137
Pd 13.885134896020425 12.20632000271903 9.410505816003262
Pd 9.363251215850378 11.307372059808856 9.37948265734632
Pd 11.790217123383089 10.655767536774073 8.811498852950384
Pd 12.839377528702958 14.13218214386362 12.244819222050783
Pd 10.134242949951044 8.430567385590589 9.486250108835081
Pd 15.169741215450385 13.015347157209856 11.498280985251936
Pd 12.236725880011793 8.036999175336293 7.904565726490608
Pd 7.668945065026351 9.30513375292226 8.70355648291466
Pd 8.645007549061267 13.602148814894676 10.955406520758771
Pd 6.894420842388614 12.318048321085763 9.393943530211585
Pd 11.237238975753115 12.561434732534767 10.824168510129546
Pd 12.676582222040878 8.821897307921054 10.629409923739843
Pd 15.27551768668035 10.123394319661372 10.473748993872624
Pd 14.61659195161895 7.6382199009800065 9.446420203286113
Pd 9.574471066683953 5.903304606033627 9.815142603505633
Pd 15.825519435443086 10.896982660503225 13.027527316953666
Pd 10.335745269596485 14.355832810784857 12.891200434060035
Pd 14.2280637211621 12.848553805011802 14.025781390960296
Pd 13.24343323553139 11.094408718002073 11.91917409777538
Pd 7.79050689431656 14.442846723430241 13.360621493831287
Pd 8.13047131971799 7.857639866458779 11.105087167857041
Pd 6.397643956060544 12.481599043198388 12.093046914160622
Pd 7.587103760637883 10.354404624488522 11.12938682454105
Pd 12.192656652702285 6.311665911270605 9.86309051137382
Pd 10.524764817264211 10.160999309723339 11.514118185275338
Pd 11.585045615591392 12.129042153307253 13.658436190642266
Pd 10.617682516795838 7.207086866843972 11.860724651418877
Pd 14.544190641552278 8.568561082022805 12.524174698049555
Pd 8.947717984252126 11.777139711981897 12.970830667654257
Pd 13.671693487817995 10.319018189602412 14.565132149936455
Pd 6.808245358501516 12.479272119942028 14.78740034782102
Pd 12.001278558398395 8.80740325723472 13.282275253632653
Pd 9.5139888036659 13.106973607084692 15.170705130704604
Pd 6.752572209897989 10.086969065128875 13.562538417712052
Pd 9.235600742242188 8.972981994656696 13.464592481766607
Pd 11.063217387649527 10.227388929707693 15.267916291438327
Pd 8.522943577587846 10.596575620346076 15.497875774394924
