41
Energy = -175.70169994 eV
Pd 15.100908038828118 8.346229136347514 10.45970100204095
Pd 15.650779486843586 10.781081800220665 9.447956439252621
Pd 13.918948439295738 9.077092525689721 8.156855786363849
Pd 15.186326632630541 10.525587517534063 12.077332935171125
Pd 13.49748819979429 8.503803753707654 12.637953065265222
Pd 12.778379688808895 10.496658062946638 6.24797159697978
Pd 12.488572732480964 7.69427129596408 10.17961102909671
Pd 13.660379659565294 12.010271487477283 8.258028580286457
Pd 14.192207742142728 12.710373022749911 10.87639447603203
Pd 11.430948718940071 7.985091535002556 7.642773922313374
Pd 13.03118646840145 10.240668300642277 10.368513270043167
Pd 14.271994620328565 10.24476820221891 14.574638758901482
Pd 14.531357201110259 12.69760065594301 13.530623278810973
Pd 11.316968828470822 10.381967092187972 8.472752497170877
Pd 10.156540432354298 10.38760530993499 6.035890431546232
Pd 10.942580327063661 8.615109790535332 12.230321768057218
Pd 11.258521866001344 12.683713586330244 7.192762453209566
Pd 11.146346703746927 15.290569831496796 10.731281984798233
Pd 12.386387532787094 11.16668761042338 12.589819335120664
Pd 12.240129275251345 13.851622053389354 12.724323133773078
Pd 11.755814493086762 12.761695169724737 9.976851390473664
Pd 8.725627006279472 8.892455712608985 7.676371618913819
Pd 12.37199939181314 12.144510171308351 15.027886422451191
Pd 9.916390089170177 15.394183634052052 13.1579551242912
Pd 8.905511830497787 11.518201581413132 8.14630930136363
Pd 11.804804799294807 9.368809645293155 14.655713973887345
Pd 8.34686268435056 8.562423835604923 12.0407320518518
Pd 9.933003520781694 10.71997595981033 10.67011409741939
Pd 9.676801000892613 13.951587141642607 8.91627604817177
Pd 9.898375867233053 8.20136312111276 9.865775597081488
Pd 9.893557566556968 10.91095782791984 13.336042972144929
Pd 8.403876325764529 15.19336151030319 10.918366982155879
Pd 9.890688651098907 13.065517962828965 11.777367686032735
Pd 9.989719165727792 13.235032093633833 14.60377079811889
Pd 7.516700931874019 9.916252853092109 9.856852374317855
Pd 7.747185009478528 12.631730274466678 10.259001329531234
Pd 10.147379170121738 10.98606498131747 16.041296797968492
Pd 7.448600018301555 10.986776751821774 12.31082284805
Pd 9.148959076315078 8.815218375499839 14.60192588423638
Pd 7.678874490257574 13.566192310373776 13.017833868226774
Pd 7.784154337735506 11.524020947311755 14.85979845074054
