43
Energy = -184.75824054 eV
Pd 14.877155395541388 12.978410839789374 13.253379683521963
Pd 14.693739657540478 13.522052318798199 10.654934000487033
Pd 14.833911209570728 11.028756185547369 11.435167300120739
Pd 13.947004932492801 10.554230862410055 14.019247417836475
Pd 12.73335683105779 14.420095556638612 12.39178688201234
Pd 12.5870976600955 12.842976702100119 14.59638813182791
Pd 13.833189303464415 11.58942724628861 8.925788231221322
Pd 12.398685797702028 11.807339384937785 12.007508816110784
Pd 12.206022657361425 13.504280167137942 9.878100572892098
Pd 14.052733134015181 9.0443034635443 9.9305268441077
Pd 14.909845550619856 8.605145526956559 12.518145408912064
Pd 11.408458241381117 10.5320999198453 14.421107355326992
Pd 10.298527352768623 13.011364089578759 13.135769060195463
Pd 11.456821336728916 12.081365964031539 7.756233781602206
Pd 10.377927278074376 14.895247275748433 11.243246723578203
Pd 12.514950550310175 9.521722047595302 7.614952788079448
Pd 11.597686776454701 10.420065626405542 9.842427006362918
Pd 13.277040320389803 6.669702539252391 11.679731331794265
Pd 12.281258172357797 9.104305566367541 11.963655379871199
Pd 9.52486472371525 12.992996079020129 6.280883907665816
Pd 9.987915775388666 14.276634214485359 8.60785138128016
Pd 12.5278749177522 8.013021290394622 14.234730816569929
Pd 10.072862662903798 8.297775479486837 10.425840905259516
Pd 10.20921877155133 10.291120529471874 6.195102853208402
Pd 9.212943913192541 10.290404070520953 8.603459083881027
Pd 12.195998366462836 7.305267287298876 9.352444662583205
Pd 9.783474745081664 12.285183119790553 10.39455792505988
Pd 9.909299676112699 10.348883618782532 12.19357602107476
Pd 7.631649831042417 11.163617963649685 6.121640913234478
Pd 7.91603194341785 14.099290840652317 10.540076476978768
Pd 10.757887764116484 6.762671936248663 12.41166012560867
Pd 8.95457767632721 11.271548249723429 14.698380508544599
Pd 7.879777543620045 12.576510767265953 8.322652768940435
Pd 7.829118923028511 12.143307035856475 12.41352162905023
Pd 10.27209802454654 8.011298693467998 7.718048186476939
Pd 9.733592880763618 8.533721123796514 14.06007925321256
Pd 7.95796463093237 8.605931043353333 6.620854867713502
Pd 7.804382377314548 7.792448714904107 9.169501426881471
Pd 7.6837151157865184 9.914732257151098 10.798276190856097
Pd 6.5294517744390275 10.112241354287194 8.351691357464906
Pd 6.199655377347817 12.019663338464836 10.263404203642517
Pd 8.150734315198306 7.491424179810636 11.975290085758367
Pd 7.347958534541513 9.621385478672467 13.408857716130697
