46
Energy = -199.08306037 eV
Pd 14.745850244805037 12.84265452271063 7.764035436738758
Pd 14.19277241124733 13.6854164835507 10.33062429413351
Pd 15.363855228160611 11.26603783772225 9.792172517770458
Pd 12.388526713279624 14.015172807064532 8.332607838169823
Pd 14.10792980261517 10.221118516467241 7.3416907548851915
Pd 15.180707888997903 8.573951291735957 9.095625623943624
Pd 12.223238760331196 15.516895915530204 10.533604847774471
Pd 13.958898747291647 11.804507098676002 12.099404655224681
Pd 12.5316490719197 12.185591392595727 6.393959296490951
Pd 14.894531999092354 9.367505168985664 11.578324548179644
Pd 11.465415874253091 12.8391736499005 10.863222629691604
Pd 12.632988303769933 14.100934741965885 12.823589192445693
Pd 12.924716997920406 7.81543296469786 7.765457252546545
Pd 12.801572269754374 11.421196872867126 9.246414281319028
Pd 14.508964438059207 10.07234592514009 14.032556118737796
Pd 11.385274576545575 9.991519897972967 7.3465345060679255
Pd 9.998891219215546 14.605907196168099 9.242287697011976
Pd 14.235844320238318 6.863537486495732 10.983488475223684
Pd 12.531077679798358 11.906264932213453 14.399748093468553
Pd 10.064374872097833 14.945172759123263 11.990892068669613
Pd 11.688327759756596 10.437718775155998 12.344207010724675
Pd 10.349028219886176 12.30602021996881 8.022208616363754
Pd 12.70343430755341 8.97580444635934 10.13330098910204
Pd 10.175217700207966 12.726192416499186 13.387753254129015
Pd 7.788676459727454 15.118286187326024 10.533829990393572
Pd 12.858128551358533 8.094764258395667 12.909041946746699
Pd 10.325515197894992 10.425360194578802 9.995975577167775
Pd 12.328762644945556 9.314116009706206 15.239338743906558
Pd 8.874893888630767 12.540782264412735 11.042363883031195
Pd 7.8450378426542615 12.929429639989905 8.67992673461115
Pd 11.997826132167047 6.2866771798644425 9.78340262620547
Pd 7.7089707593750045 14.022384640726411 12.990186208745447
Pd 8.680558008729237 10.18377967474256 7.9923503707617085
Pd 10.31912299248801 7.994386103068506 8.637206583083698
Pd 10.134053290621496 10.67783365888631 14.950179946394224
Pd 10.326799669766064 8.207422722020167 13.97448271101301
Pd 10.573105536967958 7.912179751080348 11.367185151706066
Pd 6.086778285924289 13.12198106801246 10.848643228130054
Pd 8.054504128519918 12.209793779933964 14.998624517653088
Pd 9.038276861003965 10.046928768629996 12.253542542035996
Pd 7.106761386512773 10.799275280716868 10.124479929412995
Pd 8.18016230692903 8.417591991041933 10.118370143688349
Pd 6.852461707493758 11.499101646280387 12.786081226044457
Pd 8.249735032138776 7.329120483675635 12.644769430378231
Pd 7.75415517354926 9.46183599432182 14.417925478136029
Pd 6.359746820222875 9.045636877399673 11.998290164680611
