45
Energy = -193.08528581 eV
Pd 14.682575253569446 16.1700121388891 10.93931481722682
Pd 12.992638015420182 16.284475611042016 8.895500330879939
Pd 15.144447082815574 13.721205498815277 11.791980193269058
Pd 14.696701382394673 14.09779702469463 9.133919961357385
Pd 12.0906262982686 16.877784682250105 11.338373462160284
Pd 14.691763925800762 13.283872889506325 14.423741300448233
Pd 13.38933349393504 15.282789938108197 13.167567213559398
Pd 15.780479934563438 10.929356205282586 15.280204800378309
Pd 15.593596294908249 11.301723463955321 12.662974040201451
Pd 14.637605810606656 9.122044124875062 13.674846405886656
Pd 15.213910707674893 11.621668549354624 10.093821097210345
Pd 12.314388785765969 13.871212895610173 8.113148893697446
Pd 12.611511526538251 14.214366260339295 10.807745917453872
Pd 13.237429667225483 11.532876516051346 15.787654680991691
Pd 10.791976299295374 14.918695586016439 12.549635739719392
Pd 13.822233953851034 9.626102184301471 11.220598902016206
Pd 14.078517156244137 9.049589896030266 16.21817483059075
Pd 13.966094636528599 11.759510060630193 7.775992108965888
Pd 13.042281109248865 12.119862798175976 12.678988775443731
Pd 10.428775573341724 15.403773913779492 9.690115262923403
Pd 11.894506611312535 13.533030375859097 14.55062890930529
Pd 11.714867767826737 9.743485205307366 17.158698289470678
Pd 7.7924942339943195 11.758718629563695 9.867819081655366
Pd 8.58273988743763 11.745236151002999 7.352640449547211
Pd 8.596933343961888 9.777537069368432 11.437229622240839
Pd 9.901966787050958 10.170853384074809 9.120141624564068
Pd 8.107611268878495 14.171246510573678 8.683664592058035
Pd 8.546053469773653 10.510443576064517 14.014375952720274
Pd 7.286092196699936 12.061657833291878 12.414285777232408
Pd 9.497531438197743 9.012187182196204 15.895226034629017
Pd 10.081108019365093 8.476389955813701 13.2958803369255
Pd 12.641339698647398 7.628388784796508 12.683683189186802
Pd 12.570659963641248 11.711587527394375 10.124003022802595
Pd 11.30685432216853 11.533450906970536 7.292282306976133
Pd 10.268405821195497 12.74135321977152 9.493443717390358
Pd 10.549628927819171 11.453484685167494 15.496764880493323
Pd 8.747294791209276 13.92569372700916 11.272240556761304
Pd 11.226800795730117 9.109882155658688 11.042717325632102
Pd 11.779123308660505 7.8007213710299075 15.31436559490062
Pd 12.560134459562548 9.54588455112673 8.730085886882389
Pd 10.47877469850823 11.516415097212557 12.041545020075011
Pd 10.049679821870805 13.930853659233188 6.922625413467413
Pd 9.35147377692195 13.11942167424308 13.805232846319479
Pd 12.119648817501037 10.034697201713682 13.95456022933261
Pd 14.115230128622622 6.772500592403225 14.765401869605089
