46
Energy = -198.69867915 eV
Pd 14.75237982919997 13.55155347690375 12.381108332107722
Pd 15.886137105045263 11.0916665779111 12.927550494950077
Pd 12.650754767696393 14.206120859770179 13.925624816327213
Pd 14.456868020719975 12.294666817158333 14.720413450813703
Pd 15.387636919187974 11.774708413365419 10.400566042304412
Pd 14.51233356128803 14.209827335259313 9.783562394825179
Pd 15.046849962682677 12.4245758963441 7.832236055291704
Pd 12.699685056719051 13.26176141871839 16.52781802929456
Pd 12.171857156182579 14.952120909723583 8.748760196526261
Pd 13.261780126772292 10.586214897704783 16.480256748824907
Pd 10.272621972347782 15.028956852604487 12.978501210231093
Pd 12.315662287325358 14.249703103288805 11.302501522763695
Pd 13.697860101044864 9.676802386669182 13.936984898318281
Pd 13.054608807066135 11.586087900092668 11.893385817007454
Pd 14.4509358073634 9.908216399364536 8.77348716257251
Pd 11.510663575163727 13.079503401640082 7.019349184794849
Pd 10.133901150087592 15.654621976536593 10.379065916357062
Pd 14.536833323998406 9.378311996898063 11.405527248874382
Pd 10.341549774710604 13.627311495506683 15.252112524749414
Pd 12.7878581217039 12.118594919793678 9.281287816698875
Pd 11.93577453179068 11.702753453819223 14.348645985410085
Pd 13.120993885769954 10.938872406492193 6.699504000412929
Pd 10.700411905084335 11.41904751742401 16.801970784341798
Pd 11.077250086439943 9.851385805493733 12.639054517122842
Pd 10.404035441124895 12.503901379668735 12.30450870376845
Pd 12.178775318148585 9.51494814491693 10.154340449423213
Pd 12.404028032637703 8.547598120000718 7.702935978970127
Pd 11.23552879358766 9.246038286982634 15.268202530315424
Pd 8.09373191878756 13.455460881149246 13.930145892289156
Pd 8.883635319921577 12.48829127103879 7.332107687996889
Pd 9.30389337094148 11.106860300807355 14.525512442000863
Pd 12.689654199504973 7.746462109901804 12.292426445603152
Pd 10.334333953911333 13.09130266901898 9.576333421082843
Pd 8.297809311940583 13.909394003473968 11.369067605415967
Pd 9.771650081784973 10.646646676150052 10.452502939281883
Pd 10.776907360179973 10.683109634539381 7.964498109854516
Pd 10.574748578889228 7.210178769290046 13.830060884976872
Pd 11.974065289462168 6.881933674349515 9.7887032459733
Pd 8.148142522927456 14.547739604138416 8.847718868006865
Pd 7.8551870872085345 11.315998510439583 12.271654475838
Pd 8.56497897386591 8.916451670546774 13.186703703548812
Pd 8.134673387114537 9.993274738010191 8.009138353640704
Pd 10.038712581720414 7.778165897952788 11.324721202261236
Pd 7.592262882801849 11.971769467921291 9.673013953247718
Pd 9.896892383330899 8.25010641970486 8.796012905791411
Pd 7.6910276189699 9.148596804611149 10.579325027246549
