44
Energy = -189.45587414 eV
Pd 10.255833345138623 8.09754238984445 4.908897304805762
Pd 8.962171551689767 12.530563474588972 6.054715142518213
Pd 10.981316130591813 6.079790638785301 6.426163347546134
Pd 7.671260997522204 7.4476188521846804 4.9107659404399975
Pd 8.34044925033821 10.042620735349951 4.926853100641656
Pd 12.691789807727702 8.447828394495327 6.111362336243426
Pd 10.595091826571807 10.215786827194895 6.4307646121987725
Pd 6.367850809902172 11.699123999750716 5.90352362292257
Pd 9.67907479736448 12.607424573902003 8.742256780078796
Pd 13.306610944100692 6.149577182829311 7.758897662981088
Pd 8.913244785426887 7.988991272867508 7.229864883522382
Pd 6.172227819936134 9.05745524689005 6.4622303318666745
Pd 7.136129115874289 13.094104037727213 8.125664056935989
Pd 11.531540058342099 12.652984220488 6.943244703166893
Pd 7.033596246055532 5.914866108572818 9.79888325771567
Pd 6.645417979315669 6.556969224510927 7.265799624536769
Pd 8.927153562225822 5.3638880435490295 7.925916931980329
Pd 8.182706580147432 10.501219887726869 7.541234216676871
Pd 13.943727519821467 8.465403971413371 8.946972625400244
Pd 5.519049965534379 10.850991957521751 8.397588204478565
Pd 11.245898538027953 5.361835186427409 9.271283675225156
Pd 11.403388323004956 7.937511322855555 8.25529911443594
Pd 6.899887670585877 8.56966864607324 9.108610398686439
Pd 12.673754888657044 10.50994194323896 7.985564158908595
Pd 10.177753725198157 9.9327475183304 9.35731761724781
Pd 9.13397945578216 4.262170567866357 10.399611990160885
Pd 7.774040905373912 11.125408010028528 9.936325872485343
Pd 12.043335777703435 12.434334512832523 9.706557105752498
Pd 5.674319497747902 12.698193795104611 10.44828513893875
Pd 9.282084059243585 7.3073793015971775 9.865365699681318
Pd 12.257359013961421 7.381075400568446 10.71254668663564
Pd 8.20804547102229 13.667741250928094 10.699370801771705
Pd 7.711134789364889 5.449693471909778 12.321494186882239
Pd 10.275624054149834 6.148051428789655 11.953570081027696
Pd 5.580021442907016 10.049739232653943 11.052221109622497
Pd 6.28631186903344 7.58148929040674 11.686467111791053
Pd 10.074677768281317 11.552060128276961 11.485504400173717
Pd 8.363240618660695 9.172134120427764 11.452706817102452
Pd 10.787167386454348 8.810976427111274 12.329679815336467
Pd 12.439042495394014 10.031358592480332 10.70744532701929
Pd 7.39948428246781 11.771722966997293 12.456390696003497
Pd 8.613929006529661 7.627843608960812 13.53089981611489
Pd 6.577590693069856 9.452230235282967 13.550003359954552
Pd 9.168431954117604 10.306688781025544 13.822627112751107
