40
Energy = -169.74234385 eV
Pd 11.717695334952035 16.80783248454028 12.776896481352587
Pd 14.09553686826302 11.306450267361463 16.068386567409643
Pd 12.511077054331572 14.29962930966363 13.0175437781839
Pd 10.724031738109606 15.282888487409021 14.755446785814001
Pd 14.2139305777688 12.49038777288135 13.780919049409402
Pd 12.341756993014137 13.285928145453738 15.485478937243172
Pd 8.305643875632372 14.390271976715004 14.218360084985424
Pd 12.053536638479834 15.33022137879404 10.617041741880943
Pd 14.080549891087534 9.636131382517892 13.821408842209719
Pd 9.814659272228214 15.090777408919832 12.128764867247812
Pd 16.0744874616695 11.299742114437324 12.556777935999765
Pd 13.844583807283058 12.934350730739842 11.08668227274504
Pd 11.81026270986093 10.644097057169175 15.050079474793945
Pd 11.06878745877285 12.908562639076724 11.095500670912218
Pd 9.450063664850342 10.123450251149944 14.072950455350096
Pd 8.335591060233654 12.86480756326489 12.00138818568222
Pd 12.385053539927409 11.090279453393848 12.48552326198131
Pd 10.340094100549127 12.651657563186152 13.784514686136239
Pd 7.542187819374044 11.883508940235172 14.32002299053534
Pd 14.039762806014828 14.684138228265573 9.073076408309653
Pd 9.886759727810784 10.600461900696414 11.519898796134708
Pd 14.073320685472678 12.151694439304553 8.428166122934575
Pd 15.83048863281305 8.75123635570604 12.0437396010341
Pd 9.129523116402066 14.002199046159731 9.67096725022122
Pd 8.859993645315415 8.088317011506401 12.47434692082217
Pd 13.331094435500985 8.567282096520355 11.335514425572796
Pd 11.517465148929833 8.596399366362244 13.343623639297563
Pd 7.409258335495299 11.695825687278859 9.872900944786014
Pd 12.148256287981017 10.580064292979909 9.878789927079842
Pd 14.868841781343964 10.563449919603277 10.387456969743448
Pd 11.71855781048945 13.38356665067642 8.62936913308457
Pd 7.292300933475947 10.28572564218458 12.209402065555034
Pd 9.776809545363534 11.51733624659292 8.89382910394396
Pd 14.027783816177593 9.530409479099479 8.1791367293526
Pd 8.325003986557405 9.124628124453217 9.951764293383874
Pd 10.80120738361704 8.185448789894872 10.776848679578945
Pd 11.877979204158532 11.068539039187552 7.2428571712954435
Pd 12.55571610512175 7.5416329134637445 8.972472013681502
Pd 10.372168521752693 9.024663907603951 8.266796315543804
Pd 12.254210058915776 8.549558060261884 6.489882059946902
