49
Energy = -211.94388936 eV
Pd 11.647222453330421 14.4062289541646 15.84261073824001
Pd 12.122101862452501 15.370823928605061 13.409884310583518
Pd 10.272845846468066 15.033463225370317 11.411154384358083
Pd 12.594367363734346 16.181820485765577 10.962859440526852
Pd 13.57967966970151 13.251794967921592 17.211755994490467
Pd 9.716128283700423 12.611499211446194 16.052579679187666
Pd 12.18489844140106 16.261160479227847 8.354000885577252
Pd 10.019446365475316 13.729899066784451 13.68607468914478
Pd 12.181677561358068 12.180730318580581 14.430543800394004
Pd 14.36577908545263 14.903555746657302 9.47818109457067
Pd 11.865535757630838 11.282980020173317 16.85917892191634
Pd 14.114435352254603 14.006544667541624 14.731515956005882
Pd 8.044916651636026 11.980500366358887 14.05780338400907
Pd 14.450251643761836 14.556300282046708 12.1491220414367
Pd 8.579495487044252 14.586186233864417 9.478627481181151
Pd 12.286020790931708 13.067572608763928 11.982471236613081
Pd 11.890039612566872 13.883714951642075 9.487750549798262
Pd 7.985499182615635 13.481685153777306 11.843621730268433
Pd 14.367218866794095 11.269381286885416 15.599991510650602
Pd 14.100907527155572 15.221645093103684 6.864674898118562
Pd 9.834152171629857 12.78112248969357 8.091209247561784
Pd 9.891490597489453 10.078217997707998 15.516553758528126
Pd 11.801567751062489 13.940229666338874 6.862456243048709
Pd 10.310185340718332 10.960482436145275 13.032510780229607
Pd 7.6170762377333245 12.055170819369343 9.430822712030258
Pd 7.887787929327922 9.297481830300248 13.934432072278831
Pd 14.881571628126528 12.038844362816532 13.06498191298179
Pd 10.02378047498374 12.26872602314754 10.78703773449592
Pd 13.997151076912266 12.760725506014468 7.871481708471695
Pd 9.72855840643514 10.262823766767655 8.868282494893846
Pd 7.891064629238508 10.723109130163465 11.709080360748116
Pd 12.418266022699283 9.415196433193243 14.877535043000995
Pd 11.860169732929462 11.216375636259226 7.292985868384997
Pd 14.612897998908492 12.452396466920092 10.433863735403085
Pd 14.879996235612522 9.389701766674339 13.832794153447372
Pd 12.855814014678655 10.41463469422266 12.327378655629296
Pd 12.22246097334848 11.184172766987746 9.884056865488805
Pd 10.331161966108784 8.251922932001722 13.591982876334335
Pd 7.3309012401644 9.350026171600321 9.529003654927662
Pd 8.51744282430308 8.132993757474859 11.616901876816051
Pd 15.37447742786792 10.081956991020531 11.224309829065758
Pd 12.749968798612134 7.708716555567639 12.790969713100298
Pd 14.325314547173992 10.274532292221503 8.639353880347256
Pd 11.899877305104708 8.744091041905236 8.418165630265737
Pd 13.578624662607876 8.439435963907012 10.376658312217227
Pd 9.43733788410032 7.681734085900118 9.168865524187188
Pd 10.875493699865144 9.100601768302962 11.078644903490556
Pd 15.319094805127609 7.520052015547647 12.061968364491687
Pd 11.668322111994613 6.697513883478698 10.28178566139378
