49
Energy = -212.08553795 eV
Pd 13.053672536053359 6.264246504639435 14.924883204836346
Pd 13.18969180654195 6.819812023951379 12.311955204695735
Pd 14.05582194920389 8.609892416719505 14.31595583820835
Pd 14.409890337117952 9.081067551032437 11.698641080906775
Pd 10.852790981844082 7.094917751135337 11.032070990209153
Pd 15.183786773804721 10.900553883080853 13.656868743497963
Pd 10.810950531422163 6.403398977071004 13.53814503327593
Pd 14.611310760687227 9.811500252228479 9.193961187754198
Pd 15.401120201329649 11.607677480804545 11.12058858311451
Pd 12.137819435258919 9.354218072117714 10.14142702396819
Pd 11.483906386461983 8.392224006845243 15.337811818578844
Pd 15.47313294762205 12.33602784022069 8.571706755857429
Pd 11.79974657663078 9.043609789322039 12.798790001110286
Pd 13.898050763910508 14.395652554819538 8.165996374100143
Pd 12.695737987159593 10.912498836452551 14.623384345402012
Pd 11.127813168668963 7.600285623007608 8.425217062856168
Pd 8.71522621694821 7.7160943668412525 9.572170747797061
Pd 13.775378793396175 13.178873088117465 13.406379016233275
Pd 12.878911416913098 11.356549693769301 11.776285842844272
Pd 12.350969255348001 9.788543576297014 7.448084998317193
Pd 9.274055475983237 8.495693066976381 13.68961684455311
Pd 12.907400026686268 11.867902342834597 9.139569444470014
Pd 14.836397419413519 10.47935831468416 6.686914701492271
Pd 13.91072496416354 13.81007997285555 10.7792336253299
Pd 10.097633729261203 10.610187307433327 15.285800627871488
Pd 13.08775933659929 12.370919041544482 6.555687106288049
Pd 9.676363884100871 9.603572988114795 11.18810324758265
Pd 9.408604248324142 9.376728316209952 7.541758536133006
Pd 10.510974913079584 11.485235524622711 12.852119131256266
Pd 7.304276806430176 8.670084394338874 11.785968224097642
Pd 12.152743399241997 15.539548779999318 9.792071188576696
Pd 10.286871774932958 11.193319737939246 9.14506315953364
Pd 11.34788163599496 13.252334023055317 14.581041366724993
Pd 11.052552284744696 13.107814149122508 10.77872491384194
Pd 11.921554750421299 14.863848310252822 12.466339049815751
Pd 7.9667227130256295 10.748633897099472 13.472709188066368
Pd 10.576487024824972 11.641314136427074 6.495522479429564
Pd 7.56288059105828 10.132872736811777 9.45971540314579
Pd 8.697494621723315 12.835775423955718 15.087001307994466
Pd 11.277429650624688 13.737256536114412 8.01521877338827
Pd 8.51446315176335 12.117300769774982 11.124194815921078
Pd 9.326589898867555 14.063077937780315 12.893411374506995
Pd 8.153316099662169 11.780147305100193 7.421424972750187
Pd 6.102813528589801 11.085944018810348 11.534446557749014
Pd 8.90655614789897 13.75979044409831 8.993042376458824
Pd 9.7675160063021 15.553106437364145 10.771461291996163
Pd 6.799601468230585 13.122938487770803 13.163052164728397
Pd 6.468982906332502 12.60219241396143 9.347069999824226
Pd 7.3206780978689014 14.572938596550578 11.031265633431058
