48
Energy = -207.10902659 eV
Pd 16.52470713610884 7.677270546679113 13.74104646469358
Pd 16.285081916310265 9.6406802117344 12.125333339280818
Pd 14.992752313224631 11.583926957295867 10.718034430334825
Pd 15.37042471438825 11.889127910000084 13.28227526209913
Pd 14.998605784747717 9.079201629041838 9.833818608168116
Pd 14.99243944793632 9.553565353599756 14.703818379753196
Pd 14.185663295011157 13.975379154179668 14.430990080116308
Pd 13.941451431728025 13.434829214488335 9.193995932737046
Pd 14.26259192170674 13.945899100400458 11.782476420076014
Pd 14.548345486209708 11.06584543359422 8.122855070056863
Pd 13.986533746480713 7.272927759610314 13.418997313536494
Pd 13.677218211852416 9.680272290277676 12.342721961823363
Pd 13.21279534074182 11.4818277859456 14.801908787291131
Pd 13.95713771817084 13.183378048434381 6.56163856326259
Pd 13.242977751905944 7.496034813211955 10.870457931047367
Pd 12.529252755035396 15.437165475358139 10.255276260351994
Pd 12.614543822671873 15.687131904481342 12.992595590564521
Pd 11.429327668794862 12.982872724126914 10.091836096346881
Pd 12.522916503163927 12.091311266456708 12.265441079225035
Pd 12.545456243907655 10.319078064935805 9.922163188364928
Pd 12.270445221983676 8.996521355537606 14.585974689530163
Pd 11.58872818158867 13.538741948315463 14.274949368149198
Pd 11.883837452639064 14.426226296611944 7.75208969035106
Pd 12.065942583926462 11.710234145344835 7.6355347198402495
Pd 11.39041163832605 7.206258920912985 12.737463580477911
Pd 10.096934014279954 15.689465074358932 14.271295498206653
Pd 10.436750599789393 14.78001585231896 11.818913679182183
Pd 10.990687344381426 9.841213605396854 12.196955642059653
Pd 10.148034520601875 11.379958112426031 5.931287596308656
Pd 9.942824065302338 15.321850332204239 9.273548391538768
Pd 10.875373408027688 8.156002786758146 10.101891211396014
Pd 10.62176020039761 11.026643580733214 14.735067184744619
Pd 10.635867452203003 9.520715699138472 7.859330859804643
Pd 9.848494252646072 10.934520461761897 9.964318964671193
Pd 9.711554143043449 12.224984908051432 12.472851344927836
Pd 9.592903228494215 12.962319667841323 7.995147096438261
Pd 9.108893546788991 13.263722284169402 15.027591054272374
Pd 8.929241572469277 7.313672931441965 11.702604670157832
Pd 9.48487165595753 8.653690322154961 14.076152660850866
Pd 8.075630321917838 14.461942464603228 12.883976833276153
Pd 8.470013443450002 13.387756257734342 10.376191913938898
Pd 8.23082825010878 10.726233020939684 7.583466558389392
Pd 8.36829463532197 8.72616764960112 9.42370884614824
Pd 8.22268681686298 9.826764247036634 11.963585033157091
Pd 7.989442982052802 10.895885177482077 14.395947287939515
Pd 7.113229606269296 11.117580771570518 9.87405971647768
Pd 6.873156478010305 12.156554814158595 12.2202957954179
Pd 6.522111486327417 13.134471152465707 14.624042647883662
