55
Energy = -241.78677722 eV
Pd 13.325288471777704 13.656190277114021 13.191093607521331
Pd 8.883399631332015 9.506501878982785 12.236414416884523
Pd 13.05419221118634 9.531022660881431 15.546257292027205
Pd 8.852465346713984 13.594063899896533 14.509865430260032
Pd 13.426938132173627 12.250251311351613 10.857285402515318
Pd 13.190754021000703 12.323215947194871 15.546995237781614
Pd 13.247749160454482 16.373851607992194 13.190755047826192
Pd 13.482471646807594 15.128913337090045 10.770936708552838
Pd 15.33915040280285 16.296668054056546 14.78944289431917
Pd 13.289148872985132 10.898396884172415 13.170038645992566
Pd 13.482338857704507 9.35404401267449 10.752272368951111
Pd 10.919962819558856 13.696596800279334 16.25455656301864
Pd 8.764696727986935 10.81961024538153 14.51874532798772
Pd 15.682898703734836 13.686374627953914 10.222794212051442
Pd 8.738566270824752 12.257710947017962 16.753782705726916
Pd 13.2554854497625 8.16726248120887 13.196394439537887
Pd 15.641051776491887 10.888266838780725 10.242646468921736
Pd 15.530983833416466 11.001494995580437 14.856917871895785
Pd 11.04319134867566 12.224828789555568 13.838408341242936
Pd 8.915833855790105 13.503553615984806 9.876686004668365
Pd 15.33442506800163 8.3441718724771 14.826243579507707
Pd 11.001711037589802 15.119011049906868 13.953326233620427
Pd 8.90756454005284 10.850785357877207 9.880996577295049
Pd 13.086328072327104 15.075373278698653 15.584858212552621
Pd 10.958035307650986 9.34457892125105 13.934701109041445
Pd 11.276690058464132 12.186745018734511 9.138399277127814
Pd 15.56950157624409 13.646419059313972 14.847571936531494
Pd 15.756490200044194 12.312583356026527 12.554990590529737
Pd 15.73714627053685 12.251435913318597 7.9858846506866055
Pd 9.133939278816035 12.185266359536309 7.507203716108935
Pd 15.576287951648313 15.001286649719876 12.484041301610915
Pd 11.373258511618578 15.016356213776618 9.169667682158597
Pd 9.221778112077814 14.815039463223314 7.580390538873108
Pd 15.536315857526985 9.619232734686927 12.516367800179323
Pd 9.10720665717043 16.166880582307765 9.936628282849194
Pd 9.230407468774214 9.559464941294802 7.560040653443719
Pd 11.178392684972998 13.577272993529117 11.523754676594168
Pd 11.386556599033181 9.38688900029026 9.128054941862771
Pd 11.429931875501657 13.59583733837109 6.84509695739687
Pd 11.204040931445311 16.32084350418617 11.546877078124902
Pd 9.13161763150272 8.205173818832552 9.925788619433341
Pd 11.434302023306987 10.809521957636859 6.80887597315222
Pd 11.154517949303813 10.82949956814628 11.500384164221337
Pd 13.580506903697055 13.713807783134374 8.512556393595085
Pd 13.593273446805393 12.226703770414158 6.27770040482829
Pd 11.219903277874586 8.13183119847652 11.536552942034866
Pd 13.577550644332044 10.746970532750954 8.489576304759542
Pd 15.273545199090002 12.330897875804556 17.229061062871065
Pd 8.723687161829028 12.185692406671025 12.171640941814958
Pd 10.867243156715798 10.837045692582244 16.19239426002923
Pd 15.23680385944667 14.949302758752456 17.1421059554045
Pd 8.927932600475039 14.858039733007958 12.22890339197456
Pd 12.963948455459 13.686714510017994 17.9289622460415
Pd 15.140841171468445 9.709516827435802 17.166770742317272
Pd 12.892307203534079 11.035545030177827 17.85189809926212
