51
Energy = -221.83698715 eV
Pd 15.10092329390656 13.340195531435096 8.210997198080488
Pd 13.015049752863309 14.711612763419309 7.043725424414289
Pd 13.521470547193944 12.20307813160268 6.334462004601989
Pd 13.69141969782282 15.278257003624052 9.5869031287589
Pd 15.217996748070597 13.44210925378308 10.82256516268879
Pd 14.302210257040722 10.658973087422178 8.555281435684266
Pd 16.027521903684914 10.677914543951063 10.626577470238447
Pd 10.876902169794235 13.010634227763404 6.836963350542518
Pd 12.944044925837744 8.26602775399358 8.301973046319615
Pd 12.640912230241211 12.663376951732136 8.947095173551947
Pd 14.035999771653685 8.795306696123898 10.657055372198018
Pd 11.086985727786589 14.823706004903425 8.92798929038964
Pd 11.859980340838833 10.450849908848783 7.240949773256384
Pd 16.063349604200383 12.121267110627258 12.929678273607818
Pd 14.145201723799168 13.94915807587274 13.280690185342356
Pd 13.663483829117428 11.462402602221603 11.459743292874412
Pd 14.918357177928808 9.693419516963642 13.012111863814205
Pd 11.664862661015379 16.253383038937052 11.187115061926692
Pd 11.815698048423855 10.320122875111416 9.908299256225055
Pd 9.968277903635808 12.074666095433301 9.247475065662186
Pd 11.608417057762988 7.596242763227497 10.575377647786429
Pd 10.29439708182696 8.690394902074736 8.434504028092489
Pd 9.258836233300924 10.82549414360956 7.052358003435687
Pd 8.526578819763616 14.122384611816827 8.642571126601304
Pd 12.372822491009359 13.738717697084198 11.319430986441374
Pd 7.280731850984874 11.718091467199478 8.535920516013618
Pd 7.697864252303889 9.104140959334869 8.625822380681816
Pd 14.490094859276665 11.677753685600155 15.048009360313957
Pd 12.333043967954618 12.020592992482577 13.667638814988534
Pd 9.179949315914977 9.90337194298699 10.71754811566084
Pd 10.387927732688858 11.969882263372158 11.905540663091225
Pd 9.641904357618941 14.500315415605067 11.132715340313945
Pd 8.90552199886601 7.194657491022945 10.148787950421095
Pd 11.89924864070232 9.688374651566223 12.39624675335635
Pd 13.027549710581496 9.432915250625882 14.82166757891546
Pd 13.152411495600555 7.494692238303545 12.950182465666332
Pd 11.1218727608913 14.568677945804886 13.468337057069114
Pd 7.82062885741822 12.61094276342342 10.943211880346515
Pd 12.777695039429753 13.842755457001548 15.604738425034846
Pd 6.359384270830578 10.349799765539888 10.618068314730424
Pd 9.86578619666197 7.924907569334961 12.517494227770701
Pd 7.289078345950956 8.315323918558224 12.013079920656418
Pd 10.190923668060153 10.515136228913073 14.158810486338616
Pd 12.07173808374907 11.259296819492373 16.38876844900642
Pd 8.61658416301865 13.304357972573596 13.412931287665648
Pd 10.970847275615094 7.931301258095004 14.847526540874224
Pd 7.766466104157771 10.809044025876899 12.882759315321099
Pd 10.28908716828782 12.933556506261036 15.415414602768687
Pd 8.274089304146667 8.733760984589765 14.555202909335442
Pd 9.910410098916048 9.665739510325965 16.605738169090863
Pd 8.100167103644642 11.42428640209629 15.476251201398762
