50
Energy = -217.09334261 eV
Pd 16.000965628942204 11.874361387439262 14.035236426030632
Pd 16.613708378298686 10.98959154353856 11.60750629217225
Pd 14.860268364776172 9.256977990536607 10.497836334770826
Pd 14.850890626530923 11.7958035066536 9.781909253453723
Pd 14.995147144815103 9.523249942750287 13.198007788247141
Pd 15.187708910335667 13.240980926171833 11.999145422343334
Pd 13.325704505122362 7.5420462778933155 9.186822778990148
Pd 14.933089208736067 13.050189358226277 16.183373534644467
Pd 14.684117693406359 14.382692382680709 9.68323081671367
Pd 15.82336915623305 14.577345592461116 14.145275216476218
Pd 13.042633990660633 10.122406174440878 8.681680127887965
Pd 13.787970626662595 7.407056821868514 12.057303325992617
Pd 13.629711558391133 11.097174765701086 14.862448653876777
Pd 13.321628768523714 11.218616764741435 11.946023161289748
Pd 14.282806265044643 16.910220316842516 10.011752144278685
Pd 13.989830304689972 15.65829180745411 12.390219301531916
Pd 12.907787962640098 12.82743755526439 8.36387166807642
Pd 13.273729255449004 14.587195548405267 14.758392552645354
Pd 11.986821120313284 9.100308969399093 10.940988086990101
Pd 12.504505072977986 5.533900480203459 10.68580620782517
Pd 12.420240410991033 9.041545730150535 13.723418973287579
Pd 12.57105337267121 13.782712041310317 11.175257590418193
Pd 12.34723109596199 12.656281338017916 16.593141650881787
Pd 12.693678297721817 15.538995543451096 8.281278354893084
Pd 11.887152915250255 12.708647744309046 13.657766235977384
Pd 11.847299377364475 16.350527723290377 10.69871181614185
Pd 11.354185967574992 11.170829943166039 6.962128494037502
Pd 11.050927413300517 10.591643448093901 15.37169511562759
Pd 11.044309588256858 13.889672343173066 6.834605792962156
Pd 11.114797779751784 7.021622292514437 12.395130405397017
Pd 11.302911333297178 11.708098888487648 10.152570767212081
Pd 10.727525876705677 7.175129413245586 9.592761527822566
Pd 9.73248304164355 12.283253954593405 16.937737714272608
Pd 10.523668178996727 14.410459471457907 9.371244319358672
Pd 11.312272103121192 15.434550026378972 13.11899094394266
Pd 9.767967893623965 8.554504366237161 14.048911901903331
Pd 10.629612138687364 14.308080099404812 15.425471047978657
Pd 9.954010589129492 13.28285253921591 11.87495157739388
Pd 10.531927093706777 10.680410218510934 12.551436628066037
Pd 9.405443132309118 12.269698215509308 8.303120068992053
Pd 8.411869478425453 10.166292909260578 15.70307938833615
Pd 10.146321499851476 9.644121704007807 8.893180635858856
Pd 9.067528032539885 12.327125750376695 14.368912106725602
Pd 7.894876696077606 10.210414595188373 13.058129324793413
Pd 8.56542668325639 11.162940356478368 10.601579687909057
Pd 9.199229328832526 8.631090948443857 11.265809310440563
Pd 9.297687365993513 15.865771967380317 11.25690315561874
Pd 8.700120808714003 14.85466795621202 13.665658757221056
Pd 8.010384005077949 13.752959480006188 10.04375074402613
Pd 7.319011885840805 12.751937303338186 12.431809139482834
