54
Energy = -235.14052053 eV
Pd 9.145553097301407 10.441281649104477 14.224257986176948
Pd 9.638916293681756 7.712145347827334 9.653826185717497
Pd 9.40694919874437 12.132521044893819 16.344357389700917
Pd 9.029251775469909 8.867693397186686 12.040437692692782
Pd 11.219636719290904 8.81110567947193 13.714255899384598
Pd 11.176835142020643 7.000521630401752 11.717793481525762
Pd 8.6848399671399 11.620506893028915 11.854290670385508
Pd 11.478855780878252 10.69114034867867 15.526312496856718
Pd 8.77106994649229 10.19482076371609 9.707778117730248
Pd 11.86294138731591 12.688860519744987 17.279495264585922
Pd 8.556959751879551 13.092308923737894 14.014782521743662
Pd 10.729206286454835 7.284879214644437 7.254815832603338
Pd 13.138008081773329 6.925338703028127 13.55782169414992
Pd 13.50106758895951 8.963425663218251 15.174798297388092
Pd 11.090253098762044 11.855646579028777 12.904197289837985
Pd 8.250832396968063 12.753567822622099 9.503197045795153
Pd 8.750409609886404 9.006203442034737 7.385202970992077
Pd 13.930540581779534 11.03029613043356 16.707973743825132
Pd 11.193021575601163 9.755277741026458 8.218416288695684
Pd 8.29047565170566 15.309495810457674 9.140097449885134
Pd 10.94593318773272 13.787562248547076 14.984954368071117
Pd 14.327985208595065 13.257987173935485 18.019684376868323
Pd 9.535457529531637 11.611725050082896 7.483553959294324
Pd 11.354086000027984 9.634153311475831 11.134074438061699
Pd 7.750691362983657 14.270859089770214 11.702956998617012
Pd 12.318076351639252 7.575619304748991 9.329633420555815
Pd 10.950056671303871 11.888281230718095 10.014292246132047
Pd 13.75948339540467 8.203739368002326 11.405180840308152
Pd 10.24992762990912 14.202290805345694 10.963640324940794
Pd 13.39827284563968 10.393373137654788 12.898350171359205
Pd 10.50630697199757 13.932289293723976 8.233444742246874
Pd 9.755135581321218 15.329494313734779 13.259903606786766
Pd 13.268236771884123 12.456451115065788 14.54051025108888
Pd 13.417628313650136 9.98950644669938 9.513175985863091
Pd 9.017963171386189 16.786088615035972 11.20143160643185
Pd 15.52906294805517 8.454259908434675 13.277056415230517
Pd 13.292599753877507 14.671155459721197 16.075147076145115
Pd 12.777831904923369 12.35902015702098 8.147620187877619
Pd 15.604909081394217 10.613293414156688 14.681013217016988
Pd 12.527849073305159 14.087422313383453 12.56743446322381
Pd 13.636532391604625 12.289453154482496 10.838838641682184
Pd 15.614737175422034 13.084231018171128 15.650622205056681
Pd 10.705937135385211 16.44091782074357 9.130272453112749
Pd 12.129054119080752 16.125752357221174 14.23410083766423
Pd 12.619921075510094 14.604594112448918 9.812623722972488
Pd 15.585875373256487 10.31877352498851 11.257912795258408
Pd 11.6441448712425 16.521721990688356 11.593852002513197
Pd 15.406108361247489 12.51893398892743 12.89582096034816
Pd 14.774597608974018 14.92621460248186 13.924570980594861
Pd 15.398195052030136 11.360505260572392 8.645058148926536
Pd 14.955107981507737 13.934264900282102 8.711732618800214
Pd 14.929759387140104 14.742835986189544 11.252293898927762
Pd 14.036487429071506 16.89276012907416 12.405214650580158
Pd 16.54752810277269 12.772745182930938 10.521899748260939
