52
Energy = -225.2534786 eV
Pd 6.784754492181173 10.873974127127127 12.733216916234516
Pd 11.182041604134529 10.164122575096494 12.018980765915693
Pd 5.7231226744945705 13.21743070940942 6.959015647692755
Pd 11.07294925584997 13.8745402389803 6.834513383534526
Pd 9.38431071505202 11.06536302405033 10.034936399418472
Pd 7.691583669124042 7.094595112188332 8.505801311241719
Pd 10.08698173731544 5.977161169055356 9.062384743491954
Pd 11.840533276964468 12.467089366155548 13.580836419642731
Pd 14.111857287441937 11.787295089597064 9.546824127316013
Pd 9.41263809442862 11.790569979975071 7.368375223195276
Pd 12.601546430964676 9.440330165112748 9.903592602151717
Pd 12.249462608125409 7.4755593502283695 7.933686644918466
Pd 9.208135690693696 11.968318708278362 12.601050615809966
Pd 13.633730656113356 12.76143231093626 7.031947193468293
Pd 12.249668368044748 6.772109312777298 10.413237720235914
Pd 11.699816719281468 11.346708009725305 5.79293413179954
Pd 7.288752843061421 11.411305289839403 5.876761285203963
Pd 8.274679522653356 14.074336298054751 6.832947800625722
Pd 9.700285787174336 13.797621662103834 9.325425535513423
Pd 8.49918563386774 6.7124518284084385 13.598336989977685
Pd 5.601213307222606 11.504153259653611 10.511210022852087
Pd 9.511247648963653 12.630468910824211 4.848305470828895
Pd 7.809894174612181 9.174688564366837 14.687472082295038
Pd 10.780024314815282 5.575937362815112 14.427981955974035
Pd 8.794231867194396 9.274948824412283 12.26850036639173
Pd 13.441665896670902 8.327010957712512 12.29967197531698
Pd 12.82253236621339 7.319292477538088 14.793021902591667
Pd 11.699614784855246 11.81629805626044 8.59775924842972
Pd 9.91071103844487 8.435273334326384 9.915052185985537
Pd 7.355600331591891 12.43939220748294 8.832125502549854
Pd 12.828085720305443 5.692938108110433 12.696860419081874
Pd 12.573225611517122 14.239626206383319 9.138834121167829
Pd 11.484943091216438 12.600210872813866 11.014195630341662
Pd 13.483455669694724 10.029545008343467 7.413082734687612
Pd 8.200666949078848 6.738986610331508 11.014215133399588
Pd 9.71439806615607 7.4547298765163585 6.754097271340149
Pd 9.49145427446261 9.854435383694794 5.308150471469787
Pd 8.037820551068748 9.495119054908566 7.637881703896496
Pd 9.901189178664687 14.427211395802034 11.978796346013304
Pd 13.787212177047403 13.60740470095776 11.559842974301704
Pd 7.538108731329969 13.329218370435829 11.238337304105565
Pd 9.985629416925848 10.79178404997555 14.715406765543358
Pd 6.427228802261175 8.13111967588977 12.492019412071574
Pd 10.338200301642416 8.217671388805547 14.977030112497763
Pd 5.693080863080834 10.610677407301923 7.9774524183244475
Pd 10.293847621300625 5.180627223358737 11.711204385826548
Pd 10.755550312742653 9.601927351133561 7.792001195041231
Pd 10.854230577950906 7.617168977564997 12.539136031015511
Pd 13.70944009710214 10.983474269042045 12.0339283258999
Pd 11.963930718671824 8.655671662527576 5.532290333612131
Pd 12.506142080369187 9.931018871615501 14.309691690965956
Pd 7.075427606617231 9.30569646875392 10.095680265551332
