55
Energy = -241.78833428 eV
Pd 7.81415839889959 10.030201075535837 13.799642159760358
Pd 14.516639997576876 12.703918794108764 10.778156234116206
Pd 12.238615923989245 9.145143308066066 15.147616939515474
Pd 9.942098880311102 10.322295526748782 9.410618776029864
Pd 14.552711038325826 12.869466125436553 13.513974644169036
Pd 12.247875783160216 13.327192512539309 6.767917932775511
Pd 10.004381574673033 10.5245309707654 12.341125832137141
Pd 7.7912294370979875 9.863582079033836 10.991887190649186
Pd 12.275282239739326 13.423361319057273 9.442812580099492
Pd 12.316177818561687 11.547106041188094 16.385882302385603
Pd 9.994770595151609 10.6859966900271 15.273323920766087
Pd 12.298127921497885 13.54836956511794 12.128451346206985
Pd 10.062674419732728 15.05360862374902 9.281488878564607
Pd 7.915413981647357 14.463457884041595 10.72995058879169
Pd 12.35263721408192 13.763971975730913 14.800978099912061
Pd 10.0941445249943 15.319276026834581 12.034620914080175
Pd 12.232490943011758 11.029410579662686 8.148995050498662
Pd 16.656190165093804 11.907723409935349 9.399030728967828
Pd 14.509307430335115 10.25952526194643 9.431785405962179
Pd 12.228447938465113 11.126130461206502 10.931069235381871
Pd 16.830157296279943 12.075281757045508 12.158633904173037
Pd 14.445689663504885 10.482013799750202 12.294427491389605
Pd 12.252304666913172 11.289427280078526 13.627171121555323
Pd 7.850287577248422 12.054619166728772 9.496904448763553
Pd 14.565041372350462 10.618575256443195 15.167700421321756
Pd 12.2876730861941 15.686499382383525 7.958356737402692
Pd 7.917704745462291 12.406601536888418 15.005670752477478
Pd 14.543083743084297 14.97801352692672 9.223480301340436
Pd 12.351304872792866 15.880443215305421 10.635841165494648
Pd 10.104588280742721 13.215119829531442 16.323063368914905
Pd 14.623977882401395 15.24010406677091 11.9894943256476
Pd 12.394333876176436 16.05489916940493 13.295259952210644
Pd 12.390038170820231 14.01269048293528 17.455050239526884
Pd 10.003749577054402 8.154765996852923 11.035526708782452
Pd 16.644418150832337 9.67666619131901 10.974384204048924
Pd 16.72230935116928 12.249023036401045 14.930928844573424
Pd 10.021127591617232 8.33488778315562 13.914818352803529
Pd 16.661398151890822 9.854649690794332 13.648421156740739
Pd 14.618985382252108 13.130204627561135 16.293754560268724
Pd 9.995093791917338 12.685775675438562 8.0394186003405
Pd 16.721054850382266 14.293906796017861 10.628171479722129
Pd 7.959604902180669 14.650765582100572 13.496663492880725
Pd 10.02932463382565 12.759099311575651 10.832822667702443
Pd 7.866010501833968 7.711348345697266 12.517507676549165
Pd 10.153818682122925 15.417531207620026 14.793377162430643
Pd 10.06830537274435 12.937330114513264 13.558621325169842
Pd 7.675066703770566 12.251925383374843 12.262539139812155
Pd 12.419489645267593 16.2008722380956 15.97224454704985
Pd 14.454202517075588 8.089161225693728 11.072791435063815
Pd 12.191929237242832 8.812579543759878 9.68856024247816
Pd 14.628673619458048 15.318206062195323 14.753413458150405
Pd 14.47662771589008 8.254957286326254 13.81733769610696
Pd 12.235875878558769 8.65263283098818 12.435753699612668
Pd 16.76470244340331 14.469302354800075 13.401951976304161
Pd 14.512254676643193 12.609436852246299 7.984193419871834
