51
Energy = -221.95408992 eV
Pd 8.579403630029649 10.80559105094367 15.297010810072727
Pd 8.091952995834998 13.147752544684755 14.049373379621255
Pd 11.244013816758034 10.19084213684007 15.282342204537995
Pd 7.991903049507811 15.277617796292267 12.415086719375639
Pd 8.035162505433052 9.685010242616634 13.01477634226857
Pd 10.376358865331026 12.739393963755811 15.56677277162441
Pd 7.0948732076538334 13.980097424478082 10.299870735274789
Pd 13.998428888833214 9.864519913519016 15.056786520261674
Pd 7.551614676061469 11.922470142230946 11.822517925738577
Pd 12.075491231219438 14.779629856101417 15.732620826325705
Pd 10.256900980195267 14.735076848873174 13.738108435548359
Pd 10.52154485548928 8.634520285160969 13.069647212342133
Pd 12.328288386052032 7.807588245691869 14.909479114382309
Pd 10.15182041786106 11.556152512532535 13.163077973627745
Pd 13.05511174124436 12.24828336485506 15.739367248875274
Pd 10.313608074897799 16.819273317021175 12.162095469584056
Pd 9.629876424099434 13.444519515334823 11.374635503129404
Pd 14.894819520636327 7.5137982615935215 14.132499405779575
Pd 7.151641515453162 9.780728772927741 10.418302648524046
Pd 12.602543432601065 10.42300829664409 12.89585932033786
Pd 9.317787577984257 15.676159090551085 9.973484963691744
Pd 12.628349747411278 15.978617097592343 13.354206625628139
Pd 12.310143968721277 13.133797770137274 13.357013078648535
Pd 8.372864671044495 14.187252985930012 7.970298669003433
Pd 8.547507824706878 7.702432806196549 11.30653908717265
Pd 14.45819071383818 14.429908737307633 14.59338677804831
Pd 9.944348123270863 10.19659993910468 10.943302481768754
Pd 11.872646767609783 12.134756456251342 10.887650604415045
Pd 11.811792488337067 14.977242194320443 11.004910246067002
Pd 15.173879801190912 9.62960510206238 12.521421057249755
Pd 14.819245464013381 11.996069003559915 13.619339963364963
Pd 8.57715080504155 11.839701813096072 9.241830464876081
Pd 12.658890565189393 9.596303014277174 10.343605141618317
Pd 10.81563444714668 13.710563475903252 8.847509445408003
Pd 12.989328672924941 7.735906441871432 12.318273030758649
Pd 9.10784489779636 8.821056857142706 8.877581715836074
Pd 11.00741020281732 7.504024424925651 10.552462633448384
Pd 14.238507667422018 14.180097189799849 11.911300321963637
Pd 11.089452391285706 10.935960010866447 8.570597991234163
Pd 9.77232020729576 12.313571874163088 6.712305878567593
Pd 15.255326034899682 9.327045655716503 9.86190104921571
Pd 14.545611709898267 11.692977759903064 10.963214314430834
Pd 11.641304133878267 8.308573451169885 8.060775214468512
Pd 13.505181428598423 13.666047134449386 9.353693172849127
Pd 15.482842447715973 7.227072992326023 11.458242998620292
Pd 9.836856608627082 9.663672298016333 6.520394935698398
Pd 12.444239416766681 12.863310977502234 6.957406860077998
Pd 12.403913068598548 10.286576116062761 6.242879544182826
Pd 13.486932262415898 7.123494358014954 9.653106444888046
Pd 13.824318732529761 11.153761698443382 8.44854791288435
Pd 14.186885877917193 8.71446037817495 7.5256062696174455
