50
Energy = -216.02132298 eV
Pd 12.848858827152204 9.041153650167129 4.937469766354571
Pd 7.704395308854673 9.087626778722207 5.231600938421544
Pd 10.262489231191013 8.146989760602198 5.593254837375294
Pd 12.440780180649941 6.71143894148592 6.121479494505892
Pd 14.403068230296068 8.294459417129584 7.095737958241577
Pd 11.48616788490324 11.140606411387587 5.652257517281512
Pd 13.910222674042526 10.891096166303893 6.686280050907124
Pd 8.140648619826836 7.144807217190121 6.996755556793061
Pd 8.932851791108886 11.31715825877175 5.574296720466916
Pd 10.330921697607817 13.57752852553544 5.7357830713531115
Pd 11.916569523286007 9.207441006109274 7.555453757631758
Pd 6.35472932732822 9.188446850160979 7.565521857254347
Pd 12.520866740977528 13.118961659534396 7.433656616600276
Pd 12.964381452993187 6.403356645692464 8.72505995757355
Pd 5.96746865565086 6.839158119198933 8.522466758418942
Pd 9.247420144315399 9.49789564472435 7.616274034152654
Pd 6.45495693603031 11.49077184725085 6.236259614601465
Pd 8.072453593383955 13.487756282620845 7.286874626080598
Pd 10.45659571657221 6.269781334757199 7.811073617379385
Pd 13.782335456598153 8.8056432298518 9.591520437703027
Pd 10.188145942645983 11.975704879422008 7.8817304044371586
Pd 13.053650250236512 11.204209870517207 9.18141684429502
Pd 8.29278999928106 5.745686342237975 9.376926833321818
Pd 10.343992385077478 14.660852234140735 8.28123292743938
Pd 7.519451876493116 11.21706714485503 8.629637177608148
Pd 6.231560065185485 12.501994649082995 10.562016642454582
Pd 7.352518315413028 8.68273362766306 12.312321851194246
Pd 10.974865987286147 7.988777757880334 9.670198922643031
Pd 11.479497092324674 13.065057202815728 10.198613584687896
Pd 6.095371740040965 6.739564650758881 11.075159739218664
Pd 8.23675782792997 8.312701011085345 9.746116483765988
Pd 10.609404072961453 10.536122123627388 9.897579899639926
Pd 8.824144251128734 13.219429241264333 10.010759137919493
Pd 5.828750449791083 9.580353785774248 10.216626385848352
Pd 10.728759735787166 5.6062982702813615 10.538339141792
Pd 8.271839641281089 10.776534725824742 11.063249714539179
Pd 8.583081462848318 6.261088001322175 12.038319261053363
Pd 4.7523950176048775 8.610695305510907 12.652709049953495
Pd 12.449419442758547 9.721548121441696 11.688238661532967
Pd 6.438780145261926 6.644155908044413 13.74663165016715
Pd 9.90676089893281 8.789434423250546 11.883972475463715
Pd 8.061403042450571 12.909756346314767 12.623551124474309
Pd 12.952006062150252 7.06621060715388 11.388504048317477
Pd 10.576343714616705 11.650780660893902 12.384789467518909
Pd 6.079499233865623 11.00207143619403 12.760394887767974
Pd 10.98739326200177 6.78183227563078 13.082414320276465
Pd 6.394956251412928 9.192909933752405 14.795048139230724
Pd 8.851161720367543 7.8515954105191526 14.395021947887896
Pd 11.11295088580249 9.49251638473617 14.05887377906933
Pd 8.606558920744774 10.532631607258457 13.87291999383793
