54
Energy = -235.0378934 eV
Pd 16.40001604191808 14.019112867075199 13.121003406295761
Pd 12.17181347827577 17.34055266346341 13.120699843511861
Pd 8.350484313966543 15.217238989485471 10.65703397084678
Pd 15.076435782743385 13.914313247524634 8.39794332072462
Pd 10.619662296694518 6.322255289178086 13.231898663468705
Pd 7.615621754798494 12.467030011806628 14.943348238174332
Pd 14.007924841275997 13.052966257746515 13.115362554806923
Pd 8.170810937753163 7.9120665766210685 9.589666830069536
Pd 9.879510741842696 13.960778968835323 14.920318358177415
Pd 11.502078379019556 11.793317923455447 10.386882945165732
Pd 10.512130976719739 9.327968486775902 10.24847774470472
Pd 10.119994604976872 8.649306070905114 14.592775550159331
Pd 11.885273057314919 8.40218482721335 12.246413506040707
Pd 16.551354839066448 12.844067830774414 10.645381013172404
Pd 12.272521971032548 12.73125552560371 15.660620344654118
Pd 13.18995103592822 10.669625206147003 12.096751326203638
Pd 9.30155634427051 12.871955189783938 11.558091028807384
Pd 11.4946098280859 10.668255465341185 7.82857556387509
Pd 12.279267293475327 15.065693700452353 14.443300256951265
Pd 10.764783447657967 14.508748743665981 9.918117922549696
Pd 12.707515873550825 14.909475902074496 11.741272948068296
Pd 15.304545279013901 15.139969413197127 10.881517243146998
Pd 12.661802467106076 7.538152500998515 14.574765772391503
Pd 14.57672280621765 16.018270432179783 13.378507499897
Pd 13.197745072238613 6.044697705376013 12.386954508975437
Pd 12.614891697077669 6.911366509882456 9.955604464738144
Pd 14.52544916704686 8.151032102898 11.393133736662529
Pd 12.322908535833133 10.220813496594046 14.61384061767947
Pd 10.268896312139654 10.56289120206522 12.554550945047382
Pd 10.22052952774016 15.4648029124591 12.618328636539342
Pd 14.6414539306232 11.472319477355208 15.152237165815755
Pd 14.12841786525017 11.389280130268126 8.182697670442069
Pd 13.906285128736888 12.785247957596408 10.480925114179682
Pd 10.741202090401718 7.920723954130373 8.14580426476207
Pd 14.681528230623288 14.174766609710149 15.395391521617151
Pd 15.970444102531811 11.296778905013593 12.807614988296104
Pd 11.424255893373699 12.807907977708052 13.09867776965445
Pd 10.173778952209942 6.511264730230847 10.576138851915408
Pd 8.058486600376522 10.415130161861224 10.79617055885654
Pd 8.914162261314216 8.187075718973592 12.19474366109975
Pd 12.314638600350563 13.30951050742785 8.139239530371295
Pd 7.8484964305583516 14.444013769751654 13.180240725496223
Pd 6.851153478725813 12.141728314706736 12.415697240781526
Pd 7.353020881859465 12.82002286314013 9.807179978849451
Pd 11.260527493208397 16.998402225493855 10.601000069928356
Pd 9.670364682872453 12.551679468026325 8.628201020855455
Pd 14.648947061843971 9.178071015256938 13.799185492969256
Pd 13.900536925583468 17.403281497389802 11.110779242198657
Pd 9.991954770954838 11.31196549107441 15.128623413099172
Pd 15.408699580667234 10.459824331579082 10.375646222604454
Pd 8.901647621520851 10.092185786479263 8.258994589276927
Pd 13.069634808486027 9.435860780771323 9.535085244386071
Pd 7.952312964206122 10.093566190964133 13.73714366883612
Pd 13.186565342165776 15.613413411443753 9.212189756726517
