51
Energy = -222.05851389 eV
Pd 15.609826561855991 13.701245271715552 10.39562728320549
Pd 14.099536463825707 15.75507083346694 11.826524743147498
Pd 14.48969132659905 12.569707736110553 8.264623215756583
Pd 13.463150652613209 14.883452574627054 9.234688378424606
Pd 11.628975859375675 14.957798426981935 11.059570237554649
Pd 14.458664643417162 14.229370321167284 14.230441685881232
Pd 9.450827677451613 15.934079147156215 9.970833376001604
Pd 12.889594156889173 14.031839511063968 6.75456354608869
Pd 11.982504766170488 15.213770608343236 13.688449690925577
Pd 16.471520039721895 14.79011033539532 12.625960706095652
Pd 10.829792647018841 14.202141981745484 8.391650488416037
Pd 14.813959757315265 11.108236741382232 10.512643390368318
Pd 9.47301537155389 15.187734508875304 12.601590526944214
Pd 13.551233037916361 13.238866051595451 11.957001483605385
Pd 13.491183385974914 10.14343813131277 8.414733718493558
Pd 12.343603731837344 13.490924194517286 15.701514306316497
Pd 8.097377886843242 14.168552982585574 8.498687974545954
Pd 9.708323082976356 13.69227183888014 14.903971129490877
Pd 12.307961171655748 12.418176451411412 9.799407219365243
Pd 9.733445042222899 13.08576951070341 10.619550526480891
Pd 7.347814968450271 14.709525580669167 11.032482303782464
Pd 13.64421338406864 11.64354458824207 14.267371792480992
Pd 11.65587383284116 11.760054726881883 7.265542652099082
Pd 11.124875836115853 12.832868917689265 12.923216948519322
Pd 15.86773579431912 12.205091791994262 12.803670270818207
Pd 12.470861460560506 10.767263685643206 11.952189962621723
Pd 11.091350919912596 11.241546064793187 15.00169710395984
Pd 8.083452504639325 12.917637285031182 12.790077472383519
Pd 7.2845030258176084 12.171222929256322 10.158265200673695
Pd 14.9087640116804 9.704938770594424 12.85031825811353
Pd 9.277052813421731 11.786236759160088 8.321532145924271
Pd 9.75882378371447 10.701377676583197 12.16989682697423
Pd 12.093977080838581 9.339725056625678 6.299559970717792
Pd 8.457043195091952 11.201644837969669 14.66541262737881
Pd 13.66333494696516 8.682860198956032 10.623074376243041
Pd 11.11013286523022 10.063792411907007 9.780920002955048
Pd 12.55556839202671 9.198101517407903 14.185840874453726
Pd 9.83905566611092 9.262386854586078 7.652844947979569
Pd 7.1036186022818635 10.499429381708195 12.182138151443239
Pd 8.383741666962495 9.775507526892934 9.879887214917861
Pd 9.903413546456564 8.975569578531932 14.383286053145884
Pd 12.179846352917385 7.832716582958871 8.45502628808176
Pd 11.226412271380177 8.365972563805279 11.922142755194843
Pd 13.705603936679784 7.216083533902292 12.82608259417536
Pd 8.476273425789088 8.150944708599626 12.008583755110466
Pd 7.250158089772515 8.841384289175565 14.266419586662877
Pd 9.840277870368011 7.531743480963594 9.762420736845737
Pd 12.350684761352648 6.313817824156085 10.619307264811207
Pd 11.395738051401507 6.742962378845572 14.026109797774215
Pd 8.737346213214149 6.565259330001983 14.13514131880075
Pd 10.042121414594877 5.898893360964486 11.877292315109774
