54
Energy = -214.90137629 eV
Pd 12.303672822807785 8.128977410440685 14.59232938406817
Pd 14.234964506446982 17.61478549895285 16.92777814723409
Pd 9.113231744882768 14.20537708114665 10.816371813131965
Pd 9.653058759216355 15.13330924620691 13.213865126155998
Pd 13.617589625692231 8.078107577072888 11.110012874282276
Pd 7.461774460668404 15.637134448293281 12.042893839393738
Pd 17.17842680617639 10.927303102001073 10.443521774840038
Pd 13.662044527900608 18.465957094438984 12.49822580580969
Pd 16.224792098967946 17.613652900920457 11.903896210718127
Pd 10.298925527146878 16.9419920334295 14.973410594894064
Pd 17.678808749981158 13.343866603158078 9.702793460364749
Pd 15.22595479859235 12.903334317122795 10.315425876863268
Pd 12.410367086894912 15.25535466670247 14.04687068747228
Pd 14.511509009463426 13.896188141647315 17.554112887407054
Pd 10.592299149678023 12.344373641470446 19.94818269919276
Pd 9.872531963045548 13.101159440355177 17.652224211228976
Pd 16.20437182078519 15.25627527109065 13.537937083355992
Pd 12.037860326033181 12.72194152634399 13.548975864717153
Pd 15.429107305179857 17.82837802527119 14.521449866287863
Pd 14.980922073040276 18.107140375176055 19.31685145492218
Pd 11.00624033800235 13.965502048827558 9.098137473581923
Pd 16.537350601131514 13.357482485092971 16.073023026426068
Pd 14.223584304249956 7.862717998978475 16.258928660457535
Pd 10.618763257543083 11.277303837300456 8.894868926285412
Pd 12.434962107704802 15.681515925581186 16.59683360454164
Pd 14.507712512139094 13.538676156358884 14.692081855967816
Pd 17.850421915054273 11.522918487103842 15.091371460250315
Pd 11.905333087908804 9.98310859826786 10.833486569852449
Pd 11.680334001459041 14.705628988073926 11.561848766826788
Pd 12.412735793180323 12.869159332246472 16.423919700227323
Pd 16.203201892042376 15.223911716724396 10.87756351267355
Pd 15.720039210644774 15.747219752962618 16.110373035042823
Pd 12.800643344618905 12.237462949790599 9.939821727422233
Pd 19.38816738230249 12.21335027275434 11.30773484393605
Pd 10.302523631048187 14.402978793825463 15.514397070241964
Pd 11.064488606662309 10.160580787780871 13.339305906429805
Pd 8.143215371951118 12.911757017299026 15.73834710484976
Pd 14.010969606910844 15.887786939987366 12.174554397356328
Pd 18.053717002411602 11.832437125130385 17.55671390959942
Pd 10.338282261018586 11.63572443255173 15.323722974732087
Pd 15.719623446243872 19.923076587956732 13.010365667784892
Pd 16.72061747492631 12.777291060001815 12.528748182531615
Pd 17.832359033567155 21.174051786350557 13.281409388142409
Pd 13.644495399482363 9.705025491823246 13.066166836711659
Pd 19.711750935870302 9.918740848730348 14.827235751911841
Pd 18.206983730946273 10.561330291886678 12.812279970759363
Pd 13.53154114339439 14.792092472542334 9.730233838011499
Pd 13.765580154343349 15.953501598395018 18.901784748024365
Pd 12.748182905761743 17.770262947850508 14.796655202822814
Pd 10.523496216814447 12.124891952516766 11.395696895434536
Pd 15.78388074439333 14.49252362103763 8.321423040404499
Pd 12.865808540085133 10.655831054719402 15.236840650988174
Pd 14.694203618633244 10.526053160532015 10.894078047696462
Pd 11.989607556721369 14.11708753393693 18.788886138939834
