54
Energy = -234.42001855 eV
Pd 18.026334760139978 13.365971236622299 9.772221013280562
Pd 17.242753100230377 14.078225798347859 12.125823501089231
Pd 18.464293792899333 11.75567405332447 12.127052489489959
Pd 15.37887372180532 13.75360881515226 9.840961397745353
Pd 16.776238752835866 12.299032295674829 14.222223455550571
Pd 15.316581184319238 14.632914406131407 13.869096007322115
Pd 15.483574269547098 15.958901602108158 11.565908050052949
Pd 16.637134839835422 11.262829743753029 10.325184247825822
Pd 14.749056786676363 12.883904293413048 15.76181667849463
Pd 16.467443130964355 10.057314714126983 12.767741183326756
Pd 13.778770946717904 15.859383867960327 9.541025311295408
Pd 15.146189992926905 12.494321657762287 12.189842165621027
Pd 13.603543545064138 16.68292557543861 13.334530827710722
Pd 15.139141073801941 10.20739416435855 15.11669205705209
Pd 13.526064047452465 15.3286173083559 15.670814648043748
Pd 12.015308390712196 16.81683438533571 11.246013380834492
Pd 12.94234737231482 12.211584386192897 10.596109531305771
Pd 12.645537473317743 13.494467676051382 17.367574013226882
Pd 14.597844130067559 11.316082185794023 8.684813810990118
Pd 13.339781310768096 13.572961647561524 8.116177231835701
Pd 12.381732964732446 13.346250168280875 14.328406119388642
Pd 13.41502579069722 11.010464305392718 13.323560958333116
Pd 11.761297868886588 17.214815304201384 15.10250689120841
Pd 13.263532354589977 14.46420007525955 11.941459022116778
Pd 14.445043665962178 9.942911630595107 10.9840240481446
Pd 12.792719154927807 11.181749645534305 16.069432088309544
Pd 14.4544905825078 8.345563296561311 13.103845297311826
Pd 10.806649653201962 14.91953935774517 15.991785974617011
Pd 13.31814162609102 7.6027608724037625 10.589679738739017
Pd 12.44888894531762 9.793743123854373 9.230885218060873
Pd 10.806186998924884 15.550420578924673 13.30338977205659
Pd 12.63729712929331 8.835257686674787 14.94469925553062
Pd 11.156713452603336 12.081210078828645 8.489724539106717
Pd 10.86085340200368 11.015069707678997 13.779965781681135
Pd 10.891092453619315 13.22058912301444 12.063688819837028
Pd 11.47139143549498 14.476494240668329 9.74161269497667
Pd 9.631578887102403 15.921718435839763 10.844690251161635
Pd 10.535436024371771 10.878580662196862 10.828531361662879
Pd 11.883879305392359 8.942472636489184 12.34163114774307
Pd 10.443664169356193 12.338340517297144 16.47435731743283
Pd 9.393935053015904 13.368054799058514 14.352738501991267
Pd 10.640510456499921 9.715284443532763 16.52073192632359
Pd 10.728056376488246 7.952364783287234 10.207400138866655
Pd 9.790819732604762 9.826402691791113 8.458798503711026
Pd 10.039854301561155 8.413363570821831 14.358143125264712
Pd 9.108666635895645 13.161825047132163 9.96761771082946
Pd 7.303433710239816 15.111615503520165 9.973720564480447
Pd 8.16441654229306 14.431261073918174 12.3907137798813
Pd 8.607201168993816 10.747880547257465 15.058692325816068
Pd 8.452689963927924 11.737499684015479 12.505065366938261
Pd 9.053403739332078 9.147284707343239 12.107806315136514
Pd 8.154608871152073 8.211779625751646 9.795737587405545
Pd 7.869663801002884 10.803912941210882 10.048135971356967
Pd 6.52542293428687 12.829075113599629 10.988916278707524
