52
Energy = -225.89533499 eV
Pd 6.630902057037826 10.63228442367561 7.613352266285556
Pd 8.829743335131445 11.204942014297384 9.74409946393887
Pd 12.3099680218659 14.172876820080672 8.526818613636097
Pd 12.08799863805217 7.1282849011255 9.220171257711645
Pd 5.755910332803325 9.408928950018094 12.681721653170902
Pd 7.639311303453919 8.154816069479212 6.51204356109757
Pd 10.337313681307329 9.106175203105744 10.62807101527168
Pd 14.93955043304203 11.186871102785865 11.281832189229116
Pd 10.270251903900384 8.939576188675579 5.341804101367708
Pd 8.358159570439922 12.929869232503403 13.994781521840444
Pd 14.062769776357161 8.904928069865443 12.917461670581373
Pd 10.878665754887827 13.566309643209953 13.17636967371741
Pd 6.035056773967502 10.186832186621933 10.143559551553352
Pd 8.777329227749433 13.570894611472816 11.36189019803921
Pd 7.020359188078021 11.6756939390788 12.025476397441727
Pd 7.859039160817286 10.436446029686666 5.128553703192114
Pd 6.318585484771083 7.413045377840157 10.769333320863296
Pd 9.849230564755143 7.147568161185794 13.103043223284411
Pd 12.313793290453992 7.360717458136451 14.454119835975147
Pd 11.331576508715601 9.389373286018229 13.044456643889854
Pd 8.162860463064124 8.837134991996148 11.985538866599018
Pd 7.542879793641037 6.281956168234671 8.52445688810876
Pd 9.276177400021192 10.183422982158797 7.341008249337532
Pd 10.413648355296468 11.422360980286387 14.839934687660087
Pd 13.547344369462209 11.617374147157449 8.758499135693816
Pd 8.091878728358502 8.749215442634524 9.232942491493619
Pd 9.448850452352858 6.613202988065051 10.469526305265425
Pd 11.510023269309183 9.63430634656669 8.429883664046562
Pd 9.92593306330403 7.451499377089628 7.781011201530931
Pd 12.578825634704607 10.398590598934307 6.1897574821394565
Pd 12.86936590670247 9.755753401619963 10.71639908988594
Pd 12.701194738642494 9.971511712077646 15.200154645484353
Pd 12.62286512579475 11.691503897620287 12.659519618676802
Pd 9.672741483794182 11.20271440853207 12.288241449440626
Pd 5.598939156291627 8.233551448358138 8.289036577197411
Pd 11.07268666331309 12.0826139168439 7.644809841870124
Pd 12.747071506097656 12.654695345747866 15.092237673715017
Pd 10.1267444240697 8.769719728478185 15.292667631162868
Pd 11.270118670827959 12.057298075556496 10.340056409143688
Pd 14.082530271515509 9.03621732095716 8.262515714796377
Pd 10.377713204708087 14.241527132665624 6.3845763410892875
Pd 14.408485275767392 7.605826873263998 10.530210687286509
Pd 12.345304645342647 7.733258341238541 6.594930176281044
Pd 8.25849986771835 12.623224636930473 6.9099431626377585
Pd 9.485248455719814 13.88785640481978 8.884594042860849
Pd 10.261361552522919 11.723809389374116 5.182674301142962
Pd 6.880084920988784 12.795947860247644 9.342365050342423
Pd 12.127572283374064 7.116830736331844 11.780899604590706
Pd 13.494796788903994 13.412000124704774 10.798832644692823
Pd 8.048057989506278 10.187642046335545 14.203707426617918
Pd 11.120973904369663 14.786225055916553 10.836428456800528
Pd 14.806071595941129 11.207139419405689 14.026045589334956
