53
Energy = -230.62191396 eV
Pd 14.487031954819102 8.432606238052223 9.490557963749362
Pd 16.136064932716042 9.598241949333866 11.327059042126818
Pd 15.184672000642387 11.073723097487859 9.225605907530772
Pd 15.41062904677055 12.231725621304628 11.73903996138135
Pd 12.762619645843051 7.315053790496318 7.693723413412604
Pd 12.404458123163169 6.860617158302592 10.380289664427982
Pd 14.702944371113192 10.356188939391222 13.597360126963206
Pd 14.075150485860961 7.974618806146404 12.1777068778173
Pd 14.46988869376017 13.678463519374558 9.552162460518169
Pd 13.493606675120558 10.36621845786095 11.226031220799992
Pd 13.508231307079768 9.901720809863422 7.368196103340279
Pd 14.25828724110107 12.497934283466376 7.061932907091116
Pd 12.858102824773127 8.610492734564502 14.480869526382243
Pd 11.839089153670256 9.261772739563472 9.411455910345923
Pd 10.203093765980968 7.133964212096676 8.715734624727899
Pd 13.83337438488573 12.891324439786334 14.038744914876226
Pd 10.835946605071141 9.187269960616465 6.963401663491788
Pd 12.365264438510016 15.233317426897269 10.317445586119254
Pd 9.90790503625023 6.4942695560571915 11.31224221407614
Pd 11.627078909920346 11.734907167443952 6.608461580466234
Pd 12.00582369125052 10.825218759943054 16.07716732217048
Pd 12.840864050518945 13.009869242361516 11.627973566703524
Pd 11.395846155913151 8.673765432806217 12.195983617069626
Pd 10.949896168432387 6.680562066653267 13.819068886930992
Pd 12.284906865944357 14.219724726083092 7.819025450468636
Pd 12.532930125945505 11.918643936996911 9.107437948133974
Pd 12.006511970265777 11.02611278398661 13.52830449044206
Pd 10.295238355592746 15.817978650781374 8.677351820380514
Pd 9.814708038042244 11.145566387353663 8.623213515249015
Pd 10.979860071946176 11.132164436491207 11.031305311290525
Pd 12.031233785916974 15.067065938514714 13.14990448498459
Pd 10.285083079715534 8.973510428127405 15.055610634747717
Pd 8.31720542803257 8.9753584094556 7.9758399962383635
Pd 11.325550966241117 13.286467485269894 15.037478714610975
Pd 9.335665856765452 9.1430068804159 10.492141340791026
Pd 7.87126141331802 11.500485920330012 6.950565511560072
Pd 10.268071253168895 13.522656536319305 9.947849668490749
Pd 10.040540454568651 15.789187886290604 11.480233634160957
Pd 9.73123396113522 13.526632016338505 7.272489224707983
Pd 7.7080291465522714 7.16568131338574 9.892144735674105
Pd 10.270683920285785 13.068103640075115 12.621776504413374
Pd 8.643964010758253 7.944795787464286 13.126679258340559
Pd 9.412826847469484 10.46610388114778 13.071757078657315
Pd 8.403783797722813 11.714491787016376 11.039439501685008
Pd 7.686978728534962 13.25602925059039 9.003705699665776
Pd 9.42575231853634 11.480659967398763 15.506843537934675
Pd 9.321868226861904 15.049082798850339 14.001843521185815
Pd 6.7729112789702395 10.674156025417796 9.264295759113244
Pd 6.880440917005516 9.183674843584257 11.485154505032758
Pd 7.906316144275145 14.261001320632456 11.558976573429447
Pd 7.046471036571487 10.16013572627691 14.035489046306127
Pd 7.8307146995895245 12.737975669566804 13.802198280346326
Pd 6.045441866007392 11.663635584037293 12.05584632333095
