51
Energy = -221.57196662 eV
Pd 16.025326267482956 9.042332328068749 9.761857858335743
Pd 14.26255820792679 7.095474377064919 10.408634878400054
Pd 15.159838229049925 11.45288725107954 8.85346804671273
Pd 16.102679368752092 11.165950236593867 11.364948926741878
Pd 11.908805582623357 7.1517570907863455 9.304003804824212
Pd 15.848490067119373 13.612623846084437 10.261324053213643
Pd 13.528522132110579 6.765556484060303 12.925464442596807
Pd 13.493510054488086 9.316549916802806 9.130074731555238
Pd 14.769433900596063 9.0533204514991 12.150211251593527
Pd 9.772025950868608 7.206219289292776 7.728289839044512
Pd 12.684231656687329 11.478730007615788 7.865415286962527
Pd 13.410664160774685 11.523350506894976 10.888514870881307
Pd 11.044021312098721 6.485832131010665 11.94797151958597
Pd 15.45103285992442 10.841467126320774 13.990718277922092
Pd 11.328350556087353 9.275286757108764 7.462872573852918
Pd 13.746085393340321 13.767001107524989 8.54131441826085
Pd 14.217464015681209 8.642546032069065 14.767234208463739
Pd 14.858649526699628 13.055477804540997 12.688509752646677
Pd 13.496234498847679 14.550121506964727 11.00633274587954
Pd 12.178338697904852 8.814742666866442 11.520637120960352
Pd 11.666524515349671 8.248427324379934 14.142205923727776
Pd 10.863281262847101 10.268840350676312 9.845303280467101
Pd 12.73603394078305 10.670915092998653 13.358865358705154
Pd 8.657731841203207 9.595223537908403 8.341102610924931
Pd 10.117020040894989 11.753316993965486 7.4586435083440765
Pd 11.405343787902963 12.871109621941066 9.792061964038206
Pd 12.374303288261384 10.258443599888171 15.918421008249021
Pd 9.545353601237178 7.884842010293099 10.21585102115384
Pd 13.731011121889347 12.596264764635047 15.04083671319445
Pd 11.956477399236388 13.132118508167293 12.746820234410572
Pd 13.47772978878906 15.126196463019651 13.58986903425585
Pd 11.657664701557586 15.43746431090499 9.25921781518647
Pd 9.417492965953544 14.17067865774331 8.447402170201466
Pd 8.680178904422016 11.953597639730484 9.680201486677186
Pd 7.900879985393185 9.814472143251441 10.938175136417772
Pd 9.549160003426945 8.626259725442138 12.66806296135526
Pd 12.23448786654934 14.724791564529932 15.84711517079357
Pd 10.173992717704662 11.193290121869639 12.192586235276794
Pd 11.428142001802849 15.837649708799697 11.90269823210572
Pd 9.65762418345093 13.762686069894976 11.481328504378192
Pd 9.90495009729449 10.168845654975716 14.836760217027875
Pd 11.072492997495443 12.476372253572068 15.167694858112508
Pd 11.577346200972176 16.88809111130269 14.341042922219835
Pd 10.08331460971607 14.714259196661379 14.167885514673642
Pd 9.233708233932587 16.08398342657497 10.359644933256146
Pd 7.277847612311876 14.255282290529886 10.148929742923572
Pd 7.21849642606043 12.224571129536967 11.876940807334483
Pd 7.524897767787631 10.147063344305147 13.54157318498203
Pd 9.251636663978273 16.92158603474414 12.903919826351151
Pd 8.688459082414644 12.485193724806244 14.049293893782538
Pd 7.69039896415163 14.74609570353022 12.822218284533816
