53
Energy = -230.3849517 eV
Pd 13.175316478713832 6.957214128685286 12.57497987668412
Pd 10.861943905117656 7.243951496098689 11.398784933960028
Pd 10.923701393681034 6.960059677165675 14.061867779679758
Pd 13.00971802580717 9.013731068803688 10.638894600931511
Pd 14.71415966919251 9.003597636867234 12.826260287675211
Pd 13.116357139813942 8.370307530933255 14.955898979122331
Pd 14.952404688881513 10.23752718814916 15.155556861238086
Pd 11.80767428100538 9.452223276208162 12.939537550453892
Pd 16.31173957143469 11.130684029337631 12.942366408822652
Pd 14.385682292786136 9.536365638743575 8.36783135589801
Pd 15.755452270771078 9.924214427517514 10.627190212639215
Pd 10.274366765322892 9.596430192798111 10.565274157753642
Pd 9.221665632434044 8.871688020301846 12.993326055659228
Pd 16.966521345658634 11.844291460837127 15.483617275207227
Pd 13.88799997215656 12.008564096540631 7.517687020547243
Pd 13.940454939914444 11.643223351421442 10.17694991267595
Pd 15.749900532152285 13.331260991531602 11.47947329627462
Pd 10.527185400516059 9.176251452450321 15.41905899250243
Pd 17.67975748359796 13.341534409103744 13.427657510999397
Pd 13.589047988405142 11.416873578708763 12.769255742991124
Pd 12.498388783432086 11.045965075358625 15.395115263324657
Pd 11.889268670479053 10.518326430124715 8.678599065243858
Pd 14.552593801355915 12.57157987858187 16.473314787794198
Pd 14.812945627901179 13.322506336449571 14.018731411118777
Pd 9.63807189791976 11.878527778734568 9.35906180189619
Pd 8.504304924076965 11.151099933229103 11.79419952913702
Pd 10.146749180229078 11.505615792258467 16.61250594344121
Pd 11.302537604297674 11.895585942640542 11.454920408837365
Pd 16.561579175699716 14.452309878608451 15.694123301798701
Pd 11.995768874524202 13.167981039329478 8.962852473109457
Pd 13.064839852260578 13.8989100676152 11.513117371825246
Pd 10.084395803615086 11.363962971062712 13.937119810127085
Pd 12.02639683473913 13.433794461911019 16.579164808112598
Pd 13.938382918234543 15.181430763816788 16.04088565350704
Pd 16.256746509966685 15.539761760548402 13.188115933391856
Pd 11.997032142817144 13.376239476904834 13.89787870227273
Pd 14.522680087404332 14.079023380422754 9.132999767076612
Pd 7.768314034771374 13.37766464254451 10.576526487699725
Pd 13.531632430491767 15.729091896271624 13.428300662463906
Pd 9.611902400687175 13.728856189065835 15.295192312172036
Pd 10.094825953785104 14.487052888574055 10.091954395138425
Pd 9.486352115601475 13.598222967308267 12.591815049043626
Pd 14.87628281087365 15.945767688309548 10.968513340596965
Pd 11.070690534049906 15.685464593672526 12.193818504532135
Pd 15.827144605047947 16.98088905806277 15.37100284719969
Pd 11.424257548384244 15.716610527089527 15.265614547977226
Pd 12.40093319267429 15.787086762365425 9.726399162998447
Pd 9.111208060330704 15.934019934600565 13.92381184906563
Pd 12.809301517296978 17.631005419724065 11.582224404462924
Pd 13.302348878404297 17.68298613691017 15.219421610291352
Pd 15.109890544473283 17.903969613042833 12.952144681518513
Pd 11.055004733317077 17.838562442788472 13.707208131202947
Pd 13.067596511166434 19.539966965161423 13.39805760211012
