5
Energy = -16.19019809 eV
Pd 7.6935599900264835 7.054880318247551 6.757433463401329
Pd 5.28455484617114 7.253481133094355 7.094843537696132
Pd 6.559314064959933 5.2396804815181515 8.081815783190912
Pd 6.623590825022436 5.070051439670104 5.461275619062023
Pd 5.8403949684359056 7.383370526860103 4.6048976714327265
