50
Energy = -216.60179302 eV
Pd 15.976260343250106 10.37313538947259 8.373350466629029
Pd 13.874511767115695 9.586710202469078 6.805132124764314
Pd 14.62583389573824 8.121860186945108 8.89966790518398
Pd 14.192374003659447 12.19222289281211 7.423028974098812
Pd 15.380411792220787 10.155768523612762 11.191548234798981
Pd 15.452586750953458 12.5497923704421 9.829447876186022
Pd 12.378604638006362 6.701665795529672 12.853022684970716
Pd 15.13206206816619 12.591395100314314 12.484753156097625
Pd 15.112061980256383 14.927671669792492 10.868176423222
Pd 13.437251656765964 10.527381053043289 9.438074071108895
Pd 14.445252589604046 14.665837984414532 8.312225040653555
Pd 13.407195175860654 9.114538907086684 13.688814754100559
Pd 13.290874676601808 8.430094277875236 11.074804206126295
Pd 11.761471545465225 11.069238768181073 7.358643461750299
Pd 11.90041455932154 8.56741935967215 8.549131506277377
Pd 9.7533231682415 6.965052180704019 12.718658685012889
Pd 11.165247631986519 6.856032920740448 10.439967401068916
Pd 11.129957074761391 8.040580633703055 14.769730705616421
Pd 11.978562121044902 13.765888147696444 7.709171060733343
Pd 12.853525562116362 12.998952181855854 10.060150174570936
Pd 12.956536612336908 11.197399283282136 12.073031285118098
Pd 13.161548286925346 12.566227915636432 14.41468058692878
Pd 12.524244298475034 15.588625545211853 10.052459711588623
Pd 11.108927440127903 9.278273833797332 12.165080108998264
Pd 13.090298766279801 14.268075804463107 12.36736313705186
Pd 8.251690001617726 6.534868757819261 10.466372599057
Pd 9.35762756744063 8.86803941793276 10.386284665081503
Pd 9.691055335473532 7.053810455440749 8.20662737266295
Pd 10.886765848927693 12.764774414687217 12.772975940601892
Pd 9.621860646162974 12.430693702905312 7.864166929771947
Pd 11.870372933486108 15.018297027766378 14.540776992291661
Pd 11.264543070209868 10.647683770146047 14.434130973091776
Pd 10.356326550375718 13.928119243584723 9.932667394776143
Pd 10.819302831071962 11.10639019509106 10.046498563225091
Pd 9.571357823036573 9.70108790814557 7.7448035881449755
Pd 10.69703520681468 15.447464511883252 12.094422428727745
Pd 10.872432738154105 12.894208113028613 15.757740954198969
Pd 8.903879673361331 9.249838773756403 13.823644695732717
Pd 7.190326361178111 7.4879650164130735 12.687223916029154
Pd 7.355027808786877 8.415988417796932 8.741309132847867
Pd 8.888844810933474 11.157422831564782 11.916160249243113
Pd 9.283304019237823 14.44353486602149 14.233536137476952
Pd 6.729757097996051 9.464931481439391 11.126797529299353
Pd 7.745608266080863 13.665295378355191 9.277741163792738
Pd 8.80455300455353 11.814119387831113 14.52653382041106
Pd 7.918615105268495 11.023962088311134 9.353161336957733
Pd 8.51258753684335 13.82458369452196 11.76708683096005
Pd 6.651612309178488 10.631288297785016 13.47392966877857
Pd 6.426021521529278 12.203514376324373 11.24991540274572
Pd 6.812302307094173 13.369139785616342 13.704613525511677
