55
Energy = -219.78331446 eV
Pd 7.400728094520036 11.081873094702734 12.59693478950532
Pd 12.79484785609593 16.043066520679215 14.79773291853975
Pd 18.54441296285445 16.42392082995012 11.940721995491126
Pd 10.777934149207677 14.586922118779162 15.700728609807024
Pd 10.713190076105278 16.5261040902326 10.765259947246939
Pd 8.286524498544514 15.51053980687519 14.159616033069929
Pd 19.155764221572326 12.763622455339405 7.187665870404321
Pd 13.529051935140911 11.115094204370456 14.795338057261562
Pd 11.375775758762904 12.14017171527062 16.339325738777546
Pd 18.753793735807108 10.458795374989691 7.946630282287778
Pd 9.718579965446695 9.930765187906822 8.281917564130643
Pd 9.145797229873864 11.377239304387128 17.36242951328096
Pd 8.369125550812097 12.645588946026486 10.763273967107276
Pd 18.378610285732936 8.00808205852413 10.924791890188343
Pd 12.088440227354543 9.659889911144212 16.615539382570404
Pd 10.604656288324016 11.273099071318534 11.884863039098562
Pd 15.637646284056814 12.763374472477823 14.584564374232368
Pd 9.273445008058333 13.203180030136066 13.343050946553104
Pd 9.0589908594579 9.070700554062988 13.162869261444708
Pd 8.503596206959118 11.141398261287327 14.877084184870814
Pd 14.639364242203072 9.744936673858014 16.73395369986163
Pd 17.839069811025013 12.592441422392108 9.382141220827574
Pd 9.614396113762592 8.895001245721003 15.807994398491413
Pd 8.927566919496991 16.78793157621202 9.012549436805978
Pd 9.458159926235979 14.315831472633803 9.051539531443003
Pd 13.45596455544948 13.639348583909733 15.75012871832986
Pd 11.936630094264226 12.988726405434472 13.606507445207367
Pd 18.033924061273808 8.068818339421874 8.302922213921816
Pd 17.362670983830704 9.837806520475903 12.533612174343046
Pd 10.233834284122384 9.237825861391968 18.310239597649023
Pd 16.079665364189502 10.25103136557481 14.695367271747513
Pd 11.01711865898838 10.483983677457934 14.250474944492211
Pd 8.427080771840211 13.490857746418724 15.927108495732147
Pd 18.125917830639036 11.91599104430162 14.50095882682894
Pd 17.6710258034064 12.343085288902113 11.980079538237343
Pd 18.974571176352928 10.528767183179061 10.507925940637035
Pd 19.20098936931324 14.186311754831163 10.869097310271256
Pd 18.927157167689007 18.35882889637647 13.503449062151493
Pd 11.025587388525818 13.836056097379695 11.183198177681296
Pd 16.737207074810353 16.392253957889142 16.798427633981433
Pd 17.53827008731532 16.42053223064362 14.358972156064345
Pd 15.23269503791138 15.392931299613155 14.893524604904671
Pd 10.567502657656481 12.029179130265245 9.352471241366635
Pd 16.563290734560148 9.630321515672927 9.88281247712112
Pd 8.763751400167145 9.949036640665492 10.631714407173611
Pd 17.48600633627894 14.090619729095392 15.866731471207512
Pd 10.491409328944231 17.30828734714618 15.117756701295
Pd 8.778063798375946 15.956419330785115 16.79795518545171
Pd 7.903892671018968 17.870629664627018 15.229322628550308
Pd 8.092366685077513 19.860053028460122 13.67950453993106
Pd 16.311366398073645 9.85094952619174 7.275139337088629
Pd 10.826115900433507 15.509955030711456 13.142465083341317
Pd 8.506158526785457 15.217562397978288 11.439942679122483
Pd 18.667011791727173 14.236601464854862 13.449565608526354
Pd 9.108599216339767 17.692971903840306 12.779421237117349
