51
Energy = -221.9353723 eV
Pd 12.542588918748416 16.360211299472542 11.511915884937904
Pd 12.346946805032887 15.237683433050393 9.110467802149907
Pd 16.05907458757342 12.67915409205301 10.216145095436
Pd 13.844935957632858 12.924293897952667 8.780634172684108
Pd 13.40283359462562 11.063845092279468 6.943250159499617
Pd 12.173708085674212 13.69978364377639 6.8826238041600645
Pd 14.18778896845113 14.408069298557427 10.908859215743817
Pd 15.100753312371063 10.482495308152512 8.98918200250278
Pd 10.23296405482542 15.103725445643347 10.99094959295917
Pd 15.878510118235944 10.473667893416934 11.648653474305362
Pd 15.574113251550312 13.07126200288902 12.82168682387883
Pd 12.766225258599825 17.487639999902555 13.849252753519972
Pd 9.947228668236955 14.148825679868086 8.494717038739909
Pd 12.231501027753183 13.94537972681438 12.822011654123344
Pd 9.628836062918317 13.187670614482506 6.061889476121747
Pd 11.552551353867395 12.938049929934422 10.286175354598857
Pd 13.26677002775986 8.58936139069852 8.039617142465513
Pd 13.547088520911547 11.728968616276639 11.70225652449642
Pd 12.469557784023477 10.57334178268898 9.548577590598661
Pd 10.580626318504741 15.973300340519568 13.497125079688272
Pd 14.810456677914086 10.808642729073924 14.085445459210598
Pd 14.027539915779096 8.740891758653301 10.691479772933594
Pd 10.980231249802838 11.551828109828584 7.6218738276707585
Pd 15.090464327449984 8.357347665918535 13.053883162604393
Pd 14.406138972204097 15.410158870612387 13.392011614216816
Pd 8.42829832981739 11.95157381265606 8.08859842975683
Pd 11.478950149673278 7.9302178904960305 10.129429268708332
Pd 14.026503178252032 13.194543355522619 14.960928979314383
Pd 12.502634997068439 15.383857452850055 15.339764926875233
Pd 10.526886863095616 9.037981356867228 7.971634599997987
Pd 8.500540711773146 13.116688969245955 10.500967577976057
Pd 8.639067013946669 14.21008251856842 12.997310262875445
Pd 10.210914482088128 12.170762966943153 12.417358870864891
Pd 9.921815055098289 10.743801100582788 10.06272020995508
Pd 12.10894770918181 11.510865759963561 14.083023705158013
Pd 10.445183988615078 13.688709160563779 14.954106214915852
Pd 12.668911567426937 7.333440567546855 12.453758954681438
Pd 13.001057741930962 8.957310099897358 14.550751566963982
Pd 11.603483441300238 9.821458015052833 12.08786160837327
Pd 13.35516438659927 10.90990935725414 16.38815528924613
Pd 8.813894605371852 8.405343809058676 10.086957317244975
Pd 12.242206781169601 13.306275877671817 16.9206190369049
Pd 7.21485591697956 10.68756396277241 10.100869393095968
Pd 7.001306406991096 12.102585252126048 12.429087629967741
Pd 8.614019656571804 11.727564620231284 14.503849303858209
Pd 8.575352270891559 9.985189814287391 12.349427180870459
Pd 10.595328883782576 11.372564359349845 16.243707429974634
Pd 11.174751367468252 7.0538870581508295 14.666511591169957
Pd 10.08678442394168 9.474570339644869 14.454837352623208
Pd 9.942153208290156 7.688304328592449 12.393591448520903
Pd 11.51418931273915 8.92788854656308 16.691341852801816
