55
Energy = -240.36696016 eV
Pd 8.925981053597926 8.657727449689279 6.962369798575242
Pd 12.98113353881376 7.643422926185736 10.302158812544603
Pd 10.439274376812708 7.037516040835514 10.96852293669671
Pd 10.34301540471576 11.109576391162562 8.658893150818813
Pd 8.53885988641765 13.02043463073031 8.238640871270254
Pd 10.765908464332027 12.778271410124145 6.579646369514307
Pd 8.744996949204706 11.183201872502092 6.243845332784843
Pd 6.7075108473851035 11.51634517672065 13.028767950081837
Pd 11.783736569457883 10.115789620427314 12.713808481975976
Pd 12.041319445805284 12.793949567404534 10.06213492576742
Pd 13.85054825597755 11.617985046213077 11.814993216219122
Pd 12.31490152739444 7.534635490476147 12.880480328582522
Pd 7.786629778344962 10.424313179138101 8.64338288460621
Pd 8.888969768284788 8.6763999465704 15.773314711672537
Pd 7.223998307492624 8.964313712510641 13.714770244133748
Pd 16.225165704023404 11.846539455433396 10.468147656763476
Pd 13.70056448225129 14.423902198009582 11.82425392510343
Pd 15.422613231898351 10.908573358651452 8.046535296477101
Pd 9.563388714808873 12.312400558240565 11.009152189213959
Pd 7.107099695165081 14.057458394564089 12.414443448190283
Pd 8.403368876389509 7.907333396103339 9.412363215289131
Pd 11.990423660287465 15.497615073454353 13.599102126863203
Pd 11.231541945810715 9.913824183469602 6.440697183850684
Pd 15.93674233871298 10.228303124469305 12.620667001013047
Pd 14.467454653983319 13.16880567912068 9.048419996404998
Pd 16.036584572726944 14.537855026622907 10.639638658055125
Pd 10.746430840197307 14.553348811782373 8.600354897126085
Pd 11.566162452463987 12.766061390941015 12.721586178660496
Pd 9.292594217036811 10.91632088281851 13.283223866695648
Pd 15.167693979077043 11.503732760492591 14.904211686348166
Pd 14.914116730954463 7.735708965588693 12.19579699241284
Pd 7.313462277499553 9.703970414595444 11.160187715133622
Pd 9.98520009232858 11.102693729361912 15.764004912663594
Pd 8.36723425639253 13.011512353739729 14.622698933529122
Pd 9.922729329715354 9.668966543334824 10.875047890608899
Pd 13.46921991230364 9.009645037713918 7.944360290091924
Pd 7.07307321445702 12.262586972877175 10.435477266654644
Pd 12.92781990686087 11.587094250830358 7.621562294818836
Pd 15.836668316870368 13.042316836062398 12.861230985836885
Pd 7.849508630401976 7.1613266338041415 11.855183134007149
Pd 13.919749274639134 9.313433297683721 14.070396999724387
Pd 9.77311784944252 8.177946557546441 13.313088505312205
Pd 11.517131237662893 8.869184150508417 15.185501004452323
Pd 13.32521720058416 15.479186084604512 9.453662406961366
Pd 11.233866173653048 15.260630653977493 11.071463762384502
Pd 8.718923987270744 14.67781194661024 10.345697811190078
Pd 12.497930862361478 11.34471021511252 15.051187402915415
Pd 9.582382668734995 14.568312185865055 12.979120263478773
Pd 12.93726768484647 14.17640405369596 7.143079627206751
Pd 10.97879941540512 13.561955744805822 15.19728364570273
Pd 10.984764607664625 8.29352959587368 8.612727526078224
Pd 15.007494873416807 9.457814416394458 10.19366280984279
Pd 12.41269778320522 10.170522432540851 10.137047116130239
Pd 13.649432798943874 13.61077139350299 14.378048627567566
Pd 7.281302375514172 10.809733778505104 15.587679733996637
