5
Energy = -16.10697263 eV
Pd 9.929836604260773 7.410519880521276 8.86506711277499
Pd 10.416016814080622 10.198070674103688 8.793866467194883
Pd 8.384838911112922 9.06269142102571 7.685152898727083
Pd 12.245879608950581 8.44069243288996 8.509327369792265
Pd 8.577157500194568 9.098449192080507 10.270916421400216
