5
Energy = -15.26634042 eV
Pd 8.660871888516244 10.498611745316497 8.652764437546923
Pd 10.41557471266486 8.765998284735527 7.975524303130312
Pd 8.317834253466696 9.08821884389787 6.55741265045974
Pd 8.143823638351591 7.980961061252577 8.935376407825421
Pd 7.30383169621131 6.501163596865349 10.71412568957512
