52
Energy = -226.58969897 eV
Pd 9.333780047234594 10.60192275330365 15.92366821842743
Pd 12.203877607107598 11.017314309453937 16.0123185553788
Pd 10.615908656653415 13.123256178745608 16.243133207501497
Pd 7.179838979517884 10.667896701314222 14.271571632367856
Pd 13.749918245895802 8.86155601524405 15.842465213459997
Pd 11.13152799511552 8.627706916154391 15.279559025704996
Pd 8.437044821000026 13.04283494742972 14.707298821392055
Pd 9.303231295639605 9.200305494855236 13.493280086179222
Pd 12.98125120871657 13.508991846505756 14.93345130543375
Pd 14.484291511213293 11.230295266893418 14.636024502010045
Pd 10.677277361235927 11.6165396119132 13.96850807897994
Pd 6.225305559503071 12.991345368249206 13.153094625415896
Pd 6.227902484276021 10.675709376417325 11.678612914120583
Pd 12.927706290525972 7.052317628433798 13.931389087565478
Pd 10.660109485082 14.539324922238228 13.98160159072001
Pd 12.606591018602597 9.591035103960941 13.32486432913159
Pd 15.169792918149295 8.808807527792451 13.591086998159403
Pd 11.107424703927368 7.787823693765791 11.960382601168131
Pd 8.559744075719685 11.688095283846499 12.296205721014115
Pd 10.85137195578879 10.389618665043278 11.525007629491776
Pd 8.377619931076206 14.463603547898277 12.445189603954722
Pd 8.416685244923178 9.246978036658955 11.004634934786697
Pd 15.12784565539211 13.47505189838687 13.25173195990035
Pd 12.867380694587444 12.12881798073621 12.677635520903728
Pd 6.94299114466712 13.127180623522628 10.564552520546522
Pd 13.853861381472976 7.679655076289095 11.482247834354752
Pd 16.145024499251885 11.096059097979737 12.520785318062643
Pd 16.442523138366962 8.754221019496004 11.273442424492318
Pd 14.041144934612694 10.368225990632117 11.1490348205056
Pd 7.132436211635091 10.752453743616647 9.113669461291217
Pd 12.355119831921744 8.986393715203063 9.619269112063039
Pd 10.691634776133904 13.201993671884553 11.687989200416794
Pd 9.95686588453444 9.584864513201907 8.90048295507837
Pd 9.311958345459244 11.995306487717297 9.755071437553775
Pd 14.924543239354055 8.56466565971481 9.130962765470093
Pd 16.632864558860806 13.264623297225864 10.942438345751091
Pd 7.656035001269617 13.395174033484539 8.003592316269062
Pd 12.862939619661 14.860253458374313 12.427762664720465
Pd 11.940415512070052 11.824974822892955 9.653954340487532
Pd 14.086890953236026 13.070081443414155 10.538815330095249
Pd 9.09989633839797 14.703500464130416 9.839073268885466
Pd 16.274576230768552 10.90374194493587 9.713578787588851
Pd 10.489521651284925 16.02248192211294 11.734143235233189
Pd 15.241130916824938 15.484273524903951 11.508136922208449
Pd 13.99903293114869 10.89733485372827 8.280380172194757
Pd 8.897069029944682 11.211432509772091 7.077288049470815
Pd 11.848815543617595 14.679790401961645 9.811724857218023
Pd 10.398091597129293 13.415056833554505 7.772840670348883
Pd 15.610965461370679 13.11031739777629 8.383609003343983
Pd 11.564540723341521 10.945624955495079 7.20249785479061
Pd 14.257458814154157 15.356864049088907 9.068404026153377
Pd 13.025790150784724 13.35628508989778 7.708301741049205
