51
Energy = -222.15201716 eV
Pd 15.322160362743562 10.689264477361775 10.838608976467647
Pd 16.58010025344922 13.081221805357712 11.228308925220492
Pd 16.236442278905198 11.372372394909668 13.304669020869529
Pd 14.793504753812222 13.591374820219787 13.303252044751023
Pd 14.64155393177521 14.72006088471323 8.681667105042226
Pd 14.53060975928411 11.83613304304745 15.336325570614216
Pd 15.59952545733162 12.212724910291248 8.739910783446817
Pd 15.186425939420051 15.462536113156306 11.31141094249947
Pd 13.872976228115407 9.242681533970714 15.117152527652038
Pd 15.34500020983045 8.922969491899927 12.864047547559366
Pd 13.980252796007793 13.188233185977937 10.790126328511862
Pd 13.963939371503402 9.98071008389667 8.372913710608767
Pd 11.524027283578029 13.822781933219604 10.031609045594683
Pd 12.064089822281426 15.137798496458947 7.704099152884821
Pd 12.687628427201378 15.014703916293028 12.443348743195546
Pd 12.462230489135791 13.414968226566959 14.59843876963668
Pd 11.38035547638188 12.54382867360144 12.32489084210274
Pd 12.870215115174677 16.132273301476438 10.03365777170977
Pd 12.020175811744252 11.023786260560628 15.719805180662089
Pd 12.837886843880913 8.08511372013055 13.060069669913597
Pd 13.06513473970865 12.605650105398134 8.098194790985575
Pd 13.50777162098163 10.996684424526057 12.959301885467909
Pd 13.861858752861723 8.537673314988467 10.637479100705377
Pd 12.271461250719907 6.4551431527742675 11.039725096791042
Pd 11.949447770333142 8.059474196815072 8.777575716266009
Pd 11.355352285805294 10.532765088782662 7.8739757354071225
Pd 12.609435662752192 11.098255278975703 10.357519731863052
Pd 10.988591253468432 10.189043983197717 13.40238348196859
Pd 10.293120379221545 14.744963807984607 13.622323065347386
Pd 10.405892014035285 13.037743606237147 7.661838964706585
Pd 11.201772023351122 9.091740434518913 11.060778067187378
Pd 9.605062854806283 15.316553157999264 8.932510770888646
Pd 10.308907224447111 7.210837849608268 12.837724871327417
Pd 10.017590628099635 11.475159972763295 10.07010380377377
Pd 10.560758743432372 16.199985887252566 11.316113886236991
Pd 9.093224038498061 13.992112941938016 11.356146167915664
Pd 11.18494732155002 8.334084576000006 15.203393552683666
Pd 9.819360843875943 6.768924080063324 10.163572120123746
Pd 9.908471826718086 12.427547356613625 14.820769088665328
Pd 8.677453370771504 11.049758119851314 7.448985531730178
Pd 9.541040321934096 10.233199654086045 16.25156946735289
Pd 9.365263953225327 9.000993986538353 8.883367241639567
Pd 8.845836915608293 11.421572558254242 12.440683382543073
Pd 8.684493467388746 8.968647508903079 14.073733319310415
Pd 8.08740321824039 13.09777185165619 9.112018171809918
Pd 8.614142405345568 8.854032968044477 11.46898050575096
Pd 7.799989569351416 13.705177874691191 13.684046298182478
Pd 7.404344737373926 10.589400992961686 9.857832905278313
Pd 7.486634545264497 11.255642192170878 14.767305827177806
Pd 6.503642896632564 10.147468183077246 12.477744336386303
Pd 6.728679235033088 12.658028075157215 11.41484081996307
