51
Energy = -222.25240731 eV
Pd 7.335888615349604 9.07909833070753 5.824526320259959
Pd 9.678298668861142 10.234893007244128 6.259583127294488
Pd 9.586421814317314 12.607749617870022 7.616690174219031
Pd 7.428673057052401 11.66373906652993 6.359801668789525
Pd 11.84524792880712 11.243107630958711 7.485623275596571
Pd 14.108108610156384 12.303889921852981 8.268621469975802
Pd 11.481426548660092 8.601435872415857 7.377510494835745
Pd 11.84975831592738 13.920967613990474 8.347168926256435
Pd 8.826201399098 7.954253552960656 7.688702756818233
Pd 13.984305649682177 9.644587360215253 8.062657279764421
Pd 6.981943263997639 9.924624641471917 8.330699072320359
Pd 9.232467371439183 14.170609616599586 9.695774928414139
Pd 9.549552682622629 10.195351340438252 8.942914094774117
Pd 7.165814831358831 12.656129943971012 8.812445782595567
Pd 15.86846862752672 10.953370163397993 9.697488385090548
Pd 13.991655956430213 14.267122294153552 9.964466744067801
Pd 14.488414210128683 8.840294213598048 10.605417289424553
Pd 9.153947194663589 12.612216709738222 11.986138248633958
Pd 13.129659135661612 7.202022207720678 8.954461450892955
Pd 12.049137049394316 9.697468350288966 9.889299508069046
Pd 7.531337473648974 10.912458192051469 10.721574771482308
Pd 10.507236060746363 7.481582802347372 9.664636495089558
Pd 11.561260305420163 14.712849392105829 10.94265744031253
Pd 10.993746426762453 12.146339632951166 10.055998744475428
Pd 8.066778704205673 8.297603192800798 10.340624945183732
Pd 6.94567676243921 13.755076212016846 11.203131415556529
Pd 13.536070120708604 11.72693237392217 10.802196217551078
Pd 13.763372420475829 14.441078147647453 12.585974251717879
Pd 12.439556317629592 7.365746248228209 11.50543833280794
Pd 12.559931215805754 9.902245491985626 12.608109328991663
Pd 10.083787341407982 10.100857049450466 11.623692002700208
Pd 9.824520285547186 7.530296117714155 12.258240318371978
Pd 15.725796850480373 10.359176299806204 12.332813937206447
Pd 9.202037597675163 15.244764189100662 12.185641381477883
Pd 7.84499168184634 9.3457457116736 12.887041692647749
Pd 11.70039432705945 12.595672378296431 12.629885664597191
Pd 15.735183642797034 12.94367201378743 11.602751112568017
Pd 6.405731000192516 11.674794568443907 12.961179159247994
Pd 14.410812010054821 8.14012358921722 13.235245496681342
Pd 7.4742784747083455 13.925982063154716 13.84616637886112
Pd 11.590762370407548 15.742819510950858 13.380626776276834
Pd 14.1631381356339 12.004755891396423 13.66834147767209
Pd 11.899224973260422 7.231054615569404 14.029497009853642
Pd 10.241091698158906 9.302323198139788 14.225258958379055
Pd 8.746400794264984 11.493967088162778 14.278785922565374
Pd 10.052166769045698 13.863512345566013 14.442758497860908
Pd 15.384713156984917 10.006014430114385 14.945112031541141
Pd 12.67262534390734 13.896515715204371 14.991073557201004
Pd 12.805535837259251 9.40831261921634 15.192813525842347
Pd 11.30025808782313 11.573914503906924 15.036542220582705
Pd 13.691965346384546 11.696655422824776 16.241972400480265
