51
Energy = -221.52271091 eV
Pd 6.965829560418532 8.829431712035497 14.686410512465244
Pd 6.269712892983352 10.539659748421395 12.619505930367934
Pd 8.36596943542186 10.971253834079358 14.249980132674134
Pd 7.93356125199686 8.57757382635408 12.313803332074183
Pd 9.695982128488758 8.627052365486998 14.785877390061604
Pd 6.67063115526182 10.912533777166656 9.891060136256986
Pd 9.446436801918182 6.62995744061608 12.971888677097681
Pd 6.281566459269006 13.037471380087123 11.539586319519367
Pd 8.77015742727964 9.355902545822731 10.037119650386726
Pd 8.593903977804068 11.643351290266262 11.639677269544457
Pd 10.59603087611562 7.503321159648665 10.7102324472019
Pd 9.051604350228496 15.517416160963279 8.98655513410342
Pd 8.035720254699491 13.456170992419617 13.581952208172426
Pd 8.13769087244934 13.102685521029114 9.510125208447006
Pd 10.669020235132173 11.023203949674762 15.493152711894652
Pd 12.40156161325035 9.03838360630998 15.477587294481033
Pd 10.856731342795372 11.289352226450163 10.235157825415529
Pd 10.284559605219165 9.770936936223864 12.460044408206798
Pd 9.095296075443068 11.087265826773054 8.024083284695985
Pd 11.79649029215159 7.692361679784798 13.260619934216232
Pd 8.129586451197984 15.004362775376867 11.469992716932847
Pd 12.579771603757731 7.153765897540564 8.85365578411988
Pd 13.05167944869784 6.446582588040232 11.328006387569562
Pd 10.913502729121031 9.174930699087147 8.544941501592993
Pd 10.579530062810607 12.404377833897248 13.290595165665001
Pd 10.17452361304693 16.708267555380672 11.12997913006647
Pd 14.913934770172078 9.926583655743597 14.664954406132416
Pd 14.310487958696266 8.109865076259892 12.905919267570804
Pd 10.511036008791391 13.849057157034878 10.974545181913273
Pd 11.739158380928476 11.326072617758259 7.204701760325396
Pd 10.181011646967095 15.070757928949229 13.361422928395967
Pd 13.542462756796661 9.439018416237936 8.116289260852374
Pd 10.51995654970937 13.344570955393804 8.331667613619455
Pd 14.813039527585117 8.204767001175131 10.174556211678182
Pd 13.16877321510344 11.818453932694164 15.629357743584665
Pd 12.54929474115401 9.341463078627134 10.909139679497272
Pd 12.636614666320838 10.559754783346522 13.355306608688796
Pd 13.336471374968653 11.784585303486931 9.367407642982489
Pd 11.707302416152448 15.611176739859506 9.184493749092278
Pd 12.847736411046041 12.654247872822088 11.760160204425528
Pd 12.408036651584464 15.57565856152995 11.911475594370005
Pd 14.894811367039278 10.386719077847895 11.755184307805271
Pd 14.402437607413802 11.531485878277332 6.795275332536512
Pd 13.887256734338685 14.430280070435138 10.014503451500268
Pd 13.039499011949369 13.794971299494465 7.55777558796495
Pd 12.591614026696133 13.93643611926145 14.080576543845494
Pd 15.728924438402652 10.663253744011108 9.190450253675449
Pd 14.866394117947806 12.380295602556613 13.616034375462883
Pd 15.661671198966417 12.740197873025993 11.038525386087212
Pd 15.616696224044842 13.269362140344446 8.403479698635758
Pd 14.786830542492009 14.77731085800849 12.565782400792317
