51
Energy = -220.92396595 eV
Pd 13.915477873262915 12.05047742102417 15.947071181598561
Pd 11.154321730377717 7.653653787544291 15.775590100082988
Pd 12.598922555468796 9.827946065531291 15.73358467703651
Pd 9.813319336933688 9.94310387446179 15.45416840824126
Pd 12.857336632560692 14.370786864790958 15.239299624938203
Pd 9.137207345534499 7.391490709491157 13.902879305937972
Pd 15.08706864300354 10.332196905056822 14.069840009817135
Pd 11.253520247947874 12.199702888938663 15.343425162255171
Pd 13.46965305105117 8.149059736282453 13.845037835993946
Pd 14.65871883584895 13.00521365250725 13.630385363604113
Pd 11.743921048265003 16.5590822341629 14.184870196928333
Pd 8.663868262922687 12.255000530755394 14.689886025213362
Pd 10.121521330281578 14.49361691612091 14.557292328934363
Pd 11.023969224451008 9.085653339604852 13.315378941069486
Pd 11.652415064884007 6.210910157490436 13.643393555064035
Pd 8.215795188311215 9.877222775335346 13.311059510034925
Pd 12.667416884818524 11.063581265743169 13.360283799425243
Pd 16.048941372420508 11.47519286478623 11.769531925365317
Pd 11.959735837865637 13.596715072883862 12.828093849344611
Pd 14.114507392427779 9.48268984957927 11.621997671675494
Pd 9.960945397533669 5.914335836819059 11.702876038634717
Pd 10.12886979342298 11.625389472475351 12.580685052146292
Pd 13.865950973917409 15.535386325532913 12.938528344471067
Pd 12.110473415607363 7.568010058871622 11.433306574461513
Pd 9.24324223764449 14.113869710906148 12.095467699006578
Pd 9.366944349606165 8.388043642299122 11.320676732949913
Pd 15.336107914140662 10.303806528761209 9.367157820380143
Pd 15.836890974141378 14.255868283361153 11.668853927623248
Pd 13.605829079984268 12.19814987667514 11.203019450773148
Pd 9.281393701657842 16.600416227831467 13.055565842745633
Pd 7.366518696295445 12.23064788932142 12.29505235577939
Pd 7.359908804534489 9.981247692179323 10.784868594058787
Pd 11.271785748489604 13.135399004311195 10.291978794995494
Pd 11.451381838742813 15.910491847063872 11.63545887487132
Pd 12.949832960707681 11.265152666504399 8.861450595660578
Pd 11.41815481211817 10.238582014243418 10.734689513183728
Pd 7.2398077232945885 14.128748236450251 10.370296639066193
Pd 13.145078171424677 8.579198230901032 9.310820363936715
Pd 13.54220109631669 14.784178848139788 10.366403722049471
Pd 14.989651113927094 12.003081553778173 7.082723804331076
Pd 15.382318148267853 13.023122741189482 9.41768258748914
Pd 8.844647647955872 12.009313327000822 10.071041375736064
Pd 9.072329945699057 16.167811067385824 10.369858154960886
Pd 10.511760652535571 11.937758046123038 7.93555564997062
Pd 9.283459604118752 14.171850834492842 8.64246022079139
Pd 12.982061086921792 13.690050766346701 7.943404857018951
Pd 9.440474831311056 9.662065285181036 9.04589556645483
Pd 11.430219978810227 15.582906424812972 9.003682305977284
Pd 12.49685179145369 11.616311019935246 6.170829821708256
Pd 11.469075179091579 9.436469853315746 7.471538702824008
Pd 14.112365011407721 9.49284104547359 7.010863153253377
