53
Energy = -230.05174573 eV
Pd 13.297957381845054 9.757846536086515 6.936104154852984
Pd 12.063477483973978 13.553348878802254 6.801330852869919
Pd 14.553143832625336 12.21148782394256 7.172591528933519
Pd 11.214967430362206 11.202207688678646 6.016905117477662
Pd 10.842646571621056 9.52314204437006 8.011092879830535
Pd 9.877955797759528 12.379421923976842 8.074052306810485
Pd 14.823922738302393 10.395114279927492 9.094699029394192
Pd 13.020394034312119 8.292659647383491 9.18035429188659
Pd 15.9393671894963 12.74399786741398 9.503384021142114
Pd 12.38555951539696 11.6128060960389 8.642252228848559
Pd 13.623749850525803 13.988263002265578 8.915192024091967
Pd 10.978012159768587 14.77088053128756 8.936483453924486
Pd 8.462168940662472 9.007251098471812 9.030573138228446
Pd 7.738380369103883 11.46313777585099 9.57794138440643
Pd 12.698619770277036 7.432289767026783 11.720765617500193
Pd 10.269088159453355 10.873453491449128 10.330955969575967
Pd 15.007515341227396 8.51710882162293 10.992196689116643
Pd 15.324478807740597 11.068383147031623 11.708328002835806
Pd 9.115030260974683 13.535251597624976 10.431785904835131
Pd 16.918091344561 13.09536089387192 11.94624407518002
Pd 10.577311908035549 8.156042932522086 10.319269736582866
Pd 12.766357134872543 15.656685844354671 10.777549365447538
Pd 12.81262837874706 10.285984270275835 10.902366507861455
Pd 11.788394287061292 13.038926405751983 10.827694480152337
Pd 14.346989396987 13.6174122518759 11.447996367031058
Pd 10.124229387737012 15.8993165898864 11.239412975843933
Pd 10.306862799010595 7.0810013126366815 12.728551614027058
Pd 13.759253434352596 9.269879036249646 13.30793305513552
Pd 8.166085623893686 7.235465633442995 11.033709473053232
Pd 17.573748088597085 12.458008925056296 14.372044600887891
Pd 8.310388243255392 9.764858043357938 11.77061880833124
Pd 11.031573520967793 9.585178418221723 12.747592195708508
Pd 15.066037950415891 13.09978246597064 13.953872948979626
Pd 11.443675959730854 14.469327836843819 13.029307179706755
Pd 12.727295549811092 11.895727556766227 13.050304989244841
Pd 15.88806109323393 10.522598563153537 14.17512368434278
Pd 8.646071378907207 14.41506235544091 12.974200730820106
Pd 7.408057531842094 12.267991293012873 12.112328467589318
Pd 13.882135272070117 15.450380313477282 13.34794276952531
Pd 9.716786935896753 16.644238853476736 13.85119331944744
Pd 11.906163902184394 9.30915705988728 15.234953847717195
Pd 10.021015707072584 12.05616892661525 12.740948826646594
Pd 12.010650698404671 17.29953329146066 12.696873317756591
Pd 12.837972186410534 13.753809245914702 15.25483588731436
Pd 10.067759303253588 7.455077866190583 15.275658616923213
Pd 7.95348359253363 7.907467761125186 13.64760021317477
Pd 6.8190687980298454 10.407619194140835 13.921554852703533
Pd 12.014053368624442 16.27967269637659 15.166744707054939
Pd 13.671336946336396 11.220211048653242 15.43267382852407
Pd 10.133326258110829 14.36436536455516 15.328344097255302
Pd 9.285706180455424 9.939217370435605 14.715349309013952
Pd 11.014954097343647 11.832653232947706 15.340649529174346
Pd 8.361584669888865 12.446139951419642 14.804796562745686
