54
Energy = -235.56878287 eV
Pd 8.15685405386508 14.415449570164471 13.17129969966378
Pd 8.06197254592721 12.05663148973475 14.79404499246587
Pd 6.623287569302458 14.02503710481735 11.037746874975333
Pd 10.798064350932117 15.056474672521619 12.351475445661698
Pd 10.318969420910923 10.77040170909078 10.043036101439665
Pd 8.234354759065893 14.45914492306579 15.879048366381237
Pd 6.9342311716412395 11.814656480994623 12.420824220321794
Pd 10.403665535411957 13.148857457849987 8.631156520229695
Pd 11.157698477762354 6.886534387193415 9.592106684823026
Pd 9.992453787786685 8.439003622325064 11.44450256632522
Pd 12.024191131415053 6.855244189629174 12.058450576052572
Pd 12.331518483855753 15.262226841610577 14.491416867487308
Pd 13.469120468820332 15.03555669564823 12.039063127084493
Pd 11.256188797093602 9.500935850820795 7.795357750108264
Pd 10.321656707113195 10.644515871510219 15.323918557684792
Pd 11.087214385082788 8.506656203656688 13.936044826062956
Pd 9.473801032318741 12.456763069132299 17.03128120591782
Pd 11.464530596349025 11.869301529278511 6.538199448335361
Pd 11.841237423766836 12.900268103056758 11.088716134296103
Pd 12.543757195593207 9.041142042454512 10.361188216818155
Pd 10.815005614219501 14.770954386509663 16.674149820216613
Pd 13.623539888083773 8.806781935604404 12.829716137068848
Pd 8.838948172680876 10.04275356284851 13.21840718144459
Pd 15.784418631006528 9.310099108151888 11.30938432415428
Pd 13.529492206876819 14.564895766463527 16.73541508096532
Pd 12.062750130090626 12.407128294382327 16.326431404431823
Pd 12.927926683995727 10.306058293049187 14.943340224442899
Pd 10.4534933156484 13.20537510245881 14.315028946661576
Pd 11.51785234747035 10.67519603417426 12.523958146861137
Pd 17.37462670783705 11.341300715271123 12.177719570502076
Pd 12.669735334444775 11.491882055456406 8.913934247128893
Pd 16.82699321417682 12.79367314865326 14.363419510441494
Pd 13.151942475952685 7.753376405418299 8.002133102717524
Pd 15.226947458103341 10.749572930270354 13.618427291585862
Pd 14.601532526917048 12.283874536693611 15.710032008471334
Pd 9.42179235152417 12.395152572873798 11.955768551104573
Pd 14.744875999345037 9.70711594214099 8.92714755888608
Pd 9.051496669918047 8.516873305403777 8.863181245080675
Pd 7.838421568128305 9.923572778917826 10.747426337985557
Pd 13.916609598447758 11.191633072652342 11.286557302041228
Pd 14.834722539929281 14.57532074517838 14.346097242274189
Pd 10.577543820765904 7.114696670464923 7.092430881207732
Pd 13.05116986215688 12.69655412984784 13.515021005164156
Pd 16.151208317890095 11.79116055442804 9.908078471618252
Pd 9.792724377730227 16.07614730427912 14.545296943618991
Pd 15.50549078239807 13.291156791263974 12.086756851237253
Pd 7.9882592081653705 12.295432724389482 9.59489714473896
Pd 9.062493460975443 10.958937355385968 7.616302508251288
Pd 13.533512233193088 10.113837595091672 6.595156198219405
Pd 14.16195535608073 13.690501961205324 9.816375749403056
Pd 14.865861161756223 12.223597433635176 7.635049629225215
Pd 9.114231899384716 14.630975841684426 10.429696948431815
Pd 12.73983713982614 13.93470750668421 7.5720116384637315
Pd 11.77802687343797 15.194525178430975 9.810375877919643
