52
Energy = -226.42894596 eV
Pd 16.576915364128013 13.04505881549346 10.858590483398872
Pd 16.00765376153714 10.452677121567733 11.287950712577915
Pd 15.244544501355886 12.429654514127185 13.091780535502817
Pd 15.623153105220187 11.550611660539612 8.60293688813066
Pd 15.663257238451926 9.898766365671309 14.00159574634186
Pd 14.417945007481626 14.627514221160348 11.870429563423192
Pd 15.002733915103862 14.353830685446473 9.15005770277035
Pd 13.509724706069166 14.098516930303909 14.377762211751817
Pd 14.993387177028398 8.967131043434645 9.29816802375932
Pd 14.76066319228484 8.159913344396642 12.169532175547577
Pd 14.029255238488693 12.208423991737487 10.450912345301965
Pd 13.49971414946556 11.46533757022511 14.821433645586334
Pd 13.146289557627082 10.561874434636502 7.877456972130061
Pd 12.453536128171956 13.059565060364294 16.65191975152609
Pd 13.189433836572313 8.757603578607034 14.511724412650418
Pd 13.00969007209485 13.163290288347989 7.866826192689712
Pd 12.243962561578266 12.758768030878658 12.385963598529736
Pd 11.800661699961585 15.337038245236355 12.588319326886536
Pd 13.535918998125064 10.442978630881388 12.336453238706442
Pd 13.540407516497613 6.820046724302652 10.279416329131838
Pd 11.14858679704621 15.155028110042045 15.197932032869238
Pd 12.47233196998443 14.567728971649979 10.093513311484834
Pd 12.628906449828552 9.421636519088986 10.18684918239619
Pd 11.991214257501333 7.874136742980477 12.28704705926111
Pd 11.53896723791709 10.270434961010164 16.10262720865891
Pd 12.859476024015102 7.872052486801841 7.922036579034644
Pd 11.177047895342975 10.316171071396962 13.350911037257585
Pd 10.844797911220587 12.635448390573002 14.683210169347005
Pd 10.655406119389212 9.364302132916619 8.22942769529035
Pd 10.344275015088092 8.194670839780438 14.54864784154364
Pd 11.514588472830575 11.889495200999411 9.922668027016657
Pd 8.451008533118774 13.251673106595836 15.544768907377852
Pd 9.977236882639028 14.435312145127837 10.852410795802214
Pd 10.520806066400889 14.219375739536346 8.266383940788637
Pd 9.398212733031926 7.367152235750241 11.985144794262979
Pd 9.250219624903316 14.487584519573828 13.372914465927657
Pd 10.777657629456113 11.77091180594057 7.229312103740307
Pd 10.885195951912 7.251625348269613 9.802690015237236
Pd 9.59806820819079 12.076736946247753 12.239302202479216
Pd 9.089017667478585 10.651890367011406 15.233031836122844
Pd 10.163351332434601 9.809050703184411 10.95287007498475
Pd 8.384673621495123 9.498835398685685 13.001780823676125
Pd 9.03318412772133 12.234024520340832 9.535002906692753
Pd 7.329023454312481 11.932629582459848 13.541830431391624
Pd 8.367378618617392 10.513719465993805 7.739178310815786
Pd 7.968816690277604 14.798796983858331 9.044311933950897
Pd 7.458646392651768 13.626993083412579 11.44452792242556
Pd 8.354677486058147 13.0909872814738 7.021803039908577
Pd 8.391314758941336 8.487099260405177 9.592208598405023
Pd 7.3452858414280975 10.821873941383336 11.028884832312952
Pd 6.144042655731104 9.881518111511346 8.920323460637922
Pd 6.499501948414425 12.541777307926953 9.008120744346524
