5
Energy = -12.69114726 eV
Pd 13.38014406527891 10.375651872835018 12.276775862997509
Pd 15.451169872264037 9.155355590438003 12.815084298422775
Pd 7.885122885514953 14.380022111018862 9.815358347072761
Pd 9.570711385460086 12.914656127572425 10.867350283968628
Pd 11.44434557298382 11.62507736447194 11.618304664249592
