54
Energy = -235.1692846 eV
Pd 12.100566540009014 9.821119647538659 15.784042021599534
Pd 9.62563705913348 10.614252587278495 16.000488787719192
Pd 15.122003209868984 6.722508884551427 14.219426905967504
Pd 12.648346842175316 7.407743080875604 14.659022909648513
Pd 14.65443945173272 9.122436415634418 15.39864548411888
Pd 10.097808088280702 8.1416209154545 14.834490994788073
Pd 13.906915064137152 11.58876022448717 14.883861672804839
Pd 11.238222367433131 11.979880184568652 14.42138658223749
Pd 15.500310355689887 13.517401330253625 14.09038242338561
Pd 13.753414649435387 7.3329431870595325 11.977763670028576
Pd 7.734569472683666 9.465679399362527 14.61191135720127
Pd 12.993445258317381 9.647130207724778 13.201375238899965
Pd 15.697959024570293 8.980514563864098 13.021630238157643
Pd 11.1415566243583 7.318516542706277 12.487917020442588
Pd 15.083336311486805 11.452636926711925 12.493651354396519
Pd 8.581877383485448 7.877920571334979 12.603365135065555
Pd 12.896650014026184 13.957964267665043 13.971392759893762
Pd 10.185010022334332 10.043436835515694 13.003598171141599
Pd 10.240279273434146 14.348179667602954 13.733073460738275
Pd 12.038066623201182 6.556652953133688 10.08909459774746
Pd 11.815013978988414 9.294832945965375 10.826200903835874
Pd 9.65877970271072 7.6753228195059195 10.085022790738648
Pd 12.35919983323977 11.862891073236229 11.816543938492583
Pd 14.537925135989529 9.583591905857249 10.710919783101366
Pd 14.40510193620887 13.863049850689565 11.736445940261728
Pd 7.507954171191082 10.357499193417912 12.202882855643779
Pd 8.38303740847652 12.15030334103368 14.153138432732312
Pd 7.120036936707575 8.357545165417287 10.487819916197772
Pd 7.643375442360291 14.63118133337215 13.280007373053566
Pd 13.296965705544828 8.334308246554725 8.678053729726845
Pd 15.196718759115578 12.128736342018016 9.899714502049303
Pd 9.678971224736987 12.483566960115446 11.88289043593977
Pd 9.46047693039601 10.346979643304135 10.327006445649786
Pd 15.255336784802193 10.11952475223837 8.127833622517937
Pd 12.808773694774043 11.087545758384385 9.179633141425708
Pd 6.954009250552939 12.786954372395487 11.595034897501915
Pd 11.807287933022042 14.48550275347785 11.567332074464693
Pd 10.875857492353434 9.480169145654259 8.169403682899198
Pd 13.222354296786321 13.885522504260978 9.409778780497296
Pd 7.016472817106975 10.952411253223184 9.6008302286506
Pd 9.285777317657411 15.122649852547449 11.250435770660678
Pd 10.699293097735406 12.679481918467326 9.49281683925939
Pd 8.20758800009716 8.922464491709315 8.150912426522954
Pd 13.067846179791866 9.975977856658117 6.597752500493125
Pd 6.713502243084627 15.27758324749427 10.659109239306423
Pd 14.081987180375679 12.450637456184719 7.292706997833528
Pd 8.100339154311568 13.393191117276505 9.363040688809843
Pd 8.942848370606846 11.40912777625267 7.731783706235884
Pd 11.383710434542435 11.945621161229829 6.927586942681677
Pd 11.024093030582511 15.355586808021009 9.223963707245192
Pd 8.466585118081905 15.9352862604659 8.735417024474508
Pd 9.570265227125688 13.88741026370761 7.189237395345776
Pd 12.267329495894685 14.435332528169385 6.995426351186576
Pd 10.356341465124029 16.362166692879402 6.893833163912607
