50
Energy = -217.74327271 eV
Pd 15.119880009662202 10.525363534218908 12.867907911812768
Pd 16.256329145144868 12.585004924801709 11.47004144152001
Pd 13.88769829562145 11.202945258303968 15.215836291771607
Pd 15.944566011507646 10.230605683084692 10.301209475860066
Pd 13.921489423846714 8.702653807604774 11.222039958153447
Pd 13.168446225945116 8.97885535860747 13.768710055581334
Pd 12.049473138935069 9.42807277160272 16.109768618260617
Pd 13.634608363456435 11.759052241511572 11.006041637136917
Pd 11.158918022457659 7.330942294916189 14.772071969471998
Pd 12.88776573110158 13.744177532935858 15.326111540634399
Pd 11.70434889568609 7.445211842516007 12.088863425920858
Pd 14.37319132513666 13.100270509316116 13.3019444666363
Pd 13.696298431954299 10.080391852819343 8.885457869093774
Pd 15.067856122335977 12.48207826355451 8.95743515734098
Pd 12.041909662765011 7.938032738224489 9.414107946716438
Pd 12.149466673163074 11.530923844938576 13.22274588526682
Pd 10.485611080699043 9.527690321423801 13.46831122145023
Pd 9.37516813736632 9.729153951025289 15.804222861359543
Pd 11.083603319899181 11.819404086528573 15.640168816266453
Pd 11.587079440327459 9.992564932182736 11.057671197691015
Pd 14.426529027899901 14.47888148137653 10.961174837227874
Pd 9.131544570138079 7.205533606990442 13.002949755867455
Pd 13.04841632028354 12.01029668374025 7.075565497435175
Pd 12.810837436139492 15.319808147571951 13.05570842114553
Pd 10.622988449260983 13.858097495766334 13.962886782631923
Pd 9.06542370686603 11.7189998399042 13.89902328524797
Pd 8.875869232007897 9.349019474183466 11.362206900807529
Pd 7.648714754195868 9.428535752867015 13.737628644244609
Pd 12.960868591234776 14.123380558894686 8.82338415058171
Pd 9.677238966836269 7.087859689121056 10.34170359465018
Pd 10.216857460288125 15.778399995589655 12.130078571227527
Pd 9.886096607716867 7.610600647381487 7.731967501947152
Pd 11.839985906983676 9.502608170886566 7.215385703350583
Pd 11.719087681279719 13.511527387889792 11.495431705504796
Pd 12.248863891958347 16.01333915395782 10.454552735284114
Pd 9.60864016270724 11.92979962449507 11.053816424650671
Pd 11.514312143962828 11.983929182300082 9.172661382001332
Pd 6.2970797874206275 9.08181245296498 11.36618273534189
Pd 8.463441389559561 13.880812498726536 12.438016380265212
Pd 9.906429854713517 9.923335733041291 8.982004585058771
Pd 7.083106921857968 11.562894171574937 12.099983421944907
Pd 7.6110764148313965 8.252959465182405 9.087205771806264
Pd 10.92006194309863 13.905855502926805 7.232584662130743
Pd 9.97798757198139 14.496884805328092 9.72937223974264
Pd 9.920504774585492 8.990869528552619 5.475398892790115
Pd 10.392747504464545 11.492270246738867 6.2955509386678035
Pd 7.303422436513145 10.854533239719066 9.527895204558009
Pd 8.928665360924548 12.468602216713808 8.245576230339008
Pd 7.383849652365155 13.478526118665517 10.094659823415007
Pd 8.14707364921761 10.047199835256851 7.0827421588450905
