5
Energy = -16.49462079 eV
Pd 4.474385439671236 5.314081052692626 5.929189069630533
Pd 5.093157929914019 7.850104605208249 5.670191610778816
Pd 6.599576635069233 6.026100739006094 4.559619197354097
Pd 6.679250160851714 3.9236104973601056 6.130628626580684
Pd 6.612517322814187 6.329179559281709 7.1719076628477065
