50
Energy = -216.8577286 eV
Pd 11.021643496997935 8.398862744313575 8.891964969670981
Pd 9.421496585534534 9.484549796365537 7.087563607609149
Pd 12.19035630973082 10.046348073757958 7.105381877587797
Pd 9.951634683479902 6.962190052419025 10.973064231392446
Pd 6.71456147565708 9.728739332831406 7.9549441782163335
Pd 12.494597114355479 6.971992748710245 10.567158030712335
Pd 8.324290085271182 8.406855510779152 9.508805781001024
Pd 7.872936492262147 11.650541510819137 6.446779288788076
Pd 13.61577374001532 8.982044643273449 9.182659625409388
Pd 14.916330391132774 7.7679396955779705 11.269476562309096
Pd 10.407675993194166 12.077588451973627 7.0400022499697466
Pd 11.875225017359186 11.143536000815992 9.46990968286073
Pd 10.158354101667035 9.832633299005085 10.993837771457883
Pd 14.509777098597105 11.276307195942957 8.217137048644338
Pd 8.915027340507502 11.127714047611162 9.03867220933267
Pd 10.840527408400876 7.934203355284723 13.280398160042406
Pd 6.547979811398159 12.26492765354037 8.725630296192127
Pd 12.868737528975778 12.741165682417357 6.7636569392664425
Pd 13.22204384738124 6.8052966607523055 13.067140817026031
Pd 8.217573955334034 8.622613820693044 12.221970044574382
Pd 16.01073918497633 9.844957988396382 10.00716436375354
Pd 6.942461772567272 10.473146346820721 10.743492832346275
Pd 12.667148314544125 9.392435222246123 11.712265038636524
Pd 8.517718216546715 13.944459524966568 7.675398830947109
Pd 15.321547072122751 9.88365105895168 12.738996789266428
Pd 14.287788372593836 11.60038008914756 10.860665508929973
Pd 13.22209669606601 13.482996097668533 9.288500925581587
Pd 10.254970734704168 13.322118659219166 9.569584060353892
Pd 13.303458814614014 9.04442686057233 14.356041632907145
Pd 11.325369157417391 14.747350888994223 7.734742776041033
Pd 8.816404381935486 12.159011574124584 11.523338213078485
Pd 10.581997233464419 10.585309227200568 13.463681755145092
Pd 7.587112903419435 14.120166870029692 10.220309997691688
Pd 8.736474179482105 8.78356665917434 14.790997946448705
Pd 7.812307078077049 10.943765381460967 13.583873324241962
Pd 11.495647515218204 12.595412287591095 11.689103959516755
Pd 14.903745612593577 11.029244746136541 15.238770666293957
Pd 9.451841724970022 15.894699358493842 9.383235007503485
Pd 11.12035720217073 8.921928632511703 15.798989230087725
Pd 15.672406246808992 12.529277269131011 13.09917417389478
Pd 13.131773232189692 11.505453818625483 13.251169812341464
Pd 11.822071441711667 15.296344556659484 10.660156140198602
Pd 13.823797639695504 14.018501751806241 11.880417398700285
Pd 9.494463132287626 14.76832493917479 11.912905921075307
Pd 9.620282042255493 13.018717464103581 13.923336637888195
Pd 12.262425464679419 11.286409230810863 15.716672273461455
Pd 9.588032117728229 11.216520106882449 15.876875256853994
Pd 11.693931206981617 14.66944601360857 13.387662996122675
Pd 13.70523661833872 13.508469256922632 14.74704245274612
Pd 11.230596635675557 13.717488065413304 15.852184733806315
