5
Energy = -12.56279496 eV
Pd 11.581803106727984 11.35605655127356 16.479103699270677
Pd 13.512261914762778 11.0454725407769 7.281733281460332
Pd 11.783100145099594 13.491707473840238 15.237084646733857
Pd 11.5768455242326 11.474215395456616 5.825085988686472
Pd 10.533138626812958 11.605407605775651 14.245746881429472
