53
Energy = -230.72503747 eV
Pd 15.019716974682884 11.551943495446764 9.135135895869098
Pd 15.073438104987085 9.603258046511856 10.926174045844109
Pd 15.990952213373516 10.029317254405395 13.476327750038903
Pd 16.622643187301943 11.732921987053171 11.242459745010516
Pd 14.90891037485657 12.37918932850276 13.025790440844956
Pd 14.515130461214394 8.54961821593019 15.186355032394575
Pd 13.100003574319617 9.664934593693328 9.147393295033458
Pd 15.029719856814909 7.603251418135747 12.735777219011922
Pd 15.452527046168589 15.011399736252084 13.057054098603103
Pd 13.885703171796395 13.729594984765244 8.169571903807894
Pd 13.387776223005439 11.335213391132108 7.038051128077473
Pd 13.131542246592922 11.874472306282557 11.018272294998992
Pd 13.909820222083416 16.293563099104297 11.173040489312266
Pd 12.961127615695057 7.838849012228528 11.078261064651581
Pd 14.265574691383614 11.185516299359639 15.331423444184125
Pd 13.262595648212404 9.808184169590971 12.845960744355523
Pd 14.978814425613226 13.917007884450033 10.593652282134983
Pd 12.954561063847013 14.185481117603926 12.451673911769985
Pd 13.878300522045873 13.822381815235854 15.097817035183535
Pd 11.16314413577076 9.783016249003957 7.352857863124477
Pd 12.493972450720669 7.420298490039968 13.786755140000933
Pd 11.328486794263238 11.346059165721615 5.28231757356503
Pd 10.970342917058542 10.29589449592424 10.81886015133537
Pd 11.794340337898817 13.563212686766752 6.600518666844449
Pd 11.546248306008449 12.101518489406372 8.916926335782781
Pd 13.32349359756034 16.29981859397118 14.071229252365951
Pd 10.935567226709393 8.057440159216814 9.368669127162695
Pd 12.0847560726619 9.66963494040602 15.315304490230833
Pd 12.460809234718447 18.12322642863385 12.414194967673444
Pd 10.062391422234 14.441452350412652 8.382166730825908
Pd 12.185782895240983 14.582846128916056 9.90342827168077
Pd 10.74842384156821 17.08606070103898 14.242818839388132
Pd 11.78558192124305 12.293193890514486 16.215997293446417
Pd 10.513504468074208 7.894064545895348 12.115600717783876
Pd 9.546431392735098 12.010846239673338 7.169646939159968
Pd 11.363961289520018 14.543289324095667 14.63160774982542
Pd 12.169510451873352 12.006430895074825 13.663386060697507
Pd 11.066690731694779 15.967744726218868 11.843864710313246
Pd 10.613226281710267 12.992060148475188 11.764927405195362
Pd 10.15675181071874 10.320614105536274 13.309119450924824
Pd 10.096183515907606 7.977971794171171 14.828486566497887
Pd 8.989536320768655 9.981604399612277 8.844071088301279
Pd 8.886987344087547 12.466420551822377 9.732301757419448
Pd 8.44708457537398 7.9803875525052925 10.492384244808951
Pd 9.05670923876374 15.11429692764303 13.392465059117468
Pd 9.689433512249922 10.564307911781494 15.955242467456925
Pd 8.964087329693196 14.947002384581062 10.708637851975213
Pd 8.049292587899648 8.42748369415425 13.072881340741104
Pd 9.529107274816239 12.733425452087383 14.492730623471566
Pd 8.211140208221005 10.489499551992191 11.36168422108008
Pd 7.954096752618921 12.942599311318606 12.274348151970232
Pd 7.584537242243897 10.975552086108596 14.008133432695212
Pd 7.7026717714295705 8.85675649030893 15.62522360545552
