50
Energy = -217.6827251 eV
Pd 12.435775764133233 12.979214917190681 7.616557557940227
Pd 13.177105671205835 10.81810119538691 6.35902071928558
Pd 14.096763931108722 14.435091030178596 9.353955676249926
Pd 14.762802993847362 11.778404387871344 8.380977119133231
Pd 15.812810221361028 12.715898663778999 10.628351584025603
Pd 10.556455446005444 11.351251645099646 6.388919247234226
Pd 11.583486985030303 8.711416893350586 6.89998002460527
Pd 11.213700542327071 10.654292364860463 8.823949873155486
Pd 13.77457528026609 9.274415982858526 8.389083802857332
Pd 11.664804124940362 15.338108883797894 8.456582699055916
Pd 14.333180594009 7.541336492073652 10.363847483188582
Pd 14.157841611922544 14.078607146054267 12.198654448198717
Pd 15.395496284127667 10.038242540566454 10.447722358367264
Pd 14.32454791563237 11.413958677695272 12.501586147344046
Pd 9.130477047220733 9.383007154277516 7.688358872199151
Pd 8.028954329090846 11.763105624996404 7.23678012367789
Pd 9.863346450721517 13.434774730547186 7.99208742855637
Pd 12.753543328698642 9.816750995527395 10.799127386230834
Pd 12.964533187260336 12.285800516266244 10.181622902582133
Pd 9.701576743226848 6.874730614961493 8.163918156602604
Pd 11.784286131346455 7.764074484238206 9.382408541336957
Pd 9.44560273234407 15.201531460576458 9.996621473007139
Pd 10.08586733626665 12.52719397057103 10.457450126812738
Pd 12.190863280296494 7.445210972507592 12.030421598864493
Pd 11.897420720384861 14.88669263249381 10.992209345828035
Pd 11.827710721372378 12.605646931814423 12.471079029639476
Pd 7.962468541997322 8.150027683422614 9.75953505732469
Pd 14.416482808049638 8.737698777810042 12.773047513726372
Pd 7.529111373279757 13.379708891561535 9.380049173956165
Pd 9.883482229822869 6.681819826802786 10.928534307586709
Pd 11.913748373214013 10.1344254713984 13.181648857942976
Pd 9.771859018619654 14.389740518125747 12.564994170532485
Pd 8.155716534098694 10.793755835563944 9.68878917024414
Pd 12.159482923216718 15.079495926445599 13.698090781526176
Pd 10.123664318185098 9.471111640066779 11.080141238804751
Pd 7.373702356748846 14.768711199411573 11.711271861340672
Pd 13.345076440148382 12.80530721655724 14.62713350341566
Pd 7.290951201705865 12.178180732020364 11.759784984092045
Pd 14.141399553691269 10.226892078208845 14.960335759581453
Pd 9.55425482104581 11.40573798441621 12.900775534750435
Pd 12.368575481467563 8.13459916453094 14.723806696773687
Pd 6.4831488059191535 9.683857835775612 11.407111019768198
Pd 8.331495951808579 8.232146698746757 12.518164944561697
Pd 10.255619875532432 6.7676332204914855 13.617069110981637
Pd 10.618475813636577 13.184259447719477 14.840421910009777
Pd 7.943634423578628 13.245405105149837 14.134865791962739
Pd 11.649736309685636 10.82780264219072 15.654653106708741
Pd 7.367783105146842 10.393010122501869 13.857377339870908
Pd 9.756455688040306 9.17093341205378 14.564851909948096
Pd 8.971105409805135 11.371838392078613 15.797233261203028
