52
Energy = -225.60673602 eV
Pd 14.473791526108265 14.920050260802157 9.290788029562814
Pd 12.595819858576698 16.60389061073353 10.141875447450447
Pd 12.409644769665555 15.57946650716483 7.6807906071354015
Pd 15.406780688873395 12.33793558220502 9.123489222574655
Pd 13.486942920535867 13.389588157929673 11.185877015804085
Pd 11.515392166879678 15.437560102672501 12.218487936240741
Pd 13.112823275438625 13.011927034368846 7.995621550787502
Pd 14.276835386582313 15.608130044198353 12.153299132652608
Pd 9.701443882772876 15.674941072184598 8.259489209254419
Pd 9.919053050551716 16.746226843987422 10.598903032286254
Pd 15.212528077483448 13.096989098456277 13.44118877524403
Pd 11.010439177580663 12.48101288155931 11.95224423277992
Pd 8.947182748348313 11.656019674426867 6.884218067655793
Pd 8.384595639931591 13.523334515702892 8.940428350424765
Pd 10.13066893517623 14.381572672051886 14.162778839941193
Pd 14.097194280918705 9.050136026027966 10.702880919099364
Pd 11.582323560276311 10.968767740949074 7.113600507421955
Pd 14.172044735222464 10.449139544442467 7.737565780757574
Pd 13.200595366924567 11.285969845436428 12.871420724677154
Pd 9.100295959267676 14.341460683285256 11.48863972093054
Pd 7.425440869091118 10.97094519848397 8.929855192415815
Pd 8.371318088127724 8.234330389130703 14.301051315196727
Pd 10.711660382607306 13.559855609332018 7.074553655921528
Pd 9.357537772745271 12.681850040413716 16.29790244865873
Pd 9.747448725603409 10.019719447744615 15.772125318990344
Pd 9.573867655363733 9.47458059406933 8.39907032604288
Pd 11.76745001987724 13.937262900207749 16.33802116524516
Pd 8.594609192510328 12.295892826145552 13.73979116424199
Pd 12.803071892551547 13.986450061721813 13.875886487324616
Pd 7.1980739611987845 10.159450393286324 12.974413201215922
Pd 11.33766816593598 14.250356819336458 9.799594725915334
Pd 11.652219179951262 11.368915981098215 17.152707269965514
Pd 8.288406912847988 9.154161561940636 10.778584165546954
Pd 11.22436380135629 11.91046048075964 14.562043262700541
Pd 10.375336908711564 11.87254242525315 9.30518193362766
Pd 8.426287174847065 11.787607195884407 11.198919409110003
Pd 9.975026472277397 10.105606248241203 13.096110593723106
Pd 10.907126300129114 9.692610347655659 10.719126545064466
Pd 13.821058212522935 12.16387135185129 15.547654538903464
Pd 9.874441355447713 7.537299475274868 12.177493893491478
Pd 12.926573416635577 11.213527574975048 9.977265928256113
Pd 12.36753075578164 8.785793781965832 12.727721723318476
Pd 12.11046931809319 7.126780058716418 10.600019031017073
Pd 16.191828340779164 13.910786238054978 11.088174824955438
Pd 12.204753745876147 8.842113578675013 8.608722057485402
Pd 12.716777617959472 9.793655908867576 15.22150579460207
Pd 14.92471941881585 9.344954561256646 13.421732721187974
Pd 10.93373675143854 7.8422105984401105 14.814495736301007
Pd 14.381802329406392 6.891534178299972 12.21436231226744
Pd 15.472056581100196 11.227789475765519 11.487542446878743
Pd 11.941687674760653 6.068163692036578 13.06254765218376
Pd 13.624222059491602 7.33123176674019 14.778390020906178
