53
Energy = -230.5522629 eV
Pd 12.525901472502843 10.85035539070685 7.222686548743732
Pd 12.93976204535606 8.70555719754478 8.73110740342294
Pd 15.079625660909823 10.132771227988126 8.042747150520917
Pd 10.524194048912696 8.882124154406997 7.72328445166627
Pd 9.887389903928515 7.71939058784668 10.187734428312188
Pd 16.83525389076557 12.086075951778238 7.753539726808435
Pd 12.426535527509897 8.036874130278312 11.156135576755897
Pd 10.019762287142328 11.486768562339282 7.521482802129367
Pd 14.30940772324643 12.81470983718118 7.532535210076537
Pd 14.702706345385108 9.245433933247405 10.648422145824366
Pd 13.410975396350942 11.462910137896671 9.661551462406594
Pd 8.226585992615128 9.758925931434446 10.951964467424142
Pd 8.535830968862914 11.906689858171344 9.623188482826745
Pd 16.29994030206027 11.345082264875703 10.230889974613074
Pd 10.797269673526579 6.494137008198681 12.535206942769868
Pd 9.16240813419306 13.988577996657863 8.014140952013515
Pd 12.525498627565204 8.141454391884771 13.813086485978031
Pd 10.872101777766737 10.22036232335807 9.952402506708369
Pd 15.388913607120186 10.981551699005847 12.589551802065895
Pd 11.81925629904611 13.644816308499367 7.301190307223119
Pd 15.869216107761671 13.78582824914941 9.499573113535172
Pd 8.306822507239989 7.4796417672189826 12.44160420130097
Pd 12.723544447639968 10.593677662629158 12.167719591825168
Pd 10.370361012090154 9.278961035776302 12.493200521099153
Pd 13.902120115667856 13.009731291499394 11.627779575766468
Pd 11.138704216675675 12.810399537958387 9.638117749789533
Pd 10.053516134659798 7.823281292420179 14.732821521845658
Pd 16.359819600968954 13.527520633053786 12.23424810728687
Pd 13.904538590725794 10.227011065631773 14.586257091278172
Pd 13.343154450579181 14.527879352683422 9.45366903669733
Pd 15.227921808064805 15.757306921558612 11.021643621027705
Pd 8.939853978389706 14.288442731027908 10.681243901001915
Pd 10.934700351537426 15.577241309555133 9.330850338335775
Pd 10.303721918917155 11.884881902409845 12.047704191652564
Pd 8.002157133814876 9.966599485252564 13.55173840554145
Pd 11.222826842517115 10.357043487248145 14.790456477518937
Pd 11.56078826633517 14.24085144452125 11.741548850356768
Pd 14.835495226422706 12.783796809998659 14.474492033517434
Pd 7.730213168719932 12.296404102759347 12.189752629636256
Pd 7.473257642905279 7.813580064048505 14.980009986412815
Pd 12.13076586722102 12.82191015376702 13.889435051143089
Pd 14.084732317239917 15.061864421284191 13.24901384919137
Pd 12.686918046952266 16.536937398130753 11.314367332199101
Pd 12.957142019878896 11.939832996290487 16.278754655639275
Pd 8.855357392072316 9.821370976235663 16.054726904958606
Pd 10.006222594954096 16.515145943904553 11.756438129956694
Pd 9.30426496103222 14.358087463648404 13.28416261800829
Pd 9.112290454273522 12.09444704279989 14.559335410566044
Pd 13.235121434087617 14.63055662988565 15.686158911581314
Pd 10.343702688400201 11.786732918185026 16.95569955418498
Pd 11.585886038783189 15.831640622012388 13.868423716064703
Pd 10.522303528329145 14.108060848044083 15.608408261940813
Pd 11.890805876593948 13.756729496967438 17.819824297076543
