53
Energy = -231.28389561 eV
Pd 17.496977813795148 14.312804829177521 13.30678697456828
Pd 17.928806517989376 13.643225879995189 10.754279970021248
Pd 17.743528320357257 11.627202346670815 12.798627440923989
Pd 15.852584900264045 12.571488711717183 14.56956473059242
Pd 16.17263021476809 15.515669727478288 11.313436435987365
Pd 17.09786403783293 11.24335282465713 10.162931787684506
Pd 16.337649975957444 9.9845703867559 14.54913731035987
Pd 15.539866944612836 12.852163502486487 11.92379867228812
Pd 14.9227268471042 14.93991252321622 13.67846273725576
Pd 15.521549025597487 13.263163407562068 9.29739808476456
Pd 14.041462386374647 10.859652785329446 15.616395608852258
Pd 15.55602663886967 10.11355123720816 12.058395101922523
Pd 13.291558044176913 16.103833926604153 15.442380612987735
Pd 13.09080985704879 16.863407773949948 12.675804566887303
Pd 14.858369096746877 10.17046076311515 9.457990467187996
Pd 13.667924138517684 11.872460669771609 7.76925854353948
Pd 13.519470064793632 11.61293572392986 13.137868884476477
Pd 14.850605327198261 15.868334905217685 9.09053564642644
Pd 12.112712586570167 9.13684346582658 15.882014235045977
Pd 13.59211995389877 13.43292638427477 15.631423579374337
Pd 13.277446274216048 11.974547819589805 10.510211872924982
Pd 13.651620950782963 14.589825077557977 11.229801486620289
Pd 14.019359326514229 8.75785688289283 13.841671925589186
Pd 10.945857156072034 16.745911157833987 14.406816039476807
Pd 12.307365925600344 14.462783546813206 13.502445093982148
Pd 12.853911752503421 14.184505127445163 8.72633491426149
Pd 12.365209320030484 16.487326905270585 9.940309034661745
Pd 13.17116692436328 9.211409219668418 11.2940499448073
Pd 12.014551226275895 7.240217430597292 12.738687181037555
Pd 11.213329812885263 12.208584347757784 14.154139301403058
Pd 11.552470057823845 9.758643128538997 13.37047890549204
Pd 11.662413393841655 11.757879485383091 16.649522681773018
Pd 11.149074471658773 13.370754462136887 11.428424222646761
Pd 9.713467869420978 10.170316927734348 15.360336641369143
Pd 9.608951705421463 14.502379968539957 13.806050223492024
Pd 10.278357495413744 7.612563543780089 14.693146992265387
Pd 11.13022892121733 12.259186873043458 8.624999716598094
Pd 10.860869905823389 10.837082368962326 11.061783466240865
Pd 10.616967000179159 16.006410860419418 11.824162784489918
Pd 11.136825762542273 14.428442082698586 16.017210591011718
Pd 12.256066640436266 9.787152072209027 8.884491142122139
Pd 10.527841709209863 8.314688169082263 10.746681526240458
Pd 9.089961557783946 12.018546185704352 12.664430268744448
Pd 10.23473853648223 14.775835070389736 9.403444574848042
Pd 9.020252763677396 12.679713337433535 15.684449850779277
Pd 9.034512255463314 9.112202807640497 12.931038750256098
Pd 8.400122623883304 14.514533410265464 11.466577450145701
Pd 8.854385023066282 12.460021661449977 9.85777272512322
Pd 7.138524773861494 13.572171276512744 13.833774192429605
Pd 9.63077869144913 10.018327829446351 8.648289823627092
Pd 8.09398426410413 10.085331384062318 10.783261651882226
Pd 7.405482980661561 10.914823061777222 14.2663199259063
Pd 6.731210748745438 12.26745655643273 11.533772769017979
