5
Energy = -15.973308 eV
Pd 11.356427019280888 10.460162488477316 10.037831120664077
Pd 9.930506767691229 8.942575166543945 8.413698286658127
Pd 8.990773964604445 9.670338597208481 10.745351125152371
Pd 9.252347444094678 11.511081449714075 8.96149101213578
Pd 8.425390990941525 7.374954077624309 9.793811073738482
