6
Energy = -20.36253842 eV
Pd 9.090445040238171 8.960458757504771 10.781194335293431
Pd 10.381020932981482 9.396583995975591 8.504038712880522
Pd 7.778771429423821 9.828283738571075 8.721858919971401
Pd 6.589325985306815 7.631972637257781 8.00356970266293
Pd 8.684336238187635 8.502640553945946 6.61417355926526
Pd 8.986594204975235 7.186312871836659 8.892989829632441
