6
Energy = -20.61181516 eV
Pd 9.367350485457917 8.80788464608024 9.127942492644863
Pd 8.03569812 6.531235834676367 9.099309864922683
Pd 6.704045754542083 8.80788464608024 9.127942492644863
Pd 6.704045754542083 7.263511593919756 6.9434537473551385
Pd 9.367350485457917 7.263511593919756 6.9434537473551385
Pd 8.03569812 9.540160405323629 6.972086375077315
