6
Energy = -19.95486513 eV
Pd 8.961466908523269 7.082062237067903 6.005832519913676
Pd 9.431844794261478 9.161078413665372 9.216720690385364
Pd 9.363567065533392 6.6906065605090905 8.45954944632734
Pd 7.071622024220062 10.210067964594247 9.440479346020378
Pd 7.768428971152607 8.950829460512658 7.231259587393689
Pd 7.110175584511521 7.612638611778259 9.353428772210098
