6
Energy = -18.93082391 eV
Pd 9.557632375401482 7.143223437167443 10.807120590904326
Pd 10.025752106220777 9.420792646505731 10.049678495197703
Pd 10.491930587620617 12.935736448230557 11.86620313078282
Pd 11.48679722567641 10.558118795252406 11.756109423217826
Pd 10.277948354320738 11.85803796321538 9.516649664548478
Pd 12.607145386015263 12.508842823238753 10.48199474271808
