6
Energy = -20.39303856 eV
Pd 6.6450133977550445 9.05782124436903 7.52137952394852
Pd 9.121603477780058 10.017283283040578 7.828813728172138
Pd 8.745153182062383 7.505367261586631 7.07685050666334
Pd 6.80039604222154 6.604031590082182 8.541725062586082
Pd 8.00368819811042 8.551842549016051 9.749727930525998
Pd 10.406274702070542 7.985783078904109 9.003632241105688
