6
Energy = -18.85531301 eV
Pd 8.810511925635623 12.549107415989333 8.419701522560151
Pd 9.832582066260597 6.376588219627097 10.739933421166322
Pd 10.927524041607887 8.650825100430326 10.758572755039319
Pd 8.919230533472575 8.161620898285014 9.21752287041343
Pd 10.088413269321673 10.651271557305202 9.452353408960922
Pd 8.00420758049952 10.193056225160749 7.994385438657442
