6
Energy = -20.15399469 eV
Pd 9.012315591506109 6.901871542745374 9.997510730080725
Pd 10.091092170856374 7.299928359993668 7.68743513927553
Pd 9.396009506535968 9.356666072020522 9.185805788298946
Pd 7.945552546299299 8.36876368143377 6.8053330924011455
Pd 7.464990257787713 10.609283520292502 8.005897399370989
Pd 6.962278213246023 8.251354700531067 9.185627360684375
