6
Energy = -19.96137205 eV
Pd 10.477289805171031 13.227629886801811 10.020108984655026
Pd 10.798515090135675 11.809701937374488 12.08033718844319
Pd 9.38421976478812 9.717597519098083 11.502832640493008
Pd 12.101627856300725 9.884342898911468 10.942576275343088
Pd 10.298021485138555 10.802422695720225 9.312947179914058
Pd 10.532217382138361 8.223665664023894 9.711946324312617
