6
Energy = -20.28563245 eV
Pd 8.693506405842095 7.319415903209152 9.436860566781318
Pd 10.73231562894626 8.700523517429245 8.59623845271287
Pd 6.654071863835664 8.06309020155731 7.937299221300363
Pd 9.084848552514911 7.58421647780653 6.849434933049966
Pd 7.254697069808068 9.362233949699466 10.160025443730108
Pd 8.5230052978239 9.912964950298289 7.9625863824256085
