7
Energy = -24.07864565 eV
Pd 8.603221013899885 6.401227871996422 7.209084974737024
Pd 9.930315789869736 6.699896275004384 9.32250424481354
Pd 8.672207030049869 8.925011158936142 6.804560180908497
Pd 7.562281317166039 7.875786399013809 9.157396807654852
Pd 10.027379169351338 9.22236159444799 8.934350626315007
Pd 8.03587390118052 10.304442503799283 10.11559573506001
Pd 6.729925282608723 10.111203021429475 7.975580720864982
