7
Energy = -23.62541806 eV
Pd 10.301925560852078 9.948089304378243 8.95019581964585
Pd 10.742138559783108 11.09376843942852 12.98168222236861
Pd 11.94730944405481 10.091254891073431 10.910675625601037
Pd 12.240772886653623 12.597695797391737 11.505860704678783
Pd 13.340839820650123 10.772188748792338 13.030868021289946
Pd 9.84469459301996 11.878181288535343 10.602046730848697
Pd 8.286887991165683 11.436216075098843 8.660863241052665
