7
Energy = -23.35013635 eV
Pd 8.663313333344545 9.932423382411717 6.948129013596661
Pd 7.361608898611035 9.962237881309855 9.229576980966526
Pd 9.789029847905608 11.043611922545937 9.051394210528423
Pd 10.735425681781214 8.758066663786545 8.048614372494217
Pd 9.427712978432124 8.780290614917421 10.304577988645969
Pd 8.300327222778533 7.674293132957325 8.226321590685894
Pd 10.105010123021254 8.253760188094237 12.60229396320828
