7
Energy = -23.08706909 eV
Pd 10.393772538711806 13.624480444811626 11.727399351000882
Pd 10.340892572883266 11.492062647962028 10.212357353386954
Pd 9.665966620936182 9.039643341347029 12.094270763313405
Pd 11.296464178581592 11.149518606750673 12.75121797115243
Pd 12.838885400165877 11.221212363974942 10.669563623135542
Pd 12.424693394857123 8.929605086993284 12.03017362134767
Pd 11.877002634371731 13.489361703131129 9.44203676769905
