7
Energy = -24.10002817 eV
Pd 10.321310351046062 8.94397553823625 8.841009334562537
Pd 9.751184229476502 8.529348060481665 11.36034061375306
Pd 7.610095187027413 9.686775283613331 10.647907422298687
Pd 9.791613308719223 9.20244028651711 6.290831204223356
Pd 8.142424075128048 10.084956729406578 8.15502604984197
Pd 8.288949067602799 7.492496964718328 9.4292130490776
Pd 7.754758835920399 7.830198249449385 6.923389703108846
