7
Energy = -23.5177145 eV
Pd 8.276637933646272 7.774385843310637 6.884047632894827
Pd 9.124156925536035 10.188479017244024 7.4248298847221825
Pd 7.09355668641166 9.112476884582884 8.726934294023026
Pd 10.286889337930143 11.405098171141034 9.327416522335758
Pd 9.583433954940386 9.022555540457743 9.767939418382433
Pd 9.406362093564374 6.603312749824791 8.821266634000725
Pd 7.682929406596311 7.348133652984826 10.503703344099657
