7
Energy = -23.6393771 eV
Pd 9.285341152094084 10.009673963238706 6.1385146413769665
Pd 9.085546640246276 10.558615798459014 8.598254408663701
Pd 7.25205365580395 9.082528742308906 7.2023008677947455
Pd 9.382197074088813 7.903126098903787 7.963706240238987
Pd 8.93944629170975 8.661789194953318 10.406291968488441
Pd 6.902973732704788 7.276564543435112 9.11370627077936
Pd 8.886842824985465 6.196600737667893 10.20942517828525
