7
Energy = -24.36121551 eV
Pd 6.904509689703258 6.436811683564306 8.229428886247272
Pd 8.994473992422424 6.800746030741385 9.81011870337551
Pd 8.608674298835949 10.254706534695037 7.277946804860529
Pd 9.067683862234533 7.675681911559505 7.192347268421847
Pd 10.039028771031429 9.172615796181846 9.242730449638971
Pd 7.427809349013243 8.815889738686261 9.301464772918203
Pd 6.6759524461447945 8.561680804571532 6.664095614537782
