8
Energy = -28.29488682 eV
Pd 7.445781864102739 9.366674661795521 8.39241352277528
Pd 9.459842201271025 10.938362611896052 8.765519827494312
Pd 8.490834879300296 10.560994973960673 6.3412537178743245
Pd 8.428129139857388 9.632532142165287 10.916791886594098
Pd 10.937589516283268 9.030555196233484 9.999645308952013
Pd 8.926548008513702 7.45141533084825 9.611908593383411
Pd 9.956211694732854 8.747664638538986 7.469257910006943
Pd 9.885692676266755 7.802430424889764 12.033839213248209
