8
Energy = -28.31872149 eV
Pd 9.495007806329493 6.171798334144546 9.216246591117685
Pd 7.417904153953538 7.69032656978476 9.146400775735428
Pd 10.91823078268715 7.9463810953047895 10.33027936884215
Pd 9.889468698351305 8.416529368318612 7.916814299048232
Pd 8.940445340560546 9.60741860183911 9.994907989377232
Pd 7.536342098387791 8.845086279191552 6.795402107575161
Pd 8.969547853079792 10.915566028902207 7.626770842437379
Pd 6.67799428996654 10.295944771216993 8.800183330660081
