8
Energy = -27.7643202 eV
Pd 9.18722639818394 9.18722639818394 9.18722639818394
Pd 7.097531601816059 7.097531601816059 9.18722639818394
Pd 9.18722639818394 7.097531601816059 7.097531601816059
Pd 7.097531601816059 9.18722639818394 7.097531601816059
Pd 9.612369355240524 6.672388644759477 9.612369355240524
Pd 9.612369355240524 9.612369355240524 6.672388644759477
Pd 6.672388644759477 9.612369355240524 9.612369355240524
Pd 6.672388644759477 6.672388644759477 6.672388644759477
