8
Energy = -28.27159115 eV
Pd 6.6970374819515825 7.024037128089118 8.90497783987774
Pd 10.434005236390258 8.721629260126681 7.702968231224414
Pd 8.40027875571908 7.300617306135421 6.998211654781206
Pd 9.036748867310061 7.715337417234639 9.76542979288603
Pd 10.898846525888102 9.552657699614935 10.154636034660665
Pd 8.372271224867063 10.117994046208128 10.640565519694967
Pd 7.522792909869505 9.399027165418081 8.264853801360053
Pd 9.514770448377996 11.04545142754677 8.445108575888709
