8
Energy = -28.33712776 eV
Pd 11.511614955754629 8.954278334835674 9.887790846077097
Pd 9.573445297866078 8.344767136633653 11.572069308634322
Pd 9.411197647392079 10.577818770067902 10.144338063617274
Pd 9.634100115967103 11.775126366415734 7.8191451782425085
Pd 9.852697495619848 6.9429029971650325 9.402239754332314
Pd 7.682732233364767 8.439313789046862 9.721806844996001
Pd 9.70856557788145 9.163920534031169 7.955314387690804
Pd 7.4148867146905415 10.59279002893176 8.285389167527825
