9
Energy = -31.17055144 eV
Pd 8.779009074604563 10.458995932186264 6.47742193772407
Pd 10.251547112485847 8.81527196255347 7.635809359498105
Pd 12.132748551924339 7.973787352780273 9.157545364069971
Pd 9.780765342617682 6.9794693307446165 9.488716672035984
Pd 9.001468570299478 9.51879533847952 9.667359488759558
Pd 10.739282980012636 8.676513717628124 11.242290445873138
Pd 7.313700216952325 10.924536822473064 8.46993655223103
Pd 8.37688926894147 11.826451175981969 10.627525988505228
Pd 8.572699260216856 9.786694745991188 12.182316338060758
