9
Energy = -32.03810261 eV
Pd 9.296366631933603 8.194723917058782 10.76488057780119
Pd 10.550570794213746 10.04765286002143 8.892526192290328
Pd 11.711582578350365 7.906314395260127 9.737321697008314
Pd 8.189978606759015 10.371141451729827 9.971935064963178
Pd 6.692169513318282 11.563608416472798 8.207339340140454
Pd 10.089990703932408 5.936041469256881 9.695049390146458
Pd 6.721715518316303 8.950777033368402 8.373101348564386
Pd 9.102810797338517 7.816953521153944 8.211740175840198
Pd 8.632029901460932 10.200188700556593 7.133075328610862
