9
Energy = -32.18834643 eV
Pd 10.087261424107263 8.782757948596934 7.649470280498957
Pd 10.071359788379969 6.824005180551722 9.479964396238891
Pd 9.138578591805494 10.851811915602035 6.464522876942893
Pd 10.446200803794284 9.353524414509225 10.156765615597589
Pd 8.31867624751494 10.475904507986446 8.947898471945281
Pd 8.091470518175685 8.419646033061907 10.701090738159628
Pd 6.846614082501265 9.864452461086625 6.859638920116108
Pd 7.7690865345966955 7.845865297446144 8.175275673443963
Pd 7.61140409246844 5.9821567416019965 9.983350654470609
