9
Energy = -32.51454113 eV
Pd 7.228372799157082 10.882435898143505 10.123043486744361
Pd 8.232683769552603 8.423316443214235 10.53358294623273
Pd 9.41838739817559 8.711826834275453 7.400366384956751
Pd 8.30899581852507 6.5661535968007865 8.581815279286975
Pd 9.776648242966427 10.275570623261855 9.591664761562805
Pd 6.918856128318459 8.897699521416152 8.363429887084518
Pd 10.614420286922718 7.6906699960717 9.56181415815596
Pd 8.20721949136162 11.082693785688875 7.653050043255319
Pd 10.571929639069133 6.340644653601972 7.348809293176632
