9
Energy = -31.05367175 eV
Pd 7.552401996170212 7.868673783529662 9.330597633722965
Pd 8.891878516062969 6.260302758753915 7.822823293673228
Pd 8.356344896581952 10.526718148156599 11.499714492745513
Pd 7.358898787978058 7.951353667453042 6.752824302648387
Pd 6.584267143965819 8.78348638675912 11.39196765036206
Pd 9.238526096582994 9.734318579225729 6.870346789793513
Pd 10.741495952605435 8.049020725062496 7.992245130062092
Pd 9.301100407215445 9.60207549253668 9.45531368841557
Pd 11.328254109127469 10.595245636081712 8.230343498964535
