9
Energy = -30.03409453 eV
Pd 8.178004959738706 8.625508067971248 10.0215757031085
Pd 7.0773640044082216 10.918001304414453 10.022596785297202
Pd 8.526853573652721 13.08070995086775 10.01029618485627
Pd 9.640511499527943 10.801678635153788 10.022322717020705
Pd 10.767349588982158 8.479070408138684 10.017874715563693
Pd 13.275139895318658 8.338183338827932 10.012566316484513
Pd 12.250299555620055 10.613373936551254 10.021085006252358
Pd 11.122726218214861 12.896935247145851 10.02327136617576
Pd 9.327638550418067 6.412427110929192 10.014299102495217
