35
Energy = -72.95983243 eV
Ag 15.404830735036313 10.66223653152738 14.305613694932703
Ag 14.435830607649994 13.32697460772174 14.284149635141713
Ag 15.055242245573675 12.063265647315932 11.861839123405687
Ag 13.032650656673587 13.992337780276555 11.912719996735563
Ag 15.336627763749044 10.483458531637082 9.542698766877974
Ag 14.576104015233211 9.345163867380831 11.955552602094043
Ag 13.662251055679455 12.693780364660627 9.497255331998968
Ag 13.665513795292906 8.441233347238644 14.43043971058153
Ag 12.710870670102274 11.16403734064037 13.858183636516113
Ag 11.706713661898279 13.803240061794357 14.382458684277713
Ag 13.462485971892692 10.666266492113689 7.513997266575952
Ag 13.041729912768016 8.90936359399707 9.629605858654319
Ag 11.458662597279194 14.370058349543129 9.626458437807191
Ag 10.929972476165286 9.045463421236347 14.196680085955835
Ag 12.351365017761584 7.697349410816227 12.046924525199717
Ag 12.083449810926503 13.059667345577989 7.225966858228303
Ag 11.743118705555876 6.40489004747333 14.446499016182774
Ag 11.66899081313378 10.911230855583735 5.409045076403023
Ag 10.402091345357793 14.846111101388924 12.172816383206689
Ag 9.955541704928184 11.582628119418478 14.274666947951413
Ag 9.724266649820601 14.57379180425204 7.439216354209601
Ag 9.655939107142768 7.1482969199005835 12.612055221401986
Ag 8.913641816868983 14.142155328734939 14.428620791258602
Ag 10.45644498989573 8.137167360573814 10.109797626013433
Ag 9.618188827029387 11.775436794397192 6.9942990912211975
Ag 8.918592014070713 15.548255710794727 9.940893107211984
Ag 10.958113014832557 9.301448778636084 7.595180795207292
Ag 7.200144857469644 11.957343210053947 13.889493609920214
Ag 7.800026128099316 13.816074435752709 11.877563909829256
Ag 8.70865581116301 12.844384882323968 9.422119743250947
Ag 8.298056897931835 9.502323655293354 13.29461694426639
Ag 7.36391739732867 11.11402796600828 11.229657928672523
Ag 8.608143071137766 10.151841339715045 8.962195720625875
Ag 7.752256757528461 8.276027741341895 10.835884120498806
Ag 8.671026940395912 7.575256390971091 8.120622162165668
