43
Energy = -92.31060501 eV
Ag 13.8445735175919 7.247800054910512 10.351663932900081
Ag 15.543796159942762 9.310120642767565 11.074046135551281
Ag 15.39469943230837 11.554611012511375 9.346106341408557
Ag 17.698626315311923 10.907693308418944 11.074267331141654
Ag 12.786146944555137 12.274748004243774 8.303268225621197
Ag 13.133496665666128 9.959037025123981 9.828171539283812
Ag 12.245838053872946 6.201063304239474 12.34789561610381
Ag 13.207544092592446 8.955544978118978 12.616905668912617
Ag 16.34180193124367 13.274032400805465 11.364441159070173
Ag 14.376188384007882 9.250434798426395 15.127696319916407
Ag 14.347393916626153 14.167687390009318 9.606016504798724
Ag 11.159993786448146 8.13908038429207 10.457328576687956
Ag 13.637154929690047 12.074218484462715 11.6528842876022
Ag 10.474920861330597 10.651140855251185 9.26154005233829
Ag 15.415851693729488 15.952911107633 11.622375009418102
Ag 11.237459974270738 13.140852375725677 10.566637917043783
Ag 11.796061818768099 15.050653010670585 8.566936770777767
Ag 15.72007066573261 11.078134190848035 13.283755674654337
Ag 10.366574572327178 8.108847186090927 13.112768411013183
Ag 11.068479927425189 10.667923092549904 11.989837300584748
Ag 12.282406204476072 7.338810772081668 14.93135747738591
Ag 13.64046285127802 16.849514319093423 9.542712809971691
Ag 10.091428790070347 13.033377122613981 7.859698283968825
Ag 11.605322621570208 10.152745892195792 14.87797523048641
Ag 14.863664934546975 13.902564014930908 13.628004763002572
Ag 8.906394503447334 10.368359944313664 13.824185350477407
Ag 9.669387674382081 8.288597252321667 15.773800377346264
Ag 12.800654352737187 15.100083969493218 11.928591554236112
Ag 13.301873380927088 18.10928263177413 11.912343575457157
Ag 13.804594836213283 11.89675037570622 15.199164539171369
Ag 11.730656938541289 13.029477365890003 13.567330271434123
Ag 9.107588359602673 14.786689924890739 9.861926976539477
Ag 8.812483864552712 12.410764038811179 11.802099682113582
Ag 9.141899082963683 10.904593108960515 16.543089571303348
Ag 10.967595327154985 16.7900188765921 10.69771912833255
Ag 14.107055081295044 16.587486653274738 14.115972450563353
Ag 9.832435260437459 14.926591037414605 12.592449131283566
Ag 13.220354286307192 14.56225813137848 15.828978459242514
Ag 8.993534662242523 13.020748852719292 14.623121354797428
Ag 11.28296012691123 12.591201312228595 16.334069449129473
Ag 11.329450152541144 17.105220259693667 13.562746456744325
Ag 10.512429264374926 15.182375693513267 15.367158740372062
Ag 12.313927465015105 17.165847151125618 16.18440790649292
