15
Energy = -28.07492504 eV
Ag 9.814610336112251 7.807574881664768 13.537164181104496
Ag 8.754067072001769 8.064046725089899 10.981408200279617
Ag 11.519104029329014 8.458482145610871 11.39893248761436
Ag 13.017552249007414 7.846219319583654 9.113116696364465
Ag 9.582077818267903 10.306277996469621 12.53928412868901
Ag 10.296230394415192 8.171475401209959 8.716863839601105
Ag 7.738220413128265 9.111842454617113 8.64912918860797
Ag 10.031140691529671 12.013868528847276 10.377627307676
Ag 12.194926947024827 11.132497596309333 11.965899809682156
Ag 11.968441380102481 10.39527517556096 9.338429784665296
Ag 7.521198634623017 11.90243913295087 9.241502589559733
Ag 11.892332306018815 9.38510862111417 6.790796625513222
Ag 9.730393422455489 10.917046061357242 7.7026800774329836
Ag 7.77452524157173 12.296280398920182 11.933755855086307
Ag 7.085857261604419 10.98967050545469 6.735693377717076
