11
Energy = -25.41159527 eV
Ga 13.717996302028638 9.319800536585172 11.83854506258538
Ga 12.988791336682498 11.332812239671869 13.292929931014525
Ga 11.12710652715435 8.768883703232438 11.263746787872911
Ga 10.644829152940218 9.78203331142816 13.53265143654401
Ga 12.170435554690377 11.238300463423624 10.481892004162084
Ga 10.22708013375251 9.781601252579465 8.890816703770703
Ga 10.543125167837841 12.116514946998375 12.407160845948614
Ga 11.074718618665036 12.155706423239973 8.263499349200027
Ga 9.66268235288161 13.152910229768368 10.166899937511651
Ga 8.055294376211007 11.576239158073824 8.312006930754286
Ga 8.79866390450631 10.635591286957196 10.885190593348915
