13
Energy = -31.2856839 eV
Ga 13.210029700726219 11.384515861670803 9.187873378782008
Ga 11.694531372739153 8.388862795327583 9.946557579494938
Ga 11.512519598677926 9.924389716346937 7.843886942984774
Ga 13.529618735224258 10.013395559893384 11.50378993820311
Ga 9.198724826410993 9.711396028027044 9.195361327230424
Ga 11.504475046391105 9.554848702203712 13.275273113935611
Ga 9.801066348996107 8.184021686411782 11.727302689055877
Ga 11.087146663573762 10.90798618022479 10.84857564077261
Ga 7.571058807078992 11.779335430329562 9.512415435181392
Ga 10.516385517509551 12.413527173923761 8.840733922958755
Ga 10.562414173475977 12.066227907145088 13.23517540443414
Ga 8.55767588215937 10.522271400103277 11.79590555037259
Ga 9.319947377507944 13.131928007964792 11.095457895650696
