13
Energy = -30.91573263 eV
Ga 8.113885690461954 7.932122896519052 10.144962938908572
Ga 10.718603385311948 7.311000294741064 10.646555060250057
Ga 7.572723597014043 10.358777933042983 9.411964045119701
Ga 11.813474942307709 8.947075896593628 12.406279485482656
Ga 8.037121482403208 11.808014408214708 11.646226558066045
Ga 9.545652460593573 12.388980268682198 9.500360458359843
Ga 9.239377558024529 9.614567718758332 12.269395944427657
Ga 10.212707368510841 9.796216980265827 9.646592363804013
Ga 12.04610581644659 13.263522873381236 9.61746398599788
Ga 10.998561047624236 11.593735783155326 11.657231814953441
Ga 11.967763920762579 11.20132906484775 7.969327482861655
Ga 13.677786586313085 12.476837795953509 11.522056923805211
Ga 12.85570395201011 10.07081351073349 10.19675565488748
