18
Energy = -44.22536042 eV
Ga 15.872488350343541 13.471176552409814 9.594174772076531
Ga 15.43102146653735 11.280875081586805 11.281919022233435
Ga 16.203750801918098 13.665700654644928 12.479379635928577
Ga 13.666101089581316 14.115897568653763 11.541390513927158
Ga 13.50363101876492 12.174413405105215 9.51971683808588
Ga 13.225275368828575 10.009103477822253 11.707764477141582
Ga 11.760709989540008 14.15679304884049 13.334911780911161
Ga 13.902733119351204 12.110286403446695 13.386610821970084
Ga 11.436925850770146 9.542984735536942 9.80583224990125
Ga 9.362858552187646 13.132934461727102 13.068193938900254
Ga 11.578615211113654 11.479340473028266 14.183473588903007
Ga 10.819335698624833 11.918991444817326 8.834387622812027
Ga 11.570836524234236 12.213067828578813 11.437502996168329
Ga 10.675102692370388 9.531113325090447 12.387106873641846
Ga 9.067749318210126 10.685093404897328 14.138033026949312
Ga 6.9434230547607045 11.827390449793317 12.712212815567865
Ga 9.096069791845098 11.360454130565513 10.81114169324349
Ga 7.946560057651324 9.201639067049967 12.026894711497482
