19
Energy = -47.14734782 eV
Ga 10.108333822727085 10.462125984745525 7.954862673985106
Ga 8.714025196500586 7.871944574669599 7.967491616507548
Ga 12.408401376140391 9.8219272514634 8.989694643468175
Ga 8.090693980806176 12.767763532435605 8.442703373931533
Ga 13.98323964561871 9.465688177312908 10.978911688632099
Ga 10.477947785916871 8.091159656756782 9.931245269327498
Ga 7.6022521330967265 10.159404379250624 8.687428482770137
Ga 10.707890679119053 13.095122791178927 7.867292107690923
Ga 9.514416517291771 11.907068848958522 10.480574149381129
Ga 10.678661375341434 14.569296158505795 10.307366648332865
Ga 8.311468754237882 9.552228776438346 11.1340063778916
Ga 12.353908028493137 12.2659085685008 9.87705084318708
Ga 11.178457627337782 10.250346380432966 11.489114611496344
Ga 10.65752583564896 13.05828368805176 12.577666399930104
Ga 13.208417675687718 12.05067165204432 12.312096442190127
Ga 9.394356219624889 9.085220405085185 13.44678207196389
Ga 11.342243831281325 7.612827343577336 12.370573305697102
Ga 12.958550799150185 9.520913046946253 13.569009388246732
Ga 10.962052764793723 11.04494283245992 14.268973954185132
