11
Energy = -25.4107868 eV
Ga 10.468274318536295 8.959512295008587 7.098514270797209
Ga 9.694196828178688 11.4007364496382 7.329784459549533
Ga 8.208855931054423 10.017591129604286 9.016483148011188
Ga 12.664519445666004 10.705130829037257 7.793808594777957
Ga 9.207302829419989 7.544514261039087 8.909788091825108
Ga 10.649062087392814 11.470174909423635 9.743769303189518
Ga 6.598833634806571 9.892972808376474 11.317028882021805
Ga 11.420988127170107 8.992609565882582 9.684575272014362
Ga 6.725369489435874 7.687023644042681 9.976655962873396
Ga 9.091849153801718 7.400926062074665 11.489968834104792
Ga 9.30181242320272 9.922077691152094 11.567999281697585
