12
Energy = -28.27072876 eV
Ga 8.33397161535811 13.121754000646478 9.478162078594789
Ga 14.401011024712757 11.434586964833192 12.944743945575745
Ga 12.934662309261345 13.293554629119834 11.974760896773857
Ga 10.709451248923813 10.870887864624695 9.256213724338144
Ga 13.327461272645474 9.178250881428315 12.349088194484745
Ga 9.18703239699363 10.821895636426225 11.514133969855724
Ga 8.00058936997029 10.569005716572402 9.055737073458994
Ga 11.29683852742771 11.13646226437575 12.76291170960491
Ga 12.895167506687155 11.015896792946375 10.28794236556117
Ga 10.985133316243086 8.787336927340897 11.20323573864497
Ga 10.560976343258826 13.130517408926918 10.878238118788984
Ga 8.878467681341155 8.232338169701505 9.768130552379915
