15
Energy = -35.39889273 eV
Ga 12.241579452348603 12.2062046677574 7.239892719697131
Ga 10.16302944563875 11.824130555778503 8.84246353883591
Ga 13.032446532534102 10.226983128938604 8.801984660946959
Ga 11.08006053159375 10.06279701846656 10.604798830267978
Ga 12.789301321369354 13.166640397691191 9.808719498427756
Ga 13.634908928638325 11.182427802807496 11.174993881447657
Ga 10.702527990451312 12.817544738024248 11.227519408450158
Ga 11.556358267045939 10.853503327779439 13.105778556683275
Ga 13.805364255782978 14.868100155404209 13.95281950277777
Ga 11.27674303370834 13.588299703600958 13.649890034767406
Ga 14.065430700772376 12.051675375686177 13.578978751628732
Ga 14.923223730185233 13.268782128256285 15.69560778550717
Ga 11.922576481133515 14.92660537176734 15.775029135232828
Ga 12.304852627699939 12.06698933247278 15.572819297156363
Ga 13.198538544262044 13.586258138732548 17.665646241337512
