10
Energy = -22.36169183 eV
Ga 9.6361377133666 6.077496281135995 10.536784663660567
Ga 11.504769346565467 7.8606898109890215 9.917273240971772
Ga 8.571700664373056 7.027583633237674 8.353863176292899
Ga 8.669426607253184 9.631083533618343 8.09818451896636
Ga 10.79981781024806 8.18297479175085 7.4486797950807855
Ga 6.957055474399956 11.787072269991842 8.042315315717511
Ga 10.933310334061831 10.358951577881106 9.818267080253367
Ga 8.900875455800179 8.712738478458679 10.673069548174077
Ga 7.1650283463287705 10.647475380108355 10.437731373818995
Ga 9.362017067413825 12.206910624378217 9.182244852521837
