10
Energy = -21.52342344 eV
Ga 10.659668289556226 8.63766818856789 6.772775390808457
Ga 8.521780340876715 9.737179152384696 8.027467758104597
Ga 11.367986971591497 10.484412653112134 8.625781519231356
Ga 10.3472719713839 7.776923631417906 9.342345670546827
Ga 6.38609457870596 10.44811688584092 9.919655389325968
Ga 12.015909526465453 11.934520480233349 11.088884214543194
Ga 8.00721107793468 8.243441113215221 10.253819598795165
Ga 9.272464107295805 11.225117172815038 10.105578440842802
Ga 11.617713120502325 9.20699049863316 11.030540915545396
Ga 9.209601206066944 9.7113314141588 12.238852292635485
