13
Energy = -31.28486918 eV
Ga 11.716464306872451 9.931134058350292 7.82557831842631
Ga 12.872811334431132 9.670358775261027 10.40999118298319
Ga 12.520538360310018 12.165609282008024 8.91270429103851
Ga 11.931444757336815 9.817065653389712 12.875970205162101
Ga 10.250040590161294 8.499529443170506 9.607786244172525
Ga 9.324541742104552 10.896124219406586 8.239942973020328
Ga 10.7012527471625 11.050272491976342 10.62846026984438
Ga 11.334697447416717 7.391115025746461 11.757576531532596
Ga 10.158073167610691 13.3845990699085 9.439371184899548
Ga 8.360929811976112 12.463731284612976 11.26795043081755
Ga 9.296283759708656 9.246137501145965 12.120955259222631
Ga 10.145054587407937 11.831896817344255 13.165219964146898
Ga 7.741206670224489 10.11716094913761 10.160204370019812
