19
Energy = -46.91619772 eV
Ga 15.334525374683258 11.562774869409282 13.073538134075207
Ga 15.63406218270738 11.526163171939668 10.34116255580352
Ga 12.78393294283084 12.354831258248506 13.531855407315346
Ga 11.308646818635069 10.046225177406695 13.605020427799134
Ga 14.069317658660069 13.469737102058286 11.39438397378509
Ga 13.148185839381188 10.493011099517213 11.536916928079613
Ga 11.71454874284776 13.262133157304834 10.626628784128252
Ga 10.548739661610304 10.664672818221021 11.048607568143701
Ga 13.40150755765044 11.406373799611725 8.957041727097947
Ga 9.048524805745462 13.530274300136877 10.045249800648165
Ga 12.026873997455828 9.106914878358445 9.373307436337672
Ga 10.271149820723815 12.738470273139471 12.870670521598688
Ga 9.622143697583862 8.204594985606056 9.910737424359192
Ga 10.777437951354445 11.742622920764541 8.56960743061757
Ga 8.100779538056917 11.673356861115256 11.88419499643556
Ga 9.103914126800419 8.882313945427777 12.607158189588054
Ga 7.092523219860448 8.31230024153498 9.045182301207836
Ga 8.41907253285718 10.698914958460808 9.271256659180704
Ga 6.779886186992037 9.46126764920755 11.43981506615912
