12
Energy = -28.27786225 eV
Ga 6.350696449180596 10.950066525727793 9.21634252102549
Ga 7.164701153802236 8.896889120352196 7.9027855134701985
Ga 7.761559140578509 9.888290500366095 11.544926143961614
Ga 8.145021532507092 7.866828360563793 10.090099897488003
Ga 8.789749035821089 11.629245530862192 9.669356997362108
Ga 9.6506079360924 9.562925470352129 8.348689038128132
Ga 12.400323708797833 9.5244849510376 8.609487224468847
Ga 10.723255185120369 8.605884834329318 10.757968560919574
Ga 11.821561061924832 11.873519043220169 9.306116113340753
Ga 10.567226301289116 11.052080656883824 11.619410143620684
Ga 13.320893917905243 8.784453672729835 10.93548892858005
Ga 13.125589389328564 11.186516145922651 11.820513729982142
