18
Energy = -44.0068377 eV
Ga 9.670476843965089 8.840381581738425 12.215402630801204
Ga 8.913540824028974 8.754962763576481 9.689156779614388
Ga 11.513775466468747 10.647983046778238 12.9651632485494
Ga 11.332456543534658 9.809776479357435 10.172267381817973
Ga 6.917856205160544 10.41030448414372 10.724723774160346
Ga 9.27640239122141 11.489878152667375 9.631983525552783
Ga 8.910661700372327 11.4338877797827 12.26281939286914
Ga 14.281556756363448 13.222518119469484 10.6766439550562
Ga 11.60338563791721 12.483522120175854 10.31186046318091
Ga 10.578277228506803 13.495176826994387 12.756163641519715
Ga 13.656193495122345 10.60311603423287 11.246485825943541
Ga 12.46528563863955 14.970453358445374 10.740135930375308
Ga 13.973052350510338 10.5092606689417 13.99265962945693
Ga 12.115280568649913 15.493215690457113 13.294754245296133
Ga 15.813020320405302 11.755394626710688 12.22677839271072
Ga 13.07296319078614 12.858944308295715 13.274404551431939
Ga 15.622895864790786 12.629815543760687 14.816828107670544
Ga 14.755369928291008 14.907336134987283 13.236548030862714
