11
Energy = -25.65336228 eV
Ga 9.328604156952357 11.525075707244811 10.881959136492442
Ga 7.176067653912438 10.174272400110594 11.463152216368467
Ga 9.170735407188802 8.573426742001061 11.834135397330662
Ga 7.432422568891067 9.299913609046344 9.074169548276029
Ga 11.9553381229038 12.258507844624281 11.259197701289102
Ga 9.825299415685697 10.21407914331442 8.621200283690035
Ga 12.440615007840167 10.675907962796694 8.99665718668027
Ga 10.78238239160955 12.896017635084648 8.889031241447677
Ga 9.472479573914695 7.499578193955023 9.526366502316565
Ga 11.953626271227407 8.00941759477286 8.923555723722865
Ga 11.400288244242898 9.638062347441092 11.217892529020407
