10
Energy = -22.35032056 eV
Ga 7.615313745091153 6.73584818797683 8.03411473595266
Ga 7.1564428585154864 9.45530545210673 6.931259319192498
Ga 6.817167204270778 8.856000925178066 9.534025181597402
Ga 9.466449606350286 8.212018171035584 6.831270549820917
Ga 11.147288609481171 8.902281597577918 11.392028077525229
Ga 10.797962354453649 11.496981139072078 10.266254492022554
Ga 8.829351805445766 10.064286062155414 11.47444752112818
Ga 8.958630148056347 10.55186366881455 8.556034136918777
Ga 11.398712565339157 9.468724034277129 8.697285947579735
Ga 9.27444623854162 7.711857120920561 9.751321793662846
