15
Energy = -36.23606886 eV
Ga 10.070236237263886 10.022010826316372 12.776676030159173
Ga 9.215399008281752 8.50661038545519 10.661375314552101
Ga 9.692552942252446 11.301143756383146 10.313759285966226
Ga 9.187445683823508 12.570267395151642 12.613637459295811
Ga 11.86322780011238 12.022445599258607 12.869854418558589
Ga 12.255963678499212 8.117060108506147 12.72612894973267
Ga 9.714280648828504 7.20252065429069 13.003202153633271
Ga 11.783652270557054 7.506836497699773 10.212122564448428
Ga 10.784601923563619 9.404767180375075 8.49309621553843
Ga 9.412464932816494 14.200852417277645 10.572957757191432
Ga 12.233646519756066 10.146398316655137 10.873886649935402
Ga 8.940463336712043 11.225504795877296 7.7407927994233345
Ga 12.386487909223566 11.465911812775593 8.303365454094404
Ga 10.41079501215365 13.353273920441268 8.24151365213019
Ga 11.982154918587003 12.87962979228071 10.529135974739441
