19
Energy = -46.44863012 eV
Ga 13.157245298441259 10.426114598830468 14.89400421526335
Ga 10.954569337461466 9.302937439376342 13.256993196116023
Ga 13.517849306064322 8.690197992845281 12.750605286373938
Ga 14.2885531633541 12.73458634137913 14.195042705442813
Ga 11.69383405522147 11.910675281366043 13.175953991055003
Ga 15.62086519120115 13.475497504345832 11.61597900924109
Ga 9.356536554892834 11.224886469204597 11.91489972900958
Ga 14.23687459920987 11.096557508701578 11.951744521548681
Ga 12.070694569342757 10.22616154048273 10.762725311901947
Ga 13.002655499822712 14.102867099232213 12.075709126757102
Ga 13.526721700629423 12.481646228866586 9.748937813956065
Ga 11.021987868207137 13.0004144187807 10.798371793944805
Ga 8.732667645501673 12.504790010676338 9.69140531817132
Ga 8.743956159315879 8.539557255569136 12.076077384136813
Ga 11.254602806899141 11.703832092779788 8.271652795072153
Ga 6.288310295860724 11.817427256358616 8.490128179703946
Ga 7.349405622673719 10.010854383625826 10.444852407875487
Ga 9.98878191751575 9.530742468517449 9.608780766047394
Ga 8.615582943867507 10.651387655754462 7.681484968537299
