19
Energy = -46.47129154 eV
Ga 15.359433185084413 12.024677376889958 14.976242082739114
Ga 14.07745170164801 10.03715670689197 13.358849602830718
Ga 14.19294857817704 13.240481735011237 12.924346777738766
Ga 16.552426526402666 11.01365287813142 12.705734943308093
Ga 12.685768130022103 11.903022178850895 14.844009217572491
Ga 15.999446850001494 15.20928647055403 12.010435086026986
Ga 11.738616450258936 10.602800538966235 12.338571701420866
Ga 16.459559202521575 12.85574609920021 10.78380252795343
Ga 13.294351933566416 15.644612043498025 11.935222340523234
Ga 11.48744299149766 14.01953950128112 12.70869951795132
Ga 14.09958590506798 13.900877406232945 9.951908429335298
Ga 14.231688093016576 11.240642487218825 11.06064841370889
Ga 9.190737130220096 9.695498218880903 12.730246645439728
Ga 10.169337630300756 12.018840410496924 14.230008681855
Ga 11.974966166910061 12.622178941381323 10.440155195878493
Ga 7.074733099201815 11.865326626691125 10.897814989439773
Ga 9.038133129238542 13.343850336792524 12.166518769118625
Ga 9.65404422945492 11.22312096948965 10.569125639255416
Ga 7.586985251216486 11.518641985295838 13.632280575548842
