11
Energy = -25.02444 eV
Ga 11.216708905752864 9.56224842797842 6.297818045642586
Ga 12.05878846993737 9.087128756785763 9.485849305573891
Ga 11.077915664596901 11.278103901720323 8.410205664272828
Ga 11.701895631623652 10.953211372668406 11.241873920928443
Ga 10.467210293128106 7.5520312674327155 8.004565191264707
Ga 9.738286338293992 8.32876893330194 10.558396744399557
Ga 10.058131796566538 12.075075584523852 12.821165425346779
Ga 8.978922272562302 9.694406179277237 8.251054179042088
Ga 8.872147651115544 9.411875298399274 12.651277118818918
Ga 9.034610862366609 11.090070231315766 10.33586745738865
Ga 7.533438146990878 11.733994192581408 12.7278541989517
