16
Energy = -39.64837395 eV
Ga 10.660319664129366 7.790618042485614 7.878623594071491
Ga 10.892636834934983 10.417960391053857 7.017639744061915
Ga 9.87708755059398 6.767263464556902 10.312162666302038
Ga 8.413282806735925 8.968642088643465 6.319608537943324
Ga 9.236939890514734 4.9517018686246885 8.410349720998955
Ga 9.246371538233776 9.377542430613406 9.455171347691604
Ga 9.404297076685408 6.444163892410066 5.9567135058363325
Ga 7.907162321991516 7.249371199987613 8.303146065362977
Ga 7.407124833850392 7.62410396412189 10.948511621878378
Ga 6.631892302879888 4.722529190282382 8.70347483586567
Ga 6.033378980869455 11.287280350126219 6.533769202994062
Ga 6.64398536807917 9.59093063814642 9.141603578800739
Ga 6.7742425510842175 6.174815482744094 6.098543861201052
Ga 8.411081920532224 11.284863398863914 7.657919270967282
Ga 5.811341214338108 8.576756087543922 6.792788620127567
Ga 5.268985371406124 6.996396416798672 8.985588769663755
