18
Energy = -44.119428 eV
Ga 13.165391383462797 11.680008626388586 13.995763201286541
Ga 12.806975723659594 9.816915273166488 12.128172860607782
Ga 12.269597507888216 12.501922414376596 11.518649000734571
Ga 12.368628610602087 11.015305683351393 9.389983030394228
Ga 11.304840730553485 11.553064723156606 15.946069836236457
Ga 11.978857807976949 7.206191885721433 12.43331336250661
Ga 11.630042553019917 12.286339420737898 7.2305864493367435
Ga 10.457816221779892 12.545709097697793 13.533306150171205
Ga 11.527321431050641 8.640968215734235 10.034149851720006
Ga 11.619177893425746 14.079239395807614 9.238460589822568
Ga 10.525814609781593 9.745103084374344 13.733093535741983
Ga 9.48091364605803 8.032382073915471 11.851883470533583
Ga 10.628384575552763 9.709958767555461 7.665994228611915
Ga 9.67761174686581 13.767011174977304 11.205220586636555
Ga 9.089242921231826 12.044981389959524 6.681149553935484
Ga 10.02377428834236 10.803700643575166 11.429581637769429
Ga 9.45564362383735 12.00057031853651 9.25502040721939
Ga 8.734114180001567 9.310792981362741 9.471429184161707
