12
Energy = -27.79142912 eV
Ga 10.298538545166632 12.350789565279872 10.687656676167286
Ga 8.93604714142946 12.270071531822339 13.076995787448633
Ga 9.817488112867721 10.208568810042847 9.343092615226746
Ga 11.39420226853199 12.69882541905574 13.343180124937419
Ga 12.089256886093876 8.845763305457979 8.838237283951637
Ga 8.49682473237203 10.282040275054053 11.62300320411701
Ga 12.481984063672648 11.165826692681573 9.76757672645199
Ga 11.191749619414004 7.959059505970904 11.064506909551998
Ga 12.801332943336154 13.44105441746034 11.293876624555505
Ga 12.9561831320517 13.521281149228882 8.646094368525693
Ga 11.445162495869937 10.143160608342384 12.255278794441297
Ga 8.604923260568945 7.858596013101309 10.59383487039916
