18
Energy = -44.13030946 eV
Ga 13.06350856825155 10.266437245207166 11.175642044724087
Ga 11.354408707530391 11.300019096032589 12.865408765565164
Ga 12.960420093696882 13.075337195691658 11.289127466360563
Ga 12.955961533569054 11.963457599726134 8.947673593019639
Ga 13.058396121849425 8.311937867066959 9.1746615614971
Ga 8.49615483259628 14.274477040191494 13.04827394850024
Ga 11.061929431818621 8.413523601640591 10.810428081521176
Ga 12.263514284722588 10.047855398547204 7.3718749586255115
Ga 10.54244673432832 10.991932725645762 9.835628068993028
Ga 8.958689385888821 11.707672657925665 13.825469549279852
Ga 10.308829515561365 13.241000299550048 11.240902993527367
Ga 9.937049352937702 9.164906798038448 7.844662461660152
Ga 10.791742237097994 6.604815125336613 8.686197226026124
Ga 7.850696844859176 10.17320784452952 9.438131214959473
Ga 7.929281519345104 12.063356331217557 11.20670332070904
Ga 9.1364012822791 9.759651582603723 12.078131928299367
Ga 7.554655298404393 7.943998194238537 7.823415294137419
Ga 8.677282719721644 7.651818874356911 10.309317554529457
