12
Energy = -28.01123648 eV
Ga 7.058129484677716 10.614663370310142 10.752637449047752
Ga 10.766651522460162 12.72680378369939 10.407161943448541
Ga 8.397243519628253 12.423092769886457 9.343363415603319
Ga 12.165541480835172 11.16176807496322 12.033627041801482
Ga 7.4122913561435375 8.16574511698357 9.91432951804258
Ga 9.714466052052876 10.2992802155187 11.212570829214815
Ga 11.482297248561208 10.818108286271354 8.731679577949299
Ga 9.068902672529935 9.949013444470049 8.50999139763259
Ga 9.842844129706847 7.811167065727743 10.73579446966968
Ga 12.395393445069317 9.009384895891973 10.623516754760383
Ga 8.831329820640915 7.35038783703228 7.691447345966693
Ga 11.235763795006791 8.044847449739402 8.410760359948489
