13
Energy = -30.94064395 eV
Ga 7.643810802782841 11.80012337841275 10.776907732323892
Ga 9.487240389653596 9.996066476453365 11.092227153542963
Ga 10.134170545069562 12.740892138435386 10.451313693338244
Ga 8.728707088745429 11.373474884283986 8.308223937136443
Ga 9.450638364480007 7.9503584977733945 12.794077425987725
Ga 6.909585984383176 9.472117087457342 9.561054021804074
Ga 11.28975875759956 12.237609637956337 7.995206764256949
Ga 8.640949379333442 7.51384989958487 10.28498725135807
Ga 11.817610131610069 10.53611983250097 10.068684788323397
Ga 9.41231431556905 8.977056552228827 8.149102370145293
Ga 11.316176720180493 7.635277287712651 9.634991048511287
Ga 11.92263345590085 8.683819478275124 11.976082571235834
Ga 11.827772906890594 9.664564959995193 7.504450134278992
