11
Energy = -25.83212797 eV
Ga 9.173146579679733 12.568842236622704 9.226343630353846
Ga 9.868834543746559 10.369348004727055 7.986044658888563
Ga 11.00878091181938 11.50719622452414 10.982027013633127
Ga 13.720675529493903 10.660438638163521 10.313749877380314
Ga 8.336249154075933 12.42363816695321 11.7063062048763
Ga 11.347759689583649 8.993941166787916 9.798489324713579
Ga 12.11971813712891 11.609538607325021 8.47360462777086
Ga 8.861382317768367 9.81938601624644 10.451498622547769
Ga 9.624495984173755 10.726540268210991 13.226392601417986
Ga 10.338303808380207 8.409349486813806 12.241358142150453
Ga 12.542071253865423 9.79813180693747 12.486238248149483
