19
Energy = -46.96238404 eV
Ga 13.768388798719357 11.888231252089806 8.222493739533649
Ga 13.941928397375555 11.049038133490992 11.247969597937207
Ga 12.397990184723133 9.869343029562335 9.522527798456155
Ga 11.923786654151927 10.83399412010936 14.195021108807493
Ga 13.851415821518225 13.637121824682236 10.181034019806894
Ga 11.14495388008155 11.183046499357784 7.376639767853538
Ga 11.377173594693131 9.994385803856494 11.930249812073782
Ga 10.699847820651739 12.587119133791955 16.440589475047148
Ga 9.647208028066888 10.035123957300708 9.51887963189636
Ga 11.312936713059251 12.53309217442052 9.743834112491955
Ga 9.304876845143053 11.765383932457802 11.485923256188702
Ga 14.409850019287942 12.05430905188991 13.464070922116589
Ga 13.374924361928114 12.217180128568051 15.85579754416447
Ga 14.122342089930275 14.668171041735448 12.636337475685654
Ga 11.871086253173235 12.93779209058504 12.139414422696184
Ga 9.72093238410252 12.550368844622303 14.009101012055
Ga 12.555130476064694 14.685966365713321 16.916194239631064
Ga 14.817764018716385 14.47422644729623 15.181603583836928
Ga 11.962019303130994 14.192801642497145 14.296359812330282
