16
Energy = -38.70332362 eV
Ga 13.76961817072565 9.224474273490845 8.65692235693636
Ga 12.323160300469617 8.48739658589477 10.693719506275256
Ga 15.011839691717462 11.456938095397781 8.375199177862543
Ga 12.023126905742279 11.215544486455066 8.696112019264273
Ga 10.043016906431612 9.750796085366337 9.991282390675208
Ga 13.626572875806767 13.45888616391093 9.36020721203574
Ga 11.827585260078985 10.60996953473149 12.386374277652216
Ga 13.878381385530911 10.840072488204191 10.944741387479482
Ga 13.326653779681413 13.23793919249867 11.937448534982979
Ga 10.934882158108588 12.471035205957387 10.538917024030034
Ga 8.68606342426918 12.478272041696687 11.761571066465734
Ga 9.251121930430886 9.992016490402431 12.710331906927909
Ga 8.660826433940771 13.40929067384463 14.328908605647744
Ga 10.989602616483154 13.4336082537112 13.05383920989814
Ga 10.395324521419395 11.373276895967281 14.6607025576001
Ga 7.111338154534915 11.29434207960183 13.851611952191085
