17
Energy = -41.01748514 eV
Ga 9.450360529549606 14.011498235572514 7.090988846434522
Ga 9.841877313240815 8.750658195520778 7.946401981207814
Ga 9.001038045106673 11.1913043057624 7.4565965404448775
Ga 11.259341780818747 12.338526075002747 8.23725278264266
Ga 7.529448763093118 12.955878432665498 8.884557611146539
Ga 9.788235068921933 8.312690617878255 10.590587318154771
Ga 11.763569867011412 9.976326447428558 9.399180008042544
Ga 9.716452468024434 13.816143363235984 10.058732825994445
Ga 9.967691153871453 10.391327799403493 12.421696398369754
Ga 8.972859646071896 11.00565025949893 10.083792504096218
Ga 11.476042293614368 12.266396644756279 11.053102522722016
Ga 11.273666890030587 7.9889447823605595 12.664357082158608
Ga 10.961236519156309 9.954027258909731 14.933721480603364
Ga 12.183290143693293 11.831592481451871 13.590368393295485
Ga 12.923118253758382 9.892044500903959 11.69055541043943
Ga 14.671594039455151 10.760998210332962 13.769832389244314
Ga 13.263254505683184 8.598374858936673 14.163237589569283
