10
Energy = -23.0281895 eV
Ga 10.307577623135618 11.089990542174272 10.926460619837849
Ga 10.044215328577934 7.78216356828744 12.130512843880624
Ga 8.692360050367565 9.992511415071698 12.548213795269929
Ga 11.916284053935508 9.009052585807154 10.783260162498182
Ga 11.078832052078742 10.369821631373558 8.396929036428558
Ga 7.783417297678802 10.002184166968204 7.162843537487996
Ga 8.9402273133389 11.902555312710764 8.537150519492393
Ga 9.742516658209384 7.97921201654413 9.39102360904626
Ga 10.040706008570066 8.731494351385738 6.748733288753631
Ga 7.9800352648149415 9.674484498603418 9.903169751344839
