12
Energy = -28.27732066 eV
Ga 11.585991765460324 12.615304230576712 12.457092011093984
Ga 11.899517799144597 11.983187351694669 9.665771967186283
Ga 9.585962250548176 11.66101259984683 11.146536329228086
Ga 12.885801822547784 9.803555084239978 10.442754702555087
Ga 12.359108654371076 10.215390184559379 12.974177931337938
Ga 10.3486810261846 9.22745308276086 11.641054316671934
Ga 9.186408274480618 11.16713832488982 8.51055157115892
Ga 7.345961217603883 9.954316776827103 10.182704452541888
Ga 10.713938770431486 9.09358125685859 8.858034728480481
Ga 7.465023548461082 9.73299360807266 7.269730620176671
Ga 8.937139260896974 7.654612872452794 7.5684977572915075
Ga 8.546570105332341 7.749980371567597 10.143570858112112
