14
Energy = -33.42579799 eV
Ga 8.64669401800254 13.428100396644258 8.580143222081366
Ga 9.637594736713917 10.994931485387852 8.558003619204197
Ga 9.930005154769814 13.035348947342099 11.76192274918731
Ga 11.178664052996131 13.059013849050366 9.533012784007218
Ga 11.60573977167348 10.336605714751235 10.317877081779173
Ga 8.878741224171627 10.629888223691001 11.022631659106692
Ga 9.954165341303325 8.366782373987926 11.946606373799291
Ga 14.172449144447283 10.214626649969457 10.777687122464394
Ga 7.433901868590723 12.928499386730937 10.860803115007954
Ga 12.527652926296629 8.755253653267939 12.396065883872545
Ga 12.96890830642569 12.511938422797261 11.421266874104571
Ga 11.331607945500478 11.021965354598086 13.051732070341613
Ga 15.11081279766871 8.789843298118715 13.300673878375825
Ga 13.912156853941369 11.194657792165295 13.560304142029462
