11
Energy = -25.61372631 eV
Ga 8.721578984109854 8.950184063161535 11.827764840879036
Ga 9.220361350856448 11.651062324500334 11.358868641725262
Ga 10.797245552552539 9.99149981928186 12.989262042338185
Ga 9.003948495010922 12.477196394285919 9.045782009651813
Ga 9.294931645128347 9.755288394273418 9.168164439396728
Ga 12.457714072305821 8.362808984241505 11.73953821497994
Ga 11.52938667832222 13.110103727179043 9.64887576250561
Ga 11.664598556488327 10.367586094798023 10.1328947556415
Ga 11.752819106285608 12.481403993059024 12.11067120173996
Ga 10.42988385160264 7.579418493147462 10.29719298103753
Ga 11.167262381622502 11.351818705603993 7.582911692358881
