19
Energy = -47.11602083 eV
Ga 12.62369144150773 13.591657776086125 13.837992089845839
Ga 15.218425764357937 12.197893332781781 13.690293069434333
Ga 13.372903865739257 11.667649348896022 15.602545709195896
Ga 13.85487347957371 12.704073939166369 11.47644019531666
Ga 13.847524427713891 10.105531027322352 12.773080030745742
Ga 11.437793986374354 11.067184568901403 13.86166476814896
Ga 12.32804938415772 15.035303209046146 11.580357339320573
Ga 10.785048226791131 8.64478180787659 13.294754352706997
Ga 10.624195447386795 11.201489222995978 8.61406362973586
Ga 12.10814913503534 10.773706385141832 10.795783614206298
Ga 12.179453087179661 13.248279445135081 9.522182379598396
Ga 12.58333032172137 8.16999839911695 11.33229393934068
Ga 10.619553573227495 12.909411054475122 12.09428962262852
Ga 9.420278849176654 10.467337059435222 11.697603057798142
Ga 10.713189446790777 8.703219464176964 9.53784444640542
Ga 8.753626433063397 12.474181402968568 10.193244674995977
Ga 9.086527485001536 7.822108815256889 11.47972161327133
Ga 10.102686988830433 13.869551854854445 7.862432693847129
Ga 9.925368312195053 14.93431792025166 10.408257275633057
