18
Energy = -44.40480731 eV
Ga 13.875481848122018 10.821235956753945 13.7674574264196
Ga 13.615448731513895 10.287820582747559 11.021753202625806
Ga 10.947209813964536 9.505974428277806 10.34159598650848
Ga 11.819994697702414 12.75835896832576 13.267997017368671
Ga 14.356609853357085 12.912407768158333 12.04280996906025
Ga 11.533208613899554 9.960208727061318 12.861039203290913
Ga 12.094825344764926 12.598050153803113 10.567739931915014
Ga 9.635667377661653 12.517852515314766 11.657831862307885
Ga 9.582894494651123 11.356998330654262 14.193322273750725
Ga 8.907483244866206 9.791828682440437 11.882063648540576
Ga 7.098802380267204 11.517214677203166 13.045336743746759
Ga 13.297223877775128 8.443038757208006 9.219980284310749
Ga 7.223877532090118 11.364751842887761 10.32762123092619
Ga 12.220661577433615 11.02222113977872 8.456083747308845
Ga 11.026569734343001 8.50151208585557 7.7158364143145635
Ga 8.63426080736081 9.249096505824568 9.131757434996645
Ga 9.634430069753304 11.964795772084964 9.15319891384792
Ga 9.98100049037371 10.872068733250014 6.78508902325546
