10
Energy = -20.21174997 eV
Ga 15.189058604030444 11.016051012144972 11.05871615210307
Ga 11.400144488305102 10.79521282466166 9.131384634299188
Ga 8.221544817847281 9.09916928101518 11.567371256298543
Ga 7.999380277716499 9.04105406705742 9.08606606818303
Ga 10.674357054105007 9.261423028418674 11.568169685036427
Ga 8.888283912803962 11.5994488901061 8.949252756040496
Ga 10.579737509842754 11.523832692624367 12.676466798908352
Ga 11.527272752393493 12.928298861545915 10.774044196819055
Ga 8.212309157354236 11.588971964418239 12.09413771662876
Ga 13.488342663139434 9.393308806797599 9.319635459255856
