15
Energy = -35.86282964 eV
Ga 14.564220611964027 9.603328585450408 11.113967265904897
Ga 14.486218298465717 11.232322983299717 13.1700765003988
Ga 11.886772969887364 10.574600315445633 12.80875747605904
Ga 13.061791614222683 12.259325228791171 11.013445667554357
Ga 12.770554583683452 10.281437874754245 9.220668492863185
Ga 12.133019786178806 8.442661277507627 11.181584477534585
Ga 10.723201131830095 11.861219008909936 9.853713785369429
Ga 10.189427810151397 9.177175102512122 8.938133482560835
Ga 10.809347580226877 13.606971267907632 11.916922014765698
Ga 9.680695760884388 9.663613407358689 11.585743275252918
Ga 8.94509030268151 11.347014160108506 7.993085953076396
Ga 9.559995481376314 11.778634523567913 13.318193881540877
Ga 7.736274713928669 8.962148528165143 10.03265333362433
Ga 8.22830168740909 11.75740279886304 10.629165421133585
Ga 6.385780365614579 10.587414547971116 8.37706478453819
