14
Energy = -33.4071996 eV
Ga 10.152718280787767 8.168179991736235 9.2586797127469
Ga 12.913430734661416 11.14102082395051 11.420289244410792
Ga 9.998854705997939 10.299511072022424 6.921173607463441
Ga 8.758884654806645 11.342509244558856 11.222368474884657
Ga 8.082893581981027 9.828375809113213 8.918202387735702
Ga 7.593450431656195 8.968682898538082 11.324717808302173
Ga 10.511095939406896 11.821677689401815 13.293686626738387
Ga 9.462280247288927 7.250264186057795 11.574007182065357
Ga 10.66544233739948 9.606116052158413 11.763595482669082
Ga 12.976187617737056 12.713289157932744 13.689154013697804
Ga 10.947533112182441 12.830738759560774 10.804164147320302
Ga 11.916573756452228 8.643343855429482 7.335387974588502
Ga 9.649811871084777 12.189513986893495 8.648404867035818
Ga 11.781501881941965 10.59291321125864 9.223029308081317
