12
Energy = -27.67197221 eV
Ga 8.95935066977631 12.508030468485472 10.004572703541525
Ga 13.22954963948698 8.921652345601485 12.608524229180086
Ga 11.395587068203422 12.147404663971711 11.520646483564475
Ga 9.084556075095524 10.984859458345973 6.95789771895808
Ga 13.293614113499379 10.570226122303854 10.598394895968548
Ga 12.77408646325211 11.409256809733597 13.79093802768283
Ga 11.009400295777061 11.283326879431371 8.9025064624441
Ga 9.389378147006314 9.09912864790489 8.825580716915942
Ga 7.163906131989582 10.856259222764418 8.987185192526955
Ga 11.283370913527786 8.852359243723107 10.649504907215476
Ga 10.606823047397201 10.0342717401014 12.99659382838047
Ga 8.708013713604297 10.162794832480154 11.176602416487885
