18
Energy = -44.07386128 eV
Ga 14.490815921421 11.469543830568318 7.79688740181422
Ga 15.9571489882443 11.648917306816186 9.980032601904774
Ga 14.222891553092733 10.02952698037349 11.038529038712888
Ga 12.393312056314729 10.494076859541636 9.073162022639368
Ga 11.0860475609932 12.478630902055343 10.516751927408295
Ga 13.603688390677295 13.02777669971913 9.951308765833923
Ga 13.235512260758453 11.89471534382421 12.573097542117322
Ga 15.68926234566459 13.179233253787222 12.142701828077206
Ga 11.85417992574207 15.127299564718259 10.495915952564124
Ga 8.949116552502437 12.216471067608179 12.033482261898515
Ga 13.504214754998749 14.580451501520646 12.465471507115435
Ga 9.290918186771087 12.68743696273397 14.813659483487834
Ga 11.454711185899841 9.957059585482419 11.455065405301912
Ga 7.140527783405739 11.105544017181073 13.689317873425248
Ga 11.22539258440937 10.939796678381557 14.028998634961063
Ga 11.06145186085214 13.6837349998045 13.079822502416715
Ga 9.144741515533758 9.616220627596153 12.758932009196284
Ga 9.177875640266757 10.134630975812957 15.637426805852753
