15
Energy = -36.1684925 eV
Ga 10.208386559214137 13.019790903968106 12.544807580283946
Ga 12.31849284015994 14.483718590823937 11.72682698743577
Ga 15.037804693377852 14.097204795834996 13.241202897913475
Ga 10.627867242972133 15.848409493765093 13.340134706658487
Ga 13.129601768994945 15.159976479735626 14.522568961226545
Ga 14.87639705717101 11.614377980878613 12.30457100188558
Ga 13.550977413575227 9.634268536258142 13.806774773099356
Ga 14.645464323796133 13.920847843463623 10.55927454658722
Ga 13.845003159972118 9.420534977480699 11.085416648626575
Ga 11.441545673119526 9.567191215997532 10.2588637211154
Ga 12.618283748842007 11.978814224234988 10.85568255895149
Ga 12.871734696012613 12.417991118826855 13.821940355027635
Ga 11.237897688940478 10.553047894626795 12.870772376738506
Ga 9.572898827301543 11.393133623915368 10.554016263754704
Ga 10.940140299336527 13.735392613342148 15.118913800877547
