16
Energy = -39.61346856 eV
Ga 14.598346420233211 11.79157654655557 12.108000347950082
Ga 14.896663367585155 11.55990883659039 9.468525504058753
Ga 12.617140756969711 13.19013926385863 10.724122423497377
Ga 12.06753092832333 12.357950931505012 13.181491059561976
Ga 13.70379888781581 9.803872321001668 13.720541549722034
Ga 10.236588129155146 13.964326331002054 11.829995784062952
Ga 12.757186326619516 10.037384226641352 11.066613434721962
Ga 10.036042424150246 13.127997018910893 9.137144879152265
Ga 10.835366048755533 10.137270832806935 13.613731531606536
Ga 10.665097225529706 8.479620619239281 11.544987085124998
Ga 12.158956635443774 11.433689577386229 8.774362491265064
Ga 10.342041127896543 9.542160840937797 9.097411084711366
Ga 8.244902424821015 10.005526614726282 11.795635313057792
Ga 9.022595662199478 12.211345592436045 13.425036784994658
Ga 10.461228145741671 11.350454738795596 11.124676382557496
Ga 8.070372387073363 11.409400481417746 9.535766889415921
