16
Energy = -39.60826773 eV
Ga 13.828292262014328 9.855915095354709 10.043458731783073
Ga 14.258330558298928 11.707670682801462 11.846604915191229
Ga 11.388246077636781 8.119380094201103 9.8991802906412
Ga 11.874006795253484 10.403330812241997 8.14712635025075
Ga 12.111328929790593 9.738741331724299 12.086233272062845
Ga 9.920863096417374 8.012223459614855 12.081965449132127
Ga 11.953334286369362 12.185469360216125 10.115395651867887
Ga 9.462197484055409 9.017806666967163 8.067130490411305
Ga 9.978075050835264 10.328750031296666 10.396631819484327
Ga 9.552168812844847 10.516457302960477 12.994176739069744
Ga 11.954424822554515 12.343400795829618 12.973005274704793
Ga 9.722813751437332 12.19227035586104 8.547339672605009
Ga 7.727933019679092 8.822543330022498 10.60303762363366
Ga 7.379327020349947 10.677439188132565 8.29932721057291
Ga 9.775684407447853 12.967977454983073 11.441377131075239
Ga 7.54596043214517 11.621865155034795 10.864941758590001
