12
Energy = -28.2278641 eV
Ga 10.944786815574584 13.969749246185378 10.568822414592198
Ga 9.081513608429777 12.08780987116155 10.481276064326678
Ga 12.501876569393641 8.814102210483648 10.025195718538086
Ga 10.429325467363325 10.122491027311879 11.891845704594497
Ga 9.955120780075283 12.168129880778984 7.779851326910901
Ga 10.068809417014695 9.774566417404426 9.312877158082097
Ga 12.455077962937779 8.761497335894314 12.722799356304895
Ga 12.52873191720949 13.61763701517298 12.574996063152641
Ga 10.106653460798213 12.352748439898157 13.054513098677663
Ga 13.360306260853655 11.190476661859906 12.141395458983371
Ga 12.0015180696375 11.618296236914473 10.066547095146515
Ga 11.721858935714353 10.722736743393348 14.531223813603983
