17
Energy = -41.32499369 eV
Ga 10.759521890418636 10.313779047150335 7.201901411813147
Ga 8.147412739652927 7.53955578425461 7.247150221557583
Ga 8.097589477287473 10.068676583346406 8.020991430819432
Ga 9.391418037730771 11.729656234104109 9.402475119820561
Ga 10.375042957013951 7.863765217884254 8.663213791370628
Ga 11.611476566095314 9.842675003511694 9.715843836589373
Ga 12.125901752885031 12.289061238607276 8.716739235068724
Ga 8.970414397460218 8.283917265218273 13.181983123362286
Ga 8.854517810828007 9.222253372791144 10.476425923877903
Ga 8.620957252146448 11.026421623914048 12.470376212695866
Ga 12.70678016400979 14.238329231863638 10.380240933136946
Ga 12.973470007528636 11.418534498692061 11.291491616235755
Ga 10.468894568783638 12.694590326942805 11.38909666331864
Ga 12.657866923215947 13.477119373114084 12.933112747730343
Ga 10.78532343750152 7.246929688005008 11.319842816930818
Ga 10.896280801176925 11.768956188929783 13.970437173769088
Ga 11.289860600625598 9.708883605030854 12.351057274042889
