11
Energy = -25.31133847 eV
Ga 11.404074658244735 11.240454945258554 9.69532623082008
Ga 9.94625004844439 10.405392383693275 6.243126225273636
Ga 9.122933730941078 11.597406041042385 8.429034299032182
Ga 10.704641139800868 8.585021114806302 10.013240031252876
Ga 11.882102239111747 9.474260548259958 7.772005568168687
Ga 6.820231937418642 9.582377179004167 9.386074283811269
Ga 8.885778878434529 8.635701514325593 8.100572597960072
Ga 8.892202954932737 10.473117892095505 10.853871144561156
Ga 9.017442714978834 6.352334505142964 9.599709678578144
Ga 8.459968610605202 8.132178111635323 11.58021798612977
Ga 6.42822172078287 7.095140955449073 9.924247350467011
