14
Energy = -33.86390269 eV
Ga 9.66091578280259 7.973454848208835 11.881332339387418
Ga 11.451026490749097 10.19168834039559 11.3164305575634
Ga 9.443163629279338 7.080000041111767 9.450161143266335
Ga 11.619449725527945 8.570493228801748 9.24239025794737
Ga 9.299719844324176 10.602742135314047 12.71685417283062
Ga 6.966354979656141 8.046849548574675 9.140636375578675
Ga 7.040787268445094 9.614945001684715 11.160557922602953
Ga 8.736763383406283 8.91232588802041 7.368548170900734
Ga 8.241972494606738 12.28086868756151 10.986958089327677
Ga 13.058767773462336 10.584680602922854 8.416931259445336
Ga 13.20144994791868 12.048423331924647 10.530453136579109
Ga 9.18630308124919 9.94235368169873 9.752565441975266
Ga 10.565493900040838 10.76533553828305 7.408187272782629
Ga 10.443530882877331 12.306499966098832 9.53879169729547
