13
Energy = -31.28734759 eV
Ga 9.984387150525292 9.927235720321784 9.19194206424053
Ga 9.608368624110977 8.445762625857867 6.922246488380787
Ga 10.873456583687574 12.480026770872923 9.388930715531112
Ga 12.100711927130586 8.91071480307778 7.904616330344516
Ga 12.583855144346417 10.525383687145943 10.043077867044197
Ga 7.508307871402921 9.804266145391113 8.475409366228607
Ga 10.793836136069242 7.418498689311771 9.993366122735669
Ga 8.206792935620587 12.159732069570353 9.453369133680056
Ga 8.44579069837975 7.140235448309961 8.864485852378005
Ga 9.621396155479431 11.093356337918147 11.625946387188812
Ga 6.86567458998284 10.75787733907161 11.354471785419985
Ga 11.329370261479061 9.089140266393375 11.917820156410409
Ga 8.425177167396805 8.638495155402254 11.119494167962818
