14
Energy = -33.53991577 eV
Ga 8.422377442635971 9.573734033480987 11.48611991091311
Ga 10.445483196741494 11.337102943182474 8.592320221736179
Ga 10.922372982233952 9.392235045951171 12.796461520073512
Ga 12.81179036482468 12.545680084246937 9.014617107039916
Ga 12.626290417076776 9.624560083440603 9.111805867313409
Ga 10.272810251311444 8.836636124423896 7.601159113131874
Ga 12.947637514126521 8.525514644915997 11.483186073193325
Ga 10.161529159774215 12.086648236948953 12.455556029922773
Ga 12.267268382262447 11.267009731606615 11.29201997444868
Ga 10.385640503446771 8.526139095629778 10.252984790072038
Ga 10.835366374514232 13.623038715161131 10.315007171205648
Ga 8.116977407783152 9.655463687633288 8.79367463252384
Ga 8.607303059617944 11.985365379393407 10.222828037620017
Ga 8.636129513567255 10.479847624068057 14.041235550805514
