18
Energy = -37.72937832 eV
Ga 9.172705761360392 12.809892643557086 15.020437720218975
Ga 8.219436451495813 10.899848557091998 17.17774919614666
Ga 7.89372695505834 10.394584435838913 14.562711323057668
Ga 10.19945665102821 12.131725712580584 7.906508798935881
Ga 8.787343143825058 12.01291756036383 10.20937941981719
Ga 10.793984255281918 14.840777166450438 8.27040195115799
Ga 9.950307085288275 12.909347677919685 12.588148305974546
Ga 10.526649682827243 10.231547478790661 15.363214837937589
Ga 11.223908273542703 15.001767475121502 10.972828961225144
Ga 12.22273925389906 11.45389190396385 12.555976928508986
Ga 10.04582350195851 10.044966140477474 11.693208411691911
Ga 13.444454227225457 12.267588484926982 10.257387760458501
Ga 12.673592263422544 12.181411579021304 7.711702979879482
Ga 12.128679430670067 9.457437156827474 7.598439094628559
Ga 11.207314604032142 8.257705249492767 9.755138090389412
Ga 14.832604965474689 10.060962048382049 10.642854148686496
Ga 13.467149214015182 7.7903096843674255 10.765734287325445
Ga 14.532254034145984 8.575913001464114 8.269980315091889
