17
Energy = -41.12833578 eV
Ga 13.28363426578227 12.532131446476042 8.72045297139989
Ga 14.66706795411406 14.669352735974872 9.98681441627806
Ga 13.713066462632403 9.803440294729027 12.401196932949997
Ga 12.02920153398703 14.883072553736843 9.163510871159732
Ga 12.44942811167963 10.50819723039182 9.955776131538878
Ga 13.862014165195921 12.492291305106829 11.512173133167343
Ga 11.59518284007534 8.43580183250226 11.407614156108258
Ga 10.808233993876147 12.866287880077476 10.31712693943147
Ga 9.867490606587712 10.263696881343419 10.334518707711224
Ga 11.547085907885831 11.494776168429068 12.66112517092569
Ga 12.291652601680415 14.53854342097347 11.89416807875376
Ga 10.183754883956528 13.882231905590867 13.215427834537575
Ga 9.051261241368294 7.7294277515521035 10.284485119885451
Ga 7.831489305392566 9.522041650947559 11.919084616517429
Ga 9.710945004374487 6.917739056857659 12.802143432850453
Ga 10.058391251018474 9.532175299119539 13.486082408904206
Ga 8.711637726259609 12.070201234346936 12.112265209655977
