17
Energy = -40.73397163 eV
Ga 15.04086688211778 11.145394407328462 7.651719926905503
Ga 12.243971879064048 10.918959354110585 8.303342232774877
Ga 13.854931774141404 13.105687591425953 9.075610702823333
Ga 14.198623389891539 10.519870040029229 10.258643546598211
Ga 11.274658037900672 11.890750428476153 14.382603649395067
Ga 12.551697487803475 11.570922653639913 11.913892980282222
Ga 9.927540854632454 10.738677073324403 9.343407163126727
Ga 9.990543563689965 8.243172091033193 11.854333515796428
Ga 8.669068208117164 12.948291028660202 10.930492176815966
Ga 11.41509853226563 12.959716387922265 9.917054495386285
Ga 11.921795990241364 9.25395227563008 10.422644592456708
Ga 9.73453083932781 10.817609791595848 12.409126115399527
Ga 7.668218769213792 10.359008840497294 10.561767523621572
Ga 10.639882556508098 13.58210950293538 12.558254820722679
Ga 6.896051616572308 7.42482442624498 10.84205690377108
Ga 7.6812258378250355 8.976384189021903 12.864396893515124
Ga 8.962887232097005 8.221372642573902 9.386968860518214
