13
Energy = -30.73500869 eV
Ga 11.840967675122565 13.332519344316983 12.696795212113125
Ga 9.976355693058993 9.247743969374465 13.162603377500934
Ga 9.610097299108013 11.886831580140742 12.932355264072172
Ga 12.031510735902835 10.423388893308555 11.936177056651424
Ga 12.638703815663384 12.41901047453291 10.18596595062569
Ga 9.64292884855636 7.6410599844798766 11.111517401966342
Ga 10.035230486311024 12.356739990421396 10.355163437882194
Ga 8.74861075070112 10.216909740126859 10.857003092434688
Ga 11.425550225676128 9.320884671343618 9.756456210854854
Ga 10.577679849617443 7.920655711951162 7.612360095108902
Ga 11.78460641175685 11.309782612684957 8.003714365127252
Ga 8.29495221407543 8.490944060892229 8.892255339266383
Ga 9.200809460952916 10.914022786195611 8.224775576674553
