13
Energy = -30.66561869 eV
Ga 9.88291101751878 14.293966242256685 10.958301727911287
Ga 8.267933415180531 11.279441383594747 12.962428348772223
Ga 7.713158679352564 12.80301562953281 10.801305560051892
Ga 10.608837042029696 12.180095932960972 12.510263702210104
Ga 10.201683543571804 11.93851448869066 9.721236790032693
Ga 10.593667769944831 9.770377218136233 11.595645636123718
Ga 11.75033748801076 7.612883362114933 10.640741220610936
Ga 13.212341156872982 7.7261286701349405 8.441484181018167
Ga 12.234281844919407 10.090760512471315 9.318489714185024
Ga 8.116591325067503 10.318172816639416 10.299620477951041
Ga 9.314321693777162 8.012656723793109 9.838916430141461
Ga 10.138502252691605 9.684124332513203 7.897934684986735
Ga 10.699677934161652 7.036101511877924 7.7352423609827285
