16
Energy = -38.83439605 eV
Ga 10.607447839254046 8.721284454149258 12.961828297964622
Ga 13.194525110024163 8.31855320626669 13.52385675232137
Ga 12.539083976263612 10.97077849898561 13.458502789810314
Ga 9.857992751926568 11.104210701845066 14.233561295900722
Ga 12.683033463770647 9.478893473941792 10.996152136138093
Ga 15.179843159545685 10.053923792249151 13.512094216164332
Ga 14.452834106928645 12.80951539587089 13.14647328600471
Ga 10.26235770320334 10.707974503269657 11.261261100388655
Ga 14.85771726620671 10.773119512402113 10.965432695296451
Ga 12.567167981472076 12.19133818295478 10.821089903557331
Ga 9.721093057328854 16.03072195349127 9.861279432631324
Ga 9.743503340655424 13.26299020629394 10.87126127087704
Ga 11.179572653670323 13.178931006735331 13.123200041802798
Ga 13.048249738652437 14.774610788142589 11.722985866099455
Ga 11.750546991062919 14.286315306186076 9.480742337578091
Ga 10.574340544215625 15.60914417694417 12.415685281946459
