13
Energy = -30.71509271 eV
Ga 12.382872813544653 8.525486291509273 8.717312056832647
Ga 10.173192211786375 12.469470060501953 11.691705146812176
Ga 11.337738693861827 10.65899533175106 7.63120185664042
Ga 10.426832614203406 6.933720334376714 9.418814073325189
Ga 11.211361552793166 10.069211547969433 10.606618758227194
Ga 11.422868694759046 12.824756989381699 9.283047830848178
Ga 9.303443545863173 8.582737989555236 11.202537412639998
Ga 9.301854155056514 9.012712172426637 8.066360244560608
Ga 9.149622883687957 11.345158710088691 9.204330111223996
Ga 8.011286245765541 10.99221825405236 11.625184787903889
Ga 7.757972081940204 6.61476210381857 10.064891217282545
Ga 7.138331413525661 7.362783601017848 7.605108736620598
Ga 7.18320487284454 9.407268015088928 9.682510985213451
