17
Energy = -41.22405623 eV
Ga 15.00800384939361 12.064438329352052 14.50272622730659
Ga 14.253207169449565 10.183476570977486 12.671927156052657
Ga 13.439151517878836 10.817494775383999 10.311722508380878
Ga 15.097343598642253 9.268846671635822 15.130606517697013
Ga 12.40043997182927 12.840718708643895 14.890590135404887
Ga 13.789968472784906 12.953871181005871 12.455228975800537
Ga 12.288807282117803 13.464669052036038 10.498465365243186
Ga 13.58748088021932 11.172841442040543 16.733840023124262
Ga 9.125672787565701 11.442217362652666 7.619219812294121
Ga 12.316552089931546 10.160224900156443 14.512457070999183
Ga 11.125734403627835 14.156622097565625 13.146675222424614
Ga 10.563823707193238 13.90271147548338 8.577287373997088
Ga 9.712262777068789 14.21414307031286 11.09756204737731
Ga 11.406432568933838 11.311068852757007 12.422137284260339
Ga 11.593151903845223 11.443352352982574 8.694110421795495
Ga 7.920686315436651 13.212047463915276 9.382331799162062
Ga 9.669061770920834 11.465506503129811 10.613147262360046
