10
Energy = -23.12993261 eV
Ga 8.964171538629897 10.621578340381774 6.992009337959882
Ga 7.60115861323006 7.707918647705978 7.190379317931862
Ga 6.62716706569008 10.006660460013938 8.073684160036487
Ga 9.805275124831082 8.225458703070005 8.424495076247394
Ga 10.957911130044208 10.97695996300407 8.543830029439015
Ga 7.312183957023762 7.418270186504323 9.806574832302301
Ga 11.923820332396238 8.819259155988734 9.756219953037771
Ga 8.493639168486759 10.06750694022924 9.857937592236098
Ga 9.378305763849374 7.6079579446982555 11.274590141160173
Ga 10.419633639349072 10.031695991934084 11.563545893178897
