17
Energy = -42.04806626 eV
Ga 12.182079366126132 13.584083587729825 15.732151544743507
Ga 13.981812827635673 12.0104251249077 14.525771051337989
Ga 11.107675318720155 11.233507760661688 14.489716938406698
Ga 10.295162008498853 14.549867356710832 14.150567931269478
Ga 12.577183233870613 10.56998634028629 12.330121385898067
Ga 14.995500999913059 9.813795146519203 13.585350329342205
Ga 14.980453874650388 9.787198013650372 10.970446902371801
Ga 9.878477126759748 9.654253185475358 12.697513687685836
Ga 12.47539154792275 13.435823866810907 12.936657528862995
Ga 9.897975017994199 12.489333787947643 12.444237496510395
Ga 14.685795716810665 12.396985362393735 11.80267890203167
Ga 10.60798063928629 10.77652795199272 10.451549316471752
Ga 13.175588852602154 10.993527631631943 9.586986762624505
Ga 10.886331605674048 15.314027778050125 11.655780881809736
Ga 9.99364699501425 13.465270819419098 9.933448793533797
Ga 12.725789415672496 13.479181704971989 10.397419477911845
Ga 11.34946794710852 12.187769275224197 8.009618210831126
