13
Energy = -30.62280015 eV
Ga 13.535010936350723 11.73232732511101 12.922394249366016
Ga 15.27278053501781 10.414100609221187 11.426984527255504
Ga 13.079378781282571 13.39384147894337 11.051484086791055
Ga 12.73367734419893 9.725443257936584 11.16423101918314
Ga 10.962448591057527 12.040292342168668 12.076268839737422
Ga 14.403535753837236 11.822756037581511 9.323070029292005
Ga 11.821145694565754 11.424802013578404 9.431702335024127
Ga 10.171681619126819 9.463981219603916 12.152815168142073
Ga 9.671659803626364 9.656073753900692 9.542569899929275
Ga 7.6727753623903086 8.885920569985911 11.11193677050454
Ga 9.088046079814065 12.126334158004898 10.004095768892032
Ga 8.505397117713823 11.398678664470383 12.712263365671651
Ga 6.640425352844613 11.377256301221161 10.887007774061177
