11
Energy = -25.64513934 eV
Ga 11.661417763802083 11.787847365666122 11.767159335846303
Ga 7.665697881790967 10.229820084470937 8.593221957785925
Ga 9.327427539363773 11.246007839613023 12.828565959632517
Ga 8.486058137980924 7.742339648175502 9.323191762168
Ga 10.309921744226529 9.594665143069038 8.243210283991552
Ga 12.920245814590144 9.579255686112385 8.69405339495225
Ga 10.373985576789792 9.15346125427451 10.859812131994298
Ga 11.694943563093878 11.881618413169106 9.208144868434735
Ga 9.206833131177103 11.683952037622538 10.031094045100746
Ga 7.76653748584565 9.630689917772973 11.298835151815796
Ga 12.901391733828937 9.469723313078447 11.275625587152595
