14
Energy = -33.42641281 eV
Ga 11.033964379306374 9.63475087669956 13.892251413999137
Ga 11.299564120309089 9.148708056425052 11.193914649272664
Ga 7.702588637648631 10.348669693198968 12.387716471010899
Ga 9.206324934153434 8.210815310961294 12.663283935350593
Ga 12.53082307260344 11.38871219885944 12.458674274373632
Ga 9.827911072908297 11.83909778070276 13.21786336391351
Ga 11.439109726804515 13.893694507568735 13.761900032352436
Ga 14.71976905413278 11.760562655337512 11.068489404141278
Ga 9.608526661463037 10.990431541924401 10.641530627981107
Ga 13.432182104559045 13.964980902190772 12.027637919810115
Ga 12.58616431540458 10.934493348077647 9.700445862668252
Ga 11.299905292009436 13.176416506286971 10.661239275230427
Ga 15.411242363351802 14.625187103319679 10.269306635498884
Ga 13.338143676530429 13.424520947005185 9.027018507957996
