16
Energy = -38.86951279 eV
Ga 10.921029067993965 11.004696042691991 9.808700138698208
Ga 8.592149477586993 12.45707835034747 10.958635741056822
Ga 9.016737344982788 11.88306258859428 8.366965163611539
Ga 10.747853426533226 12.312975816266414 12.351777706690374
Ga 6.402490024979927 12.854260889980113 9.27931675841998
Ga 13.11863528570014 11.53113875000559 12.846900619344478
Ga 15.650854076095973 10.405541717261901 11.467798635371077
Ga 13.404703076545626 11.24334912169445 10.210963984662238
Ga 11.405678665357717 9.42645986921037 12.258243216977135
Ga 11.009703505773155 8.199759794960606 9.574538229432346
Ga 6.646643204968731 10.543124282038091 7.553879545105816
Ga 13.374474324499879 8.580991040079391 10.43816761617125
Ga 6.87684996577681 10.396370403216217 10.40697731545259
Ga 8.751804341509821 9.23966095449858 8.781065703417381
Ga 13.838608468270259 8.998972332115153 13.014584128012359
Ga 9.046902930257193 9.732924634656255 11.5086051930803
