12
Energy = -28.13432051 eV
Ga 11.95312356158377 8.804783851905638 10.147900235251878
Ga 10.041518709075987 9.791669971997448 11.457970759673065
Ga 11.634853794106512 11.924485928662378 10.040761590878612
Ga 10.422841147949372 10.082953190443646 8.337766901020025
Ga 7.380476592171336 11.765683475856052 12.132646241810185
Ga 12.85911923003945 11.330455087563301 7.80162418049018
Ga 13.103452145946676 10.620419053751256 11.85488546585902
Ga 8.440077950877654 11.004642565182607 9.6647498221275
Ga 9.670405623453973 12.737831843945555 11.380143269344108
Ga 14.27815572871507 9.816087538064457 9.513986047916715
Ga 11.172758709682434 11.459739663028168 13.319880224090857
Ga 8.80661995840271 10.185389703044974 13.769947433649282
