10
Energy = -22.68003024 eV
Ga 8.329215834276708 11.117241117243926 10.185491664536164
Ga 11.016422255479554 9.382021036544836 9.04721807374493
Ga 11.140589542115782 6.7332505623601975 8.537306906539667
Ga 7.227054622300942 9.734764284579574 6.590322988529365
Ga 6.1918624054578535 9.919713379832379 8.977313790754891
Ga 9.287897400864548 10.857347018682441 7.814182006897347
Ga 10.433571455189272 7.143943126364605 11.03259237006468
Ga 10.08741306998709 9.72789591548047 11.487852171088988
Ga 8.107314453485296 8.233869325114043 9.826495559978145
Ga 9.099464300963103 8.082632275003204 7.42601102840148
