11
Energy = -25.56086871 eV
Ga 11.498997830397421 8.717919227704662 10.296603161090038
Ga 10.478299801787754 11.021773644640342 11.038446878372909
Ga 9.05975563851278 8.886449422466793 6.528998601517063
Ga 11.359912176436767 8.354366000344097 7.633925071976098
Ga 9.952032963503287 10.654827274893854 8.455386694092946
Ga 8.63560059565796 9.861100165771129 12.370672994643137
Ga 9.470144738973314 7.601692662141308 11.529405088490853
Ga 7.501356936408891 10.975133397981967 7.2674906454429
Ga 7.876401964514479 9.725681490014797 9.836285559790193
Ga 8.997674277208757 7.494645254508405 8.914466188283829
Ga 6.677571830495532 8.253392463931913 7.66574865077776
