16
Energy = -39.5946289 eV
Ga 9.519661777769231 5.8005097413593365 10.923585648285764
Ga 10.514230086361419 6.940167434654125 8.653760585290541
Ga 11.305569208156278 9.029105532553068 7.1550066034679505
Ga 8.151808353863572 8.455304244862235 10.536593614648888
Ga 6.860522056971865 6.2073481687452 11.068465116727086
Ga 7.939092021674331 6.3345268740273815 8.568807726011984
Ga 9.94783983787262 10.006183468976804 9.304206102994986
Ga 8.437359308609668 8.951653713208803 7.442680809405552
Ga 9.260320012655338 6.704239212004165 6.232037352723837
Ga 9.820094290021954 9.121823012266383 5.040493701435872
Ga 5.164240004823266 6.308112606506686 9.081563685401614
Ga 7.620696070099944 11.154561176331836 9.136165827804772
Ga 6.144871242629515 8.832313655743972 8.914134366258441
Ga 6.362705069985278 7.0476737275547094 6.588662683956988
Ga 7.248344806591673 8.940633452925455 4.935951082992333
Ga 6.266408363903838 10.598437429084683 6.8127060477964845
