13
Energy = -30.65911243 eV
Ga 12.0222365007069 7.718202770978241 11.45710787514442
Ga 10.523740278175879 8.928232128175292 9.60816259321137
Ga 14.011866869233524 9.049655494266421 12.833783455222045
Ga 12.384679827890785 10.464879834605721 11.023499672374657
Ga 8.970437401352642 10.416317620857841 8.052422142533635
Ga 11.171249526647753 9.316021574051613 13.452226642436319
Ga 11.08853169134154 11.695178591688926 9.414642309720747
Ga 12.848681147745994 11.42277069041455 13.605514919614624
Ga 9.586965082772668 10.556005769082603 11.989307356648773
Ga 11.45938539278791 12.951613045954593 11.918518002563577
Ga 9.287577149240676 13.063888619499318 7.745045094290065
Ga 8.357320310790582 11.850354789223568 10.297401076070608
Ga 9.8541458964884 14.128554540495697 10.148074061120182
