10
Energy = -22.60985366 eV
Ga 9.189494499973488 8.906430139360204 8.678637617792244
Ga 6.430739939915372 8.299454380528449 9.58881436921398
Ga 9.954082535543904 8.843903940718302 11.327471053177918
Ga 7.630770097499392 10.261441299938804 10.662921847723693
Ga 8.376798432162666 6.79397452034847 10.230262975504658
Ga 8.662265737048562 11.497345607771873 8.711097938722034
Ga 9.596195906529044 6.228811186772957 8.089078638209049
Ga 10.544666851028328 10.698666965409318 7.14523377337948
Ga 10.884189534925095 8.126201272383408 6.871579140986736
Ga 7.054457392301903 8.685863234600602 7.026626658810448
