15
Energy = -36.0226588 eV
Ga 10.455356108015721 7.143448518887493 13.007455596748914
Ga 13.054359980880188 8.126086836476192 13.092673951715122
Ga 12.429104264098001 9.614112461344908 11.024334402959836
Ga 10.922941333890963 9.924385471200788 13.287898793788719
Ga 11.587634522908331 7.081937985096182 10.634926043786301
Ga 9.412689232037005 8.73931041035181 11.27967156406191
Ga 10.772402117240897 10.744422728610552 9.502066082588874
Ga 10.497123215025812 8.113193278626937 8.53641100314764
Ga 10.181675609097436 12.468582457019712 7.7103812116399535
Ga 9.516180862718047 11.61680887444509 11.880639443303934
Ga 8.036510229337047 10.006424285243003 9.565514619992063
Ga 8.310240379909036 11.994463242119126 5.664782053284539
Ga 9.313206579658269 9.938646093239349 7.13252681986767
Ga 8.610428038812884 12.913080870440611 9.789313832469048
Ga 7.01696268874968 11.701630753780826 8.014093951683003
