18
Energy = -43.52916199 eV
Ga 11.863450850178443 15.414880069569875 9.615508711833167
Ga 9.901147690802706 15.850961333672512 12.416239481072687
Ga 11.885074466886818 17.248841189594142 11.464821054024533
Ga 13.313816899937628 13.556647739283228 10.784439889463497
Ga 10.40482518420252 13.650721073003428 10.88350522763069
Ga 11.897309813301035 14.369521763389804 13.190800575818493
Ga 13.86200835466715 15.784450373035511 12.276018557911733
Ga 11.781484894495142 12.243206341389962 8.582090098436678
Ga 13.48339251025889 11.02762603211857 10.626555156477128
Ga 13.724202082970347 9.566414113677759 12.715981652665091
Ga 11.957457364552031 8.946400750685031 10.107363106916189
Ga 12.210527115585702 7.3122065999390635 12.068425769114764
Ga 12.159459474955382 11.79419374745883 13.098849475313754
Ga 12.265292020521995 7.977714008893658 14.576515651818761
Ga 10.652732181310414 9.490043491730763 12.880213933749149
Ga 10.550341003139678 11.085793372982145 10.865152406708571
Ga 13.58969832085545 10.438769864499681 15.177106462254264
Ga 10.911164103924092 10.444814814003141 15.334475654753994
