10
Energy = -23.08008737 eV
Ga 13.007213073051357 10.216976887185284 9.680690824820976
Ga 11.662135794578859 9.837505113104555 7.436346673313415
Ga 10.796380202309203 11.453646724168541 10.352105505895995
Ga 10.634670859793113 8.720267156232469 10.291874912122461
Ga 9.728534079208616 11.571976737548319 8.007885593172912
Ga 8.770728426613847 7.8921029600438715 12.157735281975311
Ga 9.16515988414895 8.97893579713696 8.216178602705478
Ga 9.133991366350678 10.41203396135095 12.185719243025227
Ga 7.796589467399029 10.745197849091733 9.948371865407289
Ga 7.3258286155903285 8.140510730190016 9.991387939194322
