12
Energy = -27.93545488 eV
Ga 10.843082972644849 9.952511474289482 9.393154446116897
Ga 13.033059521387752 13.996188357889746 11.036712577512095
Ga 9.633076530931676 7.551874265178396 10.895923597634551
Ga 11.891672984184998 11.919424797119355 12.444426628038075
Ga 12.123499761469047 8.115738727509738 10.991127120883156
Ga 12.257330697870081 14.595496141637572 13.514506950052787
Ga 10.315665852364948 14.257599177538498 11.59326758642562
Ga 10.516180028546755 9.921755433629226 12.25298168490472
Ga 12.199010538036529 12.029100500686576 9.593457626861445
Ga 8.242461739729274 9.718943076391424 10.48418855239307
Ga 13.591265136405257 10.21684090645775 11.119529757379116
Ga 9.553124740087561 12.037679126407324 10.691710682315918
