16
Energy = -39.20167479 eV
Ga 9.037530814643215 8.61079539395371 4.554595695938311
Ga 10.33495135844423 7.464967597412557 6.666885307483653
Ga 7.390969934865823 9.666469131274768 6.45483142589197
Ga 9.951550528701734 10.074692998463842 7.485091364093209
Ga 7.89042035841398 6.498263441549502 6.413336788351759
Ga 10.9580145962588 7.467951976038112 9.291946530264996
Ga 4.663609462245585 10.234568782545283 6.3536701334658385
Ga 8.909780274070984 5.637454669263079 8.95390916402841
Ga 5.3545622716748005 7.680813268065308 6.542364941253971
Ga 9.35200471888704 9.301906165053127 10.494937539551433
Ga 7.868056304121476 11.026205201472756 9.046692545014524
Ga 5.968968514041492 9.163106315565468 9.109412500912853
Ga 6.246194096431759 6.3762658112151875 8.64450937630672
Ga 8.30427271887841 8.182878786540089 8.393658079721327
Ga 10.0324831874553 6.3862680159113125 11.618714028116376
Ga 7.500652243165592 7.20469882538279 10.949024288573604
