13
Energy = -30.56943158 eV
Ga 13.600465841633111 8.604871626479545 11.204830196530615
Ga 13.267071739820315 11.442915373505564 13.189889996833452
Ga 13.235664664945562 11.1541209133888 10.489577572355854
Ga 11.131836083556358 9.550900297068823 12.205523719603079
Ga 10.845139786512867 11.61253120032684 14.120941090163702
Ga 11.60351323467768 8.082988488686592 9.674665800248441
Ga 10.479552294397175 14.045069954478492 12.96150035474285
Ga 10.70504406952214 11.95756096854453 11.25352155561216
Ga 11.488405899256739 10.676279440070768 8.691803731847488
Ga 12.82839642381079 13.648499421294728 11.755806557821636
Ga 8.875647112812036 11.853990002450649 9.445425921858199
Ga 9.324878256693703 9.435668759792078 10.258827797191858
Ga 8.792011005377434 14.129636034496315 10.949695970338523
