23
Energy = -56.66310498 eV
Ga 11.524204427426124 14.346965586131477 9.23008993055861
Ga 11.783789526466434 16.17366998875071 11.091785793433724
Ga 13.475124348882629 16.016530861140453 8.392086468890128
Ga 12.04525398394453 13.47066865668876 11.691868664937866
Ga 12.19455882884559 15.609005357484568 13.837505671166783
Ga 11.695372194618221 11.24625343527177 12.81519701265121
Ga 14.453587935570962 11.786958750221734 11.683366228603271
Ga 11.967599919004481 13.234647947557287 14.71346607914713
Ga 14.035840652040964 13.444821105697622 9.761203243978537
Ga 14.54002007827917 15.783815331718124 10.85491946808342
Ga 11.126611817377038 10.762011286090663 15.600001936741084
Ga 9.80939808748073 9.49087230163668 13.631879260803297
Ga 12.536596218665133 18.01043136159769 12.760577893757494
Ga 14.490559828309731 14.204672281739809 13.10094415003525
Ga 14.636037135501503 18.51495575610064 11.0551032524817
Ga 14.799719932476313 16.71447116795753 13.328930184401818
Ga 14.518794143716596 12.08766825450315 14.501753064400802
Ga 11.92543608525486 8.484253005074391 12.494978713138355
Ga 12.4310204132862 8.469404037054145 15.147934101896162
Ga 14.06633674689615 9.731865358776833 13.15534475754646
Ga 12.660046933269221 9.447480299491097 17.76175714941919
Ga 14.715620447226838 9.837048167029147 15.92503938416759
Ga 13.179818410968027 11.942363281162988 16.845420071129297
