22
Energy = -54.53559543 eV
Ga 15.74436411989853 11.76598725730951 11.584622080610425
Ga 13.884575864511563 9.77715112214539 8.441944860867748
Ga 15.640933986076249 12.156881515579098 8.597111739715082
Ga 14.829088483534946 9.495241452531195 10.844196478179061
Ga 15.097697193946551 14.223076113875699 10.60682709878933
Ga 13.3370702729697 11.997063509931635 9.928037964461442
Ga 14.297852554587598 15.81727417925705 12.642975995039283
Ga 13.516332070207442 13.001440443831097 12.50804694520886
Ga 12.754713103127296 10.33449427282828 12.225342185307962
Ga 12.546891439843906 14.603327395979333 9.762889364945762
Ga 11.165344589831422 9.22516388153328 14.143193344715423
Ga 11.282715873101536 12.385906731661892 13.636346951715044
Ga 9.894209607426944 10.156881983847287 11.884728741142203
Ga 10.923107342541991 12.513673423554046 10.64038143057353
Ga 10.431425562303325 11.134452094570475 15.761706768861254
Ga 11.51675336035578 9.883704301270292 9.70652020939746
Ga 8.510816101063064 9.131390023850715 13.878754746095993
Ga 11.742554922059044 15.047881439735212 12.479024439710788
Ga 8.686140768012132 11.908811046707573 13.737368923873445
Ga 9.378580490277796 14.023399194733694 12.120556510652241
Ga 8.168669478830878 12.004746570419432 10.667581243070632
Ga 7.691991523728566 10.598601085679977 16.02710295046363
