21
Energy = -52.63524374 eV
Ga 15.026701818225892 13.976179914179543 11.484317424985992
Ga 16.230586224813 11.69045049720545 11.86028663860732
Ga 14.552609006909691 11.342250564370296 13.822059723597597
Ga 12.241633693243791 12.161873687079483 14.88177493139764
Ga 12.045968792098293 14.229254541990011 13.413735729186234
Ga 14.454319266331618 11.42254505261616 9.684394296168493
Ga 13.055283652407272 13.453231317199307 9.067742879247962
Ga 14.375149162454782 8.282540961251398 13.720292590056134
Ga 12.662329095751563 9.58977748782084 15.282634785941706
Ga 14.124902864771657 9.482685131900105 11.326736156586648
Ga 10.839190100459088 13.124124819991941 10.468467068326774
Ga 9.62248686808414 13.039557894522169 14.891054603925241
Ga 12.834038467151094 15.333048622464865 11.1687728840991
Ga 11.436852760519857 10.45591948539876 9.980704703694636
Ga 12.986953161720493 12.199289351832173 11.823777237973353
Ga 10.925012340489657 16.713974554403553 12.80833123902637
Ga 11.920366553808615 9.787883968149545 12.723048143280286
Ga 10.159763053252659 11.607629296457796 12.555078474774472
Ga 9.347605410898273 14.251816735845228 12.543564358650723
Ga 9.937037401044455 10.22231714796076 14.984814964830505
Ga 10.175657310003423 15.785374331293957 10.326013843973746
