21
Energy = -51.43377476 eV
Ga 12.971335920201408 12.369675807504015 7.138082262293025
Ga 14.238976274439754 11.118799165452783 9.103953240429805
Ga 15.97975639487081 12.974508791990054 8.104238758648895
Ga 13.795857131211536 14.665727592860257 8.022471568451992
Ga 12.470363258762733 8.9919633929839 9.392027700463677
Ga 14.545145987056527 13.425356453945348 10.4086416440528
Ga 10.947863172734161 11.485603450109851 8.559907770696558
Ga 12.739804984041598 11.537805226458318 11.28502830794935
Ga 11.967887342039432 13.866109608177132 9.709697421854456
Ga 10.22050018754758 10.123008035371091 10.683580030077879
Ga 8.441217168451692 11.8037556363091 9.055413279771882
Ga 12.38809282386184 8.890901919346655 12.160123392517509
Ga 10.099665705001275 12.942670624086398 11.221919091576565
Ga 11.368694616262484 8.824221969627349 14.757719190892969
Ga 11.184196155079103 11.17918773243498 13.230528073672899
Ga 9.486369932208243 8.745020462187979 12.669727855304656
Ga 8.6763743364326 7.997489309645282 15.315074517227677
Ga 7.560193275357081 10.75528001664097 11.302466184686557
Ga 8.721341039455726 12.227802096626815 13.241994077567597
Ga 9.304147520441001 10.702557114322753 15.19568644743622
Ga 7.138957914216013 9.603151141134237 13.674781292838643
