20
Energy = -49.49271492 eV
Ga 9.819106778053161 13.25723108455695 7.488877104754468
Ga 11.336417661640596 10.771396692437294 6.709819630778917
Ga 8.599613880715655 10.653094219982302 6.989795980962474
Ga 12.969208525186684 10.23520086823515 8.739917956289299
Ga 11.998896266536265 12.947066840539867 8.722315649679366
Ga 10.661004349194359 8.087920393319946 10.500714616388866
Ga 10.211089001006677 10.401890952044141 9.161237891380852
Ga 13.197957524250603 9.158751349637674 11.089483693355218
Ga 8.070641230380101 12.220677332712967 9.290024152652773
Ga 13.228521527492427 12.31028851345475 10.873852293770598
Ga 10.149509931158113 13.230862777297844 10.663006571401954
Ga 9.628385234754296 8.654667150660014 13.041309472779256
Ga 12.259170979158307 8.812162484320202 13.451617912347496
Ga 11.045626010210402 10.80597952361687 11.602167277677498
Ga 8.335093068966366 10.66546295495218 11.570484477835791
Ga 11.174068538751206 13.385972660576092 12.92039383523746
Ga 13.35171631655732 11.435104379730822 13.234909303019796
Ga 10.482778282816207 11.043969435484946 14.189747471545786
Ga 12.588682094687156 10.250385467440685 15.724730658335966
Ga 12.269137599913215 13.048539720427938 15.412218851234966
