22
Energy = -55.05056459 eV
Ga 10.396764215286211 13.83159845907493 11.924092126600103
Ga 12.284804433378211 12.995791436885138 13.684709342684723
Ga 12.600072864329197 13.150888593432349 10.640992671254075
Ga 9.873335386021541 14.084172530924622 14.634722222702582
Ga 8.100449516118442 14.607381576272964 10.431174023281919
Ga 10.166738825948256 13.244511444802491 9.182132856394118
Ga 13.704253185696352 11.10463573911701 12.242097177145448
Ga 7.778894130983488 13.566584872659412 12.933761824290263
Ga 11.734483957168628 10.666953312385255 15.250012404237724
Ga 11.068537884590185 11.11702492891649 11.40953321650244
Ga 9.558142742210377 11.464240757413672 13.723441458116667
Ga 11.853877664959079 9.118133051586685 13.072637018456561
Ga 12.141093476957169 11.300461722527649 8.770197553017345
Ga 8.371097676002575 11.751712346377758 11.127170679386788
Ga 9.026826594159 9.301338505201526 12.27475202462081
Ga 13.680528750663777 9.545075112559724 7.558041181762079
Ga 9.387470031700879 10.401877239395205 9.203612393700254
Ga 10.913624765506206 8.99434430056983 7.781754401012311
Ga 12.82339078904716 7.185871433751564 6.4295477451881595
Ga 13.392880013100799 9.375670730182463 10.327272892561384
Ga 10.816853043376412 8.366819872193853 10.535614580212915
Ga 12.4910101276387 7.054743150620334 9.064548348889872
