22
Energy = -55.74137859 eV
Ga 10.600549511609858 13.526713537129185 8.133174610986698
Ga 9.403828851581938 12.593500424900503 10.611118713980199
Ga 11.839319955122173 10.74569876812063 9.189327534625939
Ga 10.676395613112597 15.139423515407314 10.273324781256198
Ga 9.261623923776366 11.18095547638432 8.350695581622894
Ga 10.693372203758349 13.554529955090988 12.706622463369058
Ga 9.20104309259407 11.321215708296457 12.968053975474213
Ga 12.511845167004891 13.057697894307388 10.308034757640169
Ga 10.131985662665013 8.619580817605756 8.351144279155513
Ga 9.40209156123104 9.747702107619698 10.906425810484155
Ga 13.87863502798625 12.461878840196691 12.55608764919543
Ga 11.703440064912694 10.92353712277525 12.016088831978886
Ga 12.722601863099149 15.333843284762857 11.942518586901748
Ga 14.081282181350453 10.718140911918868 10.585052130915653
Ga 14.879522494389967 14.825293407194764 13.573775219424288
Ga 10.40852852701899 8.86098744818668 13.661453417473178
Ga 12.378127538840099 13.994917464173113 14.524959121680359
Ga 11.220970514445929 11.582351940290609 14.733340073285568
Ga 11.723903961788274 8.297422874382779 10.560945167209216
Ga 14.648864749834175 12.662610531319002 15.30668039875261
Ga 13.327679795358263 8.67806055991294 12.514171613770872
Ga 13.502152349851414 10.316053751589996 14.455759953258827
