24
Energy = -59.54757589 eV
Ga 15.372314317953803 13.9556079153671 9.962330689113683
Ga 14.760879637914536 13.57143881359887 13.32747925571888
Ga 14.705204413520175 11.740833172787108 11.172274421492453
Ga 14.822386048367267 15.763221581604697 11.763815104808472
Ga 12.686378873787445 13.78060090758326 11.275023696615701
Ga 13.35453443212633 9.576977918590774 11.798640866556283
Ga 11.469846306800704 13.427028162738178 14.110857741079021
Ga 12.966971083482477 15.477645390214198 13.848975991151748
Ga 12.98642240702655 9.116973737003669 14.6163813725529
Ga 13.489745975553403 7.097303128987523 13.001848830333492
Ga 13.332848712978485 11.456409305702335 13.683200805782905
Ga 12.033254236584746 11.431147318772565 10.27435136331253
Ga 13.488441486231391 18.07952571871437 12.82308597235407
Ga 13.431040983724303 6.975342184359618 10.29769979555277
Ga 9.95407992245715 12.501056450527878 11.732141490760968
Ga 10.308905972317774 8.319816092353525 14.779834268121265
Ga 10.972988366757418 17.20178156737356 13.653853912017816
Ga 10.713379731454356 11.141583615236984 15.031229431399037
Ga 11.485352530629797 8.946962503305171 9.7906420166647
Ga 10.204694899960357 14.905899223515085 12.24836093209938
Ga 12.211523030309316 16.298837342846102 11.038573440640414
Ga 11.095373754880772 7.727492179644471 12.191792173728606
Ga 10.662180437864887 10.193514902236407 12.504576300644596
Ga 9.72958274893019 17.552326703321636 11.319257247677633
