25
Energy = -63.1538172 eV
Ga 9.913983588006369 7.698561253900337 6.3491126434426794
Ga 11.84332030319093 11.22605587711902 6.617311814816479
Ga 14.048337499569335 10.972745276048208 8.48660424632505
Ga 9.100120420206643 8.027510840589464 8.871688214214341
Ga 9.193060694147128 10.183884317796915 6.934656444509145
Ga 12.153231358463655 12.831987432940771 9.092468340997689
Ga 9.417130010535317 14.493002592749555 9.905363936078645
Ga 9.811845114479802 12.62215272957249 7.953621314433569
Ga 8.69995288420965 10.747330258164974 9.566676677306363
Ga 10.231978449556646 12.306818449317655 11.10032004927892
Ga 11.418024871253937 9.601882880023437 8.758666430923185
Ga 8.166482337067253 8.888461563235479 11.492207960920105
Ga 13.551724917637593 9.182397072738572 10.457430295289042
Ga 7.74593022815912 11.562277409370893 12.29722704222548
Ga 13.029814524664767 11.74580401532828 11.392901964764413
Ga 10.85824288106966 9.86753296678067 11.378623817151842
Ga 12.091721472380526 14.535293082307856 11.15537395382744
Ga 9.734503512873378 8.326281567390764 13.560801370061302
Ga 10.391216459328074 7.109640500333472 10.952138526315725
Ga 12.363268616988265 7.951475865127585 12.562443744332311
Ga 11.471060844206017 13.217624365171222 13.459971487055315
Ga 8.903023442642807 14.06637961377275 12.80420147981739
Ga 9.918542994236676 11.042442076381834 13.756956993822282
Ga 12.762084008050424 10.540174921153493 13.653184202569797
Ga 11.347363699997096 9.418248205605641 15.606012182442283
