20
Energy = -49.52616099 eV
Ga 9.125561105793608 12.295272211401644 7.5719046601727795
Ga 11.82438034141943 12.490552648203705 7.869062254970161
Ga 9.466090534957724 14.009240123399263 9.549213946168942
Ga 9.551074623328876 12.404676341082578 11.640298683889673
Ga 13.430302145977604 10.176989836512847 8.74450365506428
Ga 7.938122465443511 10.98035434075421 9.5520623622247
Ga 8.348693079042553 10.504170633166266 12.719393007730645
Ga 12.2144796222768 8.528411644147797 10.274419154136947
Ga 6.33570443137364 9.79341375186961 11.074685330752294
Ga 7.276428579704866 7.813811212566629 12.40797030292739
Ga 13.052266321974864 11.109867512990947 11.339700944154357
Ga 10.669087402378901 10.793236268323145 9.533560875472666
Ga 11.895235415580158 13.438518029586483 10.40365903856145
Ga 8.67582251574382 6.03866110723241 11.000934061624843
Ga 9.53799093173918 8.262613525364644 13.87005274647362
Ga 9.200204681124445 8.767151247339905 10.597621286473569
Ga 11.018562826986889 10.08839801574633 12.451451580743113
Ga 14.387498501857953 12.674454654953765 9.716417313424714
Ga 14.344874733656225 12.166143518396224 7.046003817466922
Ga 10.975071220058437 7.077657777061407 11.92109979993995
