25
Energy = -63.24443279 eV
Ga 13.029263110590044 9.924720185475309 7.943760601858283
Ga 11.309510734248718 12.138766574743597 8.478492404888684
Ga 10.81106163133175 9.267944665723828 9.29963731258723
Ga 8.777273612208786 11.465985171390669 8.631010053317581
Ga 15.548511205239942 10.860325442233838 9.444946316215788
Ga 9.744625242021907 13.702689529789737 10.210009628651761
Ga 13.891455930831704 12.856302544136458 8.548800945066816
Ga 10.445356622146228 13.371743654102671 12.970102998107297
Ga 10.550816666515827 11.218427025981358 11.25900298385756
Ga 13.032260187617563 10.8342671814258 10.558457729389177
Ga 7.408382158665467 12.410971091242235 11.049073104717703
Ga 12.342657225908747 8.30252168943539 11.224987439417104
Ga 14.885506313008687 8.582940658378346 10.593045861072161
Ga 6.275026101154123 10.57496003694849 9.274885360204474
Ga 10.058470232676342 8.860086458914928 12.686818582295565
Ga 8.120297212580763 14.515224087172102 12.498258622406947
Ga 8.495590090835432 9.362690785965144 10.582182908651623
Ga 12.469955376407508 13.531431093282155 10.964579881339079
Ga 8.610248381323007 11.236886845337205 13.175232606807647
Ga 12.560059142517726 8.973076759848409 14.085824623724598
Ga 6.318030423138419 10.096270190332776 12.060812024607406
Ga 14.659514000546235 10.222586266115496 12.77062028908352
Ga 12.680389923828203 11.966002826349795 13.229262223911089
Ga 15.026937251791178 12.662408865953308 11.496000705642622
Ga 10.755445467152526 10.867414614007824 14.770839036464725
