22
Energy = -53.44301542 eV
Ga 16.61263955036876 12.665320460107681 12.240775644928606
Ga 16.634928467493356 14.077751461470855 10.01169256226914
Ga 16.81367358020221 11.56166469109052 8.99959014021646
Ga 15.325885146308515 10.695540952574525 11.117882125790263
Ga 14.233106883863394 12.11028638830827 13.324469225318722
Ga 14.337617862025963 14.115818858079841 11.40481801138405
Ga 14.228595827085572 12.49348023036051 9.400202498787511
Ga 12.562067819722648 11.190720986341884 10.980550576911224
Ga 11.85226618744871 10.990891182063605 13.665739911632395
Ga 11.260499800531289 8.975166476720585 12.080725084719923
Ga 9.16194498349552 10.562222020130088 13.373552677218774
Ga 10.317211968241049 10.496868954273758 9.852776583467742
Ga 8.580751587595953 8.98646558991768 11.25547714225984
Ga 8.12352738322546 9.446284015412779 8.55405036466955
Ga 12.693058593934598 12.989103348989424 15.356933049301004
Ga 10.052027502955974 12.47418010293408 11.639031734766766
Ga 12.072708901674263 13.955062859605084 12.641235060035084
Ga 10.072714766736762 11.781431596409426 15.493563179240201
Ga 6.06193013782408 9.400550011299568 10.218027467643758
Ga 9.890015647324008 13.940885313952041 13.990176919656465
Ga 7.257128823545275 11.46073933093328 11.588781418767423
Ga 8.24633681337096 12.085609611428472 9.272062071700882
