20
Energy = -49.4560377 eV
Ga 11.857864265274872 8.036524424919154 6.5178690610553796
Ga 9.578491110044768 6.937889316599257 7.348089377456266
Ga 11.553915274952153 10.482427642322293 7.5094224536858185
Ga 8.870285465664995 9.065140416800327 8.703989448237868
Ga 11.446485482258737 13.150337629168417 7.16129643990409
Ga 11.64736992188355 13.399410205113563 9.820169928662594
Ga 9.465538517405415 11.731152760135972 8.839886147314994
Ga 7.5483029531046055 10.450495179583417 10.533900988622126
Ga 9.611262857229196 6.5782247030867165 10.015193580233797
Ga 11.595088698813361 8.35902303991306 9.178116063992988
Ga 9.687981591468358 11.960368962069367 11.353086758154705
Ga 9.3021635509551 13.094123538148718 14.015378208309478
Ga 12.085541207806628 10.77784173257156 10.210207081144745
Ga 9.681421242150446 9.08679147102088 11.470902102005429
Ga 10.907650026785216 14.200666224371696 12.267911559778321
Ga 12.2368792525595 11.919221336859092 12.662906505869044
Ga 11.691883312559149 7.072074613441518 11.504774174176653
Ga 7.276659363453081 12.01929053484277 12.635150981555128
Ga 12.152255322631 9.300491376320638 12.648223418321905
Ga 9.940777626438402 10.516321936150574 13.74134276495783
