22
Energy = -55.00573692 eV
Ga 7.437218430948103 9.086748028304507 10.450826017623879
Ga 9.928088684700613 8.472610811479871 9.540541363789943
Ga 9.583348350260898 9.248508719889388 12.234412729024921
Ga 9.449684269895496 11.007027199074088 8.982292028910614
Ga 8.241464654204716 11.505566858531358 11.430255015145228
Ga 6.592636593938899 14.21190403517281 11.094369359066821
Ga 11.975858119061515 9.7410116537944 13.144733130609248
Ga 8.19318396261939 13.349571357672648 9.161477469725925
Ga 11.761470651764002 10.561732791543953 10.112874979234261
Ga 12.995924671544424 12.292781405906965 13.503789625429516
Ga 12.075955302021075 8.02377094573352 11.089082214627187
Ga 10.908631084321124 13.239043285801309 9.638175958371296
Ga 9.276396734637872 14.123885298226714 11.75192125469342
Ga 14.096413606123201 10.632661294246008 11.021593669839143
Ga 10.616784718275117 11.954209177303646 12.443321616388983
Ga 11.904010428171976 15.527511389284566 10.505112796686364
Ga 14.44832530440595 8.200769377544459 12.148093495537497
Ga 14.422918567406978 10.185835052931822 14.05542169527143
Ga 16.673186226367413 9.702875499452164 12.312711363615088
Ga 15.625113760992933 12.334573034452859 12.519938344648873
Ga 11.553846731842532 14.46788304097907 13.044718244232557
Ga 13.32408475441904 13.22537744062884 10.903718629757957
