20
Energy = -50.30951793 eV
Ga 11.589363478599752 10.90166320437357 7.413259459274838
Ga 10.591002375885509 8.505547423561747 8.354435951751402
Ga 10.808772716075845 13.017121899226318 8.628436440837767
Ga 13.740228581233094 12.207353069918913 8.22186727259904
Ga 9.049295275728998 10.936292800218492 8.96086092497944
Ga 8.094364885999285 13.400887721340586 9.291074304632238
Ga 11.638859680760916 7.127683220662273 10.396109840543463
Ga 8.257683664574403 8.063110449957895 9.505856465192558
Ga 12.721034897579766 10.160435846829055 9.777163955796329
Ga 9.355818877561445 12.07280604858472 11.553710471466985
Ga 10.250543567790299 14.35316594027972 10.812048000354569
Ga 12.7398477509533 12.849790465540233 10.534688199242579
Ga 9.176519449577253 7.325933112630752 11.862182890565059
Ga 7.589141104003627 9.987074475345342 11.325167410968536
Ga 12.915565864647883 8.822371624176116 12.082780714902345
Ga 11.607799982077456 11.198445541014959 12.62720664473484
Ga 11.758698962012105 13.866926639317038 12.94097421212933
Ga 11.008308319847545 8.035373387590974 13.681718170473227
Ga 9.070151011339336 9.950096446763615 13.4473865896902
Ga 10.380376295973331 9.561297424888837 10.926448822086567
