21
Energy = -51.69228143 eV
Ga 10.184473422232747 14.380020781009197 14.687626275513152
Ga 8.383770937735882 14.385539691865281 12.152994916760852
Ga 10.957795008511036 13.800188644738167 12.120443995007397
Ga 7.983427312353746 12.71472204672634 14.21637507626823
Ga 10.442373029967687 12.279438649163083 9.97750784315145
Ga 10.414687131271423 11.643850171477222 13.778758182135519
Ga 8.300108210890457 13.98408428750253 9.528062069298947
Ga 12.53993828952489 11.518981119759513 12.05091101547093
Ga 8.353718591254836 11.71752779504766 11.75331007563063
Ga 10.33465776657469 9.825231283006351 11.860662023615353
Ga 7.911440469686875 9.225840640419566 10.703447650895516
Ga 9.826229067472438 7.425604210337548 10.15752730373122
Ga 12.778528555713157 11.316788203387665 9.392670169193632
Ga 14.508103188434372 9.709439599740811 11.88695350508615
Ga 14.605697548765942 9.71744207479725 8.553474044684805
Ga 8.048039639222697 11.2686671918225 8.966888311448882
Ga 10.24720225536169 9.838113646178115 8.687105157703474
Ga 12.261942506545477 8.836663109674172 10.47799437232817
Ga 14.3971294543573 7.4185521623098785 9.831670560105474
Ga 11.962705577498033 6.7668766651843795 8.651232361471173
Ga 12.315076885167695 9.0700298023916 7.352468385573621
