25
Energy = -63.77016574 eV
Ga 11.053872053855274 13.692742489627046 8.40336183915822
Ga 10.369705069215325 13.829720447212868 11.223243426392672
Ga 13.228316427964158 12.13475562099165 8.400222396916405
Ga 8.300519288991314 12.135679017175587 11.224365038284045
Ga 10.472924961494959 11.371082593187275 9.584511256141628
Ga 10.645510374457757 10.800821570268141 11.98212195162416
Ga 14.814389301753296 12.159298491065375 12.689427737916857
Ga 12.624255865579228 12.572324570143909 11.02988377959186
Ga 11.602778442174584 10.353974361012721 7.2389375177547395
Ga 8.242178472415713 13.429652774752878 8.833726015501732
Ga 9.053628281732287 11.085271991041378 7.414594363636071
Ga 15.09269227833616 11.204402534677111 10.178660819647204
Ga 9.541570236014422 6.520801112740011 10.262246076563109
Ga 10.819031934819597 9.42422680808867 14.231595855776805
Ga 11.323496425194493 8.109653833737614 11.734565372273265
Ga 7.566969611327007 9.962902331793394 9.332886536336403
Ga 8.70864502939801 8.751928224098844 11.537555656183025
Ga 8.185140059708578 10.46831146568781 13.458777552252478
Ga 13.263540409035231 9.896082836447233 12.240280564508534
Ga 12.3679662952551 12.010246610890208 13.874023132821037
Ga 12.114194944550775 6.968798444297825 9.294696847019214
Ga 6.137581969556656 10.369718729444521 11.5678129028385
Ga 10.018330298327733 8.771066179785636 8.835932669510035
Ga 12.78030321366186 9.551999782179493 9.59054356580173
Ga 9.772359037904952 12.52443746237829 13.935927408275873
