20
Energy = -49.87690948 eV
Ga 11.043593315736691 8.146615318629937 7.18084000545325
Ga 11.18282035775069 8.634839933437258 10.038374716902986
Ga 10.850728374242703 11.131808763024422 7.976440778296066
Ga 10.183565224873963 11.070569409110389 10.54026657748858
Ga 8.70614011188698 9.7259846333058 8.234358172049255
Ga 12.341737889578999 12.702128568332073 9.529430385915447
Ga 9.091241029980825 7.23716974923014 9.109346937261197
Ga 7.267840535750837 11.309667970773816 9.600546632673286
Ga 14.952281050424558 11.739752990311677 9.881508918793234
Ga 10.95004306999103 14.021307274937662 11.222921364808427
Ga 13.142642067643127 9.864566722876544 8.61374757441832
Ga 13.610085737469461 12.640594520824191 12.13366465518365
Ga 6.235588203450445 10.655521591957438 11.99328433009105
Ga 8.524938625969096 13.207814644705204 11.056998996168996
Ga 8.656684360927654 11.067969467163227 12.964202661376879
Ga 9.771546452661749 6.545948025960541 11.623291063217893
Ga 12.866479969669964 10.255155730139279 11.23617603559839
Ga 11.178187894150543 11.87313115844913 12.951663204076315
Ga 8.425020022241624 9.030192011312218 11.152236718084135
Ga 10.889733226332616 9.010159036251938 12.831597792876828
