25
Energy = -63.34787714 eV
Ga 10.448972187139574 12.409876029664968 9.047261555872373
Ga 8.36269007274766 10.878790677575147 8.579571893016329
Ga 15.133419083473076 9.899239376338713 9.059860166519778
Ga 12.764771084376447 14.099013176929148 9.966766838716518
Ga 7.02403676564638 9.913798552973793 10.689330506392166
Ga 12.212003844635818 9.150602899118487 9.007850004955872
Ga 14.66953820756088 11.611573272765314 11.279585090575173
Ga 11.79633509299215 11.315534342955843 11.167225413912696
Ga 15.359758436700645 12.928207088854036 8.908188940396679
Ga 15.215233329744075 14.355998028864194 11.301722623890166
Ga 12.997683403372278 11.648408356829911 8.690289629621075
Ga 9.08076914492081 11.6677456344046 11.37771268681106
Ga 9.872969471324335 9.202230574986912 10.098567096641554
Ga 10.527142516987576 13.995431124297015 11.361354734899402
Ga 11.564997609990378 7.239046450210371 11.186205810194537
Ga 8.668456174098118 13.506249365371172 13.561896953103716
Ga 8.467754023964222 8.174411379774009 12.30084296265125
Ga 13.109157847444154 13.233065750077417 12.740049323068291
Ga 13.527270773260147 9.200391760322399 11.451365107917969
Ga 11.248414759220683 14.655288352708924 13.967407291259773
Ga 10.926277661670088 11.848579134197871 13.895466275274279
Ga 11.030041899437702 9.326594567415563 12.827009948806966
Ga 6.695636490767488 11.694021184961262 12.71662863260474
Ga 13.54723544034459 10.64988417629086 13.819257761286925
Ga 8.707427453531617 10.35401151746328 13.956575526962835
