20
Energy = -49.21363863 eV
Ga 15.400350344117415 13.170408225036057 9.797370138012083
Ga 15.996254669565884 13.189156035834644 12.348660009038321
Ga 13.455207747895937 13.423286514137017 11.760374980474523
Ga 16.79720854930736 14.277558500537966 14.82579998028277
Ga 12.81703312796761 12.59963278872139 9.257386093413924
Ga 10.475492108811478 11.598288741855672 9.391349037503439
Ga 14.132703799640938 14.62830458827806 14.18162709771966
Ga 14.613369913270015 10.609788901089923 10.288831272404034
Ga 15.232328468410728 12.09459849296107 15.040155576015275
Ga 14.659361305123442 10.781248322191939 12.808618691497177
Ga 12.205485257891679 10.633647848972178 11.593611109157383
Ga 10.854194458114199 13.288553709136382 11.497707519414083
Ga 12.651535788981072 12.026220440854999 14.168948131434867
Ga 11.608954340094304 14.521537737284087 13.669966455165065
Ga 10.2963303970149 11.081975655587248 13.440985022593429
Ga 9.872084674105498 9.639337893819603 11.011205539081965
Ga 9.019496621681197 13.831322993498484 13.664309230348728
Ga 7.91698677142807 10.046479391908951 13.056389887515687
Ga 8.529075853113914 12.265920020541165 11.413272664682115
Ga 7.16695950074702 9.968588733670886 10.489241680678113
