22
Energy = -54.5746752 eV
Ga 14.874533366607139 13.208904166676284 17.288409278738218
Ga 13.128239641386475 15.496036446896765 13.901811084136504
Ga 12.75967022444579 14.414266333660336 16.271218533416995
Ga 14.508743528928667 10.844760257210313 16.182806577881646
Ga 13.91858252213705 12.678959772373945 14.314341893036064
Ga 12.036650945942442 11.82258420385081 16.627254171471627
Ga 10.391803172445098 15.380398605015479 15.317886610167964
Ga 13.87910512508069 15.49469836769679 9.910157572684092
Ga 11.094832624292035 16.07870116478551 10.341791966104113
Ga 10.733171407688904 14.880419487247849 12.655324280731977
Ga 11.739102054745018 11.522304770153111 12.420654523543948
Ga 13.488083384855198 13.836861032111333 11.929401422236426
Ga 15.459312317192731 9.824483288137827 14.08105198298476
Ga 12.41335739322335 10.082581122803672 14.50377732924593
Ga 10.98436578990007 12.89942385755501 14.49023047251721
Ga 15.172101869599288 12.76224929658379 10.073065450988732
Ga 13.0082199947276 12.934805934921235 8.581503353923413
Ga 14.87126553716776 11.3089851063506 12.175956337912957
Ga 12.991553195200348 8.863027361143198 12.116311386850803
Ga 11.206318785090557 13.30377601103687 10.480043039942004
Ga 12.943971935176052 10.823830704739624 10.219126451852139
Ga 11.236533226370549 14.74614105382626 8.00894655552681
