22
Energy = -55.23648045 eV
Ga 12.269957287471362 11.360424773473149 14.138874468784978
Ga 11.980440936726543 8.053024755295796 9.970117204928254
Ga 11.280675830105006 9.747300529731438 7.655372868411142
Ga 9.305281499973852 7.913467837745465 10.180524138841717
Ga 13.884951858458779 9.659555652324554 9.047202347056775
Ga 10.784602527155435 8.878901735200097 12.453599774091657
Ga 9.89777792585233 12.696719326691847 15.035836691629745
Ga 12.59591264321774 10.396989001236117 11.284281551623115
Ga 14.886435469063889 11.85365983625179 10.307611162956473
Ga 13.04972617447295 12.905433794761242 12.120020282433883
Ga 10.62193344024414 7.030327244729979 7.867606862805557
Ga 9.656429330274573 9.922456622613868 14.57125268945741
Ga 12.408944075383165 11.932905984357124 8.584095710730324
Ga 13.447782560940452 14.128545884457 9.613621194513001
Ga 10.417896678142194 11.861208277972933 12.282124187877608
Ga 8.278868395646617 9.720902317980821 11.73112528371539
Ga 10.167289769330631 10.793889111406866 9.895656084548415
Ga 8.66948541702823 9.362441576564343 7.939939289141776
Ga 7.536155697509489 11.238098905028739 9.36576096375099
Ga 7.9291696684812525 11.871269646543249 13.135424362500714
Ga 10.796997423138055 13.546857464820613 10.091257638769589
Ga 8.3004980931129 13.293032625531087 10.896357560940379
