23
Energy = -56.83717167 eV
Ga 16.3304600542014 14.4401106963682 10.800967908702958
Ga 15.342980596272286 12.925260823187037 12.853805838431365
Ga 16.012409739014245 17.08026970498265 11.705033601387932
Ga 14.443183125576693 13.717057146791692 15.469515452233718
Ga 13.615279702277775 11.442859537823372 14.631763670439923
Ga 14.029701528084553 13.048316115360866 10.185520230806365
Ga 12.762984807784383 13.839417086314656 12.857160075306425
Ga 13.741360910323099 8.950791200447656 13.652532806156731
Ga 14.888402252894124 15.555568246023341 13.599174768941316
Ga 13.790775879348088 15.675271692245225 10.925710717606533
Ga 13.674297156382812 11.037344253376203 11.879278536509085
Ga 10.172777669240789 7.702712484109057 13.450005165033136
Ga 12.522812784971636 7.025785341537614 12.411985319636111
Ga 10.116422743902232 14.2548022604351 13.163446360552244
Ga 11.352919495084114 14.9118994713873 10.748833106231853
Ga 11.147116304059416 11.729059787291032 13.605111595693034
Ga 11.540408826542219 9.547589902799173 11.840321160959725
Ga 11.457058105794395 9.466752547231431 15.062312732710923
Ga 11.482355236048283 12.050105112086635 10.609881021814738
Ga 8.888984640992428 12.294481546210784 11.846315090877845
Ga 9.408626766051974 13.489310538836909 9.527778554852189
Ga 9.036803778537948 9.966964011857588 12.787095675620225
Ga 8.417963595797 15.292860510284704 11.373425336898007
