22
Energy = -54.61824412 eV
Ga 16.186059878114108 11.107139150469084 12.062942539174877
Ga 17.959630480691853 12.7275947603103 10.932218510487408
Ga 15.788974075852366 13.872936991838769 12.535870713497355
Ga 14.242036392654043 11.607138967390025 10.284438748400856
Ga 14.109919815349436 12.0893849937987 13.41987193826789
Ga 15.656687423410895 13.82889994961188 9.75635442043387
Ga 12.064676141203314 12.826218572537913 14.737875602971254
Ga 13.422302159808126 14.124474925433745 11.1760566851668
Ga 13.326795262951487 9.833332495462955 12.049164440337837
Ga 13.891306049577949 15.001668178971382 14.182872442225053
Ga 11.421130091490305 14.81554480399503 12.967277955677892
Ga 13.04734369630631 9.96469256436488 14.807014076636463
Ga 11.026445215012965 14.678172869314993 10.159894162893542
Ga 11.702367657840343 7.97143214126606 13.560003267730345
Ga 8.86604537240023 14.8821045371326 11.934772417526874
Ga 9.508120743779017 12.986113150952377 13.696081840538632
Ga 10.634292686096757 9.510265102402338 11.506440758388429
Ga 10.46622934374355 10.606057290529451 14.121867939533232
Ga 11.637402057628178 12.138133251637054 11.798868939879256
Ga 8.467462633407532 10.869083522725441 12.248617225539178
Ga 6.950537026573217 13.117621133800824 12.470220857862339
Ga 9.456291018502895 12.536240998575076 10.45881996134701
