20
Energy = -50.04633037 eV
Ga 9.6310349539503 10.107620462999574 6.654900287529111
Ga 7.068713056863646 9.560123560536505 7.316444331912325
Ga 7.353092699136971 12.13780046078107 7.93699438892416
Ga 11.924985263005059 10.565703574101205 8.052042975023584
Ga 9.087548340205984 10.20758568467473 9.408878171419946
Ga 10.466077664806603 8.169148287929065 8.488691554314089
Ga 12.974935014476413 7.507331580032482 8.908606381303398
Ga 10.060182035158753 12.470291008569635 8.267893005847922
Ga 7.675959931194549 7.831051473482174 9.23163472024843
Ga 8.115593153112476 13.018926049256029 10.464045979441051
Ga 13.726963612426214 9.905843993433585 9.829997196407607
Ga 10.94315344438817 6.208396138572325 10.430419242377539
Ga 8.709441995905047 10.996272464465047 12.07517346712348
Ga 11.949160003858339 8.604454500879728 11.27924281004392
Ga 6.592035535880153 10.54931975236365 10.076596286491194
Ga 11.043930607976264 11.452232275371179 10.567684826637475
Ga 13.22598816789287 11.242893438022023 12.023085953934853
Ga 9.357450689515831 8.285816057809406 11.45726451805983
Ga 6.629147308883268 8.602772911199592 11.936702518392865
Ga 11.05267333914983 10.164483143308251 13.181768202354952
