23
Energy = -56.68402908 eV
Ga 14.471678003693018 12.34564662045224 15.401862315338656
Ga 13.079770000339098 14.178999329296055 16.89646620791911
Ga 13.031987315355753 10.126295584714795 15.4936949366164
Ga 14.833512048063092 14.760965491490243 14.456252284304226
Ga 13.031028168642138 11.656187377322537 17.94649869286707
Ga 11.1865586639179 12.233813350703628 15.927791158455873
Ga 14.364498445907339 13.970027417209007 11.775371710798073
Ga 11.05046528898225 11.000921185740971 13.60326778984136
Ga 13.986489331480414 11.294836701739555 13.080001873963264
Ga 14.9596465438231 11.696532018320694 10.556666082393829
Ga 12.239932985691532 13.50790060366376 13.881111668545605
Ga 13.322095291529093 9.984211226512999 9.357494526143602
Ga 12.330864789316037 15.741995014569302 12.346594001837845
Ga 12.453524241948857 9.556362251983815 11.833482347527099
Ga 12.458756045484312 16.049340569331257 14.99173547403498
Ga 15.069189339757136 16.485938042003124 12.523632270210065
Ga 14.797360072268125 17.547691833203544 15.01861364106359
Ga 13.637351075254783 13.545739499927992 8.99760930171843
Ga 12.098183215077682 12.523723048442458 11.357400424105277
Ga 12.756516000928707 18.209941898376453 13.078615749680372
Ga 11.48002962301992 11.887869614080634 8.939204435019658
Ga 9.988963131667125 10.725644462942977 11.056249528215341
Ga 10.993707219507607 8.71977421447019 9.506930376464657
