21
Energy = -52.13237215 eV
Ga 11.447170510734832 13.333379399871403 15.246600669934073
Ga 13.25468919280796 14.792820284131913 14.051447438211785
Ga 8.81747730032781 12.571002133134122 15.364561250314258
Ga 15.578727623277175 15.60391148278566 13.12743340907454
Ga 13.904149071171306 14.240046291763278 11.319284055375206
Ga 15.569007741749465 12.691208949304436 13.264674891601059
Ga 9.38570938465853 14.450606553566868 13.504638041391525
Ga 16.708234794945287 14.13407053471752 11.20860644348249
Ga 10.674832002334883 11.53538035045319 13.376122542484042
Ga 17.474943609085926 11.22994603330491 11.882841381852034
Ga 11.436884040012465 13.918325867792234 11.922318762816182
Ga 13.22390049850126 11.990825575178269 13.314243489586891
Ga 12.827717119190908 11.963684935700181 10.392297179160227
Ga 15.338601453099582 12.062106974237235 10.182448312574461
Ga 14.911576613807592 10.096276891635016 12.110527838354477
Ga 12.229775768648457 9.624182523229502 12.090817851557702
Ga 8.801353559025948 12.995268063460443 11.42966373707622
Ga 10.418114060997118 11.19408126958919 10.35239827073543
Ga 9.669996422081608 9.120652780288303 12.02148862469139
Ga 8.12255760572074 11.056578448044661 13.273821077408227
Ga 7.789484281595923 10.509497525304026 10.355185565757058
