25
Energy = -63.1869857 eV
Ga 9.16847762806346 14.187211521245954 9.46474792053845
Ga 10.147741178549877 11.558512233086542 8.979429235224414
Ga 12.930638328641788 7.991144846382863 10.414545254073614
Ga 12.975065822850533 10.307787061427844 8.477507235382014
Ga 8.559376139411434 7.257187768448584 8.804962299550468
Ga 10.66196408782463 9.071645405906128 9.57651387789235
Ga 10.562637613456818 12.896550246793463 11.402728243939801
Ga 7.819499316521189 9.843604915985082 9.378692142406907
Ga 14.664565747820374 9.519189311499492 11.481686614817464
Ga 11.499687661126124 15.338717957950216 10.317764601356998
Ga 12.395806511765217 13.131824617001124 9.229081799248132
Ga 10.803761715606708 6.248259355758035 10.457855768284308
Ga 8.892717283150892 8.089844273480827 11.349486548654745
Ga 7.085539294168613 12.33851396906448 8.596678774499775
Ga 12.139174879987385 10.755672788445214 11.234237548257711
Ga 8.864092617398418 12.961951088095965 13.65921104422975
Ga 14.53355818699969 11.840796778934886 10.36795760952513
Ga 8.03850247384535 12.122718033310624 11.204724501084577
Ga 14.730475585946563 11.741928892619079 13.487289421672363
Ga 10.901324453836637 15.011781577033398 13.093106734945726
Ga 11.234551611171188 8.048346374845844 12.670516199660893
Ga 13.105243005484391 13.519243649718412 12.100943932154026
Ga 9.682405727994478 10.386796193038329 12.392831096949415
Ga 12.96221428316965 9.650766283946894 13.688060859810346
Ga 11.355989423019292 11.895015433790702 13.884451313651134
