25
Energy = -63.03373192 eV
Ga 11.394541552577367 10.763776431240537 6.639218735418425
Ga 9.374939787567497 12.677875519656158 6.878348134222506
Ga 9.37363924929045 9.996072501513238 8.064633547926109
Ga 13.35118740118004 8.99279984391195 7.652616032898956
Ga 14.13790959345652 11.273115054846299 6.2688034093304115
Ga 11.725873320162183 10.069130511932283 9.523913124849042
Ga 12.737648911830876 12.542992864416533 8.245229534408505
Ga 14.689335501926257 10.798870090497177 9.294757538203852
Ga 7.546865584354369 8.944137265373438 9.55904428697205
Ga 10.457496865640316 12.675386078559484 9.480505331177481
Ga 7.654952914037788 12.01732454021187 9.184830109154504
Ga 10.11187434036997 7.721364364763829 9.905484754623927
Ga 13.016058457257442 11.99951398586614 11.00345432900151
Ga 8.709938139363688 13.323579414468309 11.545195377366195
Ga 12.774410214654711 7.4166584246969816 9.784519975233163
Ga 5.907924875163584 8.673061135524183 11.499572196031096
Ga 13.769597548676241 9.232233323044689 11.45204189822953
Ga 10.98445532201345 12.129365098070895 12.469925627758588
Ga 11.26567559197603 9.046547069339619 12.309164005706068
Ga 6.526101228933311 6.787434271226711 13.472772359417265
Ga 8.691926131184912 8.19068240384596 12.195329209406214
Ga 9.434463667671613 10.530795911629511 10.85419216449354
Ga 7.050331476334508 11.089302048264559 11.850537164208006
Ga 6.948642711597644 9.425944230523271 14.052887798125584
Ga 9.312757193818232 10.63058519761536 13.761570936876728
