24
Energy = -60.63379415 eV
Ga 12.526802406735854 10.602720718224921 6.363851027338689
Ga 12.553430269656282 9.2207036915624 8.624940091075565
Ga 13.015346994150516 10.02135830639748 13.349652433002207
Ga 13.760546722200493 11.698905120291318 15.638367339150657
Ga 13.747999190122782 10.743176981910818 10.844371706986585
Ga 12.047251611515264 8.561016745608493 11.074572332255347
Ga 10.991988329907405 12.746722936872393 7.030675018762146
Ga 13.056676950745203 12.023603021010574 8.765079209139026
Ga 13.193055289191815 13.76817675829043 10.805517121322344
Ga 13.565509189448031 12.719530993356743 13.178664156295548
Ga 10.199767653936517 10.794675263454101 8.796170416082921
Ga 11.471616921313752 10.264870471830426 15.598025857778566
Ga 10.29761727138408 13.38927942011304 9.719068664904105
Ga 11.011725164494168 8.190417286295698 13.333193395759432
Ga 11.006922962321642 14.308589359667879 12.354064231942695
Ga 12.318234380076692 14.705429095253889 8.317975809517412
Ga 8.258348519660881 7.979377632785938 12.816619292799041
Ga 9.444404467785516 9.343900022696758 10.87710822928689
Ga 11.309619166103422 11.57759071178435 11.45076373704063
Ga 11.08202095299334 15.984948219317502 10.348617257412572
Ga 9.187660729740909 8.956707718673528 15.169135336363913
Ga 8.503800632137978 12.110094443580861 11.114455414849786
Ga 10.988909632199421 12.632393618779654 14.386820994759416
Ga 9.535259076060505 10.745185269498695 13.24299564369595
