24
Energy = -61.55435579 eV
Ga 14.688689009421024 12.433573148066417 10.070985553673895
Ga 14.840969294393629 10.347766328579983 8.320452064723135
Ga 12.663413498897798 9.404899768647388 9.911093134937584
Ga 14.999658358914454 9.965056060436092 11.253179914897755
Ga 12.694239321813859 14.403288268099963 10.225188465724598
Ga 7.855365503597375 12.244659263981196 10.17784871017103
Ga 10.815523969944495 15.920073317094191 11.602047009062906
Ga 12.405458044626458 11.930552791890337 8.592815423480912
Ga 14.72711498105801 14.240215445017284 12.122995516251398
Ga 13.534881208373546 15.188739833954797 14.357912317635309
Ga 12.301887911721689 11.602126796778817 11.401029534922921
Ga 10.303790086832024 13.35854605917292 9.891563137861919
Ga 10.117710268325952 10.675102403109769 9.677836075894142
Ga 10.934848926127918 8.914374615762036 11.84405033124036
Ga 12.93701525904506 12.658716158120471 15.260354667731624
Ga 14.425538225999231 11.850872866591336 13.24129623965916
Ga 10.935134266096027 11.528992482324787 13.892445120755761
Ga 9.32898125658881 13.566498183744015 12.414807526350566
Ga 10.375454727036907 14.166981700622296 15.0273329533634
Ga 13.177850886412987 9.42739461966224 13.175368903094041
Ga 8.951776853802297 10.88904928805331 12.217731990446952
Ga 11.980204367703823 13.72057752555395 12.778787998631556
Ga 12.479459046440667 9.956096744193905 15.65989955270806
Ga 9.987864939139765 9.066066407290906 14.316802090403987
