21
Energy = -52.02074898 eV
Ga 13.767135141879317 9.145738888482441 13.4497450873268
Ga 15.46224107011656 11.312495605626935 11.751509319338487
Ga 11.722709706924958 10.675036632984694 15.530765157024193
Ga 13.109517270171775 13.277694218589337 16.052685007511258
Ga 12.998469955331386 10.522606830625588 11.243755049047211
Ga 15.93705869509788 11.648742091639294 14.295403811188345
Ga 11.037713440647492 10.16346633103322 13.056815504036589
Ga 13.734619530479456 13.40948120616271 11.238112182652973
Ga 14.326992725036352 10.547069720840884 15.988040804582075
Ga 10.635635580066596 12.911528122750745 14.426432591126208
Ga 13.33014419083712 11.933872641569897 13.600563973239357
Ga 12.728403407533202 14.547467945278509 13.642715499931919
Ga 11.065525625799804 12.909727783393189 11.861076610069242
Ga 8.641166515237638 11.693497729691046 12.869921799528582
Ga 10.097439206616446 10.66501841438155 10.638267573834247
Ga 12.177286097837225 11.585706002612172 9.071698186814164
Ga 11.616048758362234 15.744574149890592 11.583023450220566
Ga 11.668636006813394 14.24537457053796 9.428808650817464
Ga 9.678507696810517 11.67453710453017 8.040905058584547
Ga 9.047135194698722 13.254533425489674 10.028300922456982
Ga 11.512503669924373 13.266738302500086 6.904171184221384
