25
Energy = -63.17471796 eV
Ga 8.189833166237547 12.74955891194107 8.411068375052858
Ga 9.469652120031483 10.66005951498182 9.440216328686525
Ga 11.151578525579996 12.69746104601939 8.804028402311811
Ga 9.385200367415006 13.79355967532218 10.796561709962802
Ga 9.618606236781412 15.084055774892791 8.346450988353478
Ga 8.36787368020598 11.704883655818106 11.874045811653572
Ga 12.849037808219995 10.92948167395624 9.422852526980236
Ga 11.097586004023919 11.446503686210876 11.572671076836958
Ga 9.28152666300745 8.898509318554698 11.47876515465379
Ga 12.249350195070356 13.853531288358795 11.99973158899704
Ga 10.116611554875524 13.241940913498611 13.645160181896582
Ga 14.321830162105238 8.809858343066065 10.00157145363638
Ga 12.656396847252614 9.99935500413124 13.42365796231438
Ga 7.372098878298101 9.799562602336506 13.377740450567448
Ga 11.770680565032663 8.847146201995546 10.810108952271488
Ga 10.381083025146927 15.904128731089541 12.129262408253165
Ga 13.939173322929124 11.947028700347085 12.041266284458715
Ga 11.893859865723261 15.24327516191092 9.73538580933656
Ga 13.84650102859343 7.256578160256332 12.20790304657319
Ga 13.8947636470771 13.4177002426251 9.654919087238678
Ga 15.723451968925831 11.238476199501402 10.070173660310132
Ga 15.16825111740495 9.684120153982132 12.631858419594128
Ga 10.100297084200124 10.383163161696677 13.919816263846778
Ga 8.794061280583211 7.726376228643415 13.984298046184595
Ga 11.365923249952123 7.705282919325897 13.240566073313824
