24
Energy = -60.30081718 eV
Ga 7.7129818218232415 13.78877357808338 14.029873582983084
Ga 10.307356960177918 14.598522844488436 14.219822466960421
Ga 10.826323325944522 15.5553383820259 11.813373894948683
Ga 8.655868511688874 13.88706244448184 11.475123871100418
Ga 11.364346300180367 12.906324171097834 15.996173702088834
Ga 8.680510547993242 12.43662333561531 16.04419695166199
Ga 10.210489002502708 10.195713288408504 15.885657081861002
Ga 10.99035209360826 12.50779750406372 11.447158035975587
Ga 9.507457869773603 11.874278645270618 13.454275743984613
Ga 11.979206550698565 11.14328782471647 13.832319113034927
Ga 12.952908566042554 10.376193849379835 16.40929063467864
Ga 14.518319014909574 10.512225157319005 14.31561117094442
Ga 16.33974700892894 11.322322316793866 12.588465129604353
Ga 13.195795470370562 14.795838848631972 11.080449106666848
Ga 12.67978292841396 12.407491109970117 9.42393064954854
Ga 12.687386120515423 13.901340472226531 13.528122727652912
Ga 17.901415173089745 12.255147397497945 10.694769394899918
Ga 15.363938964571584 13.611595031595916 13.770683248899882
Ga 13.964049707548535 12.938101842419803 15.872765903633278
Ga 14.357911688106705 14.284251521743798 8.674821062739198
Ga 13.728386074645877 11.7373414121663 11.879203879482096
Ga 15.684170708016495 13.942742209238252 11.177161289544637
Ga 15.236463799655214 11.545512276131948 9.789437368883192
Ga 16.873910966201972 13.246366967202542 8.381064122622265
