21
Energy = -51.837604 eV
Ga 19.061464862471826 13.521783409950471 13.333847837762251
Ga 17.300980717907947 15.113935332137306 14.607918078949385
Ga 16.847088416890465 12.104972363523062 12.97317038763974
Ga 14.818426765392783 10.500232200078058 13.78827046761101
Ga 16.475003455290757 12.445575184965104 15.711960049556096
Ga 13.620972394860441 12.108899354378226 15.596094163882722
Ga 12.493552092627633 11.2760623279356 12.835891604062091
Ga 14.546543804678578 12.602810431263318 11.861278492485427
Ga 12.35349406782093 13.344205708394494 10.665505502643414
Ga 10.169362432790905 10.11106220937214 13.0045813935968
Ga 10.50112572534403 11.414410663979758 10.820041579467981
Ga 12.510069147581879 14.050509789537127 13.744505288980436
Ga 14.882904062814248 14.214373967823288 14.383732624189255
Ga 10.967099900659194 11.983093579004448 15.326649669175715
Ga 16.386736989935553 14.673989344948136 12.018182868274694
Ga 13.910534554183643 15.44707505802417 11.791698337239472
Ga 8.481773884651858 11.650876346583312 14.270359782133163
Ga 8.048004003670169 12.605322394185427 11.748213434953296
Ga 10.256637987055075 13.346820040190758 12.946862840931098
Ga 9.853786998547417 14.157639101721342 10.035832015982072
Ga 11.099670096083315 15.78999212418328 11.90701583772782
