22
Energy = -54.18011407 eV
Ga 9.538246772786461 15.579873196368366 13.821136864596717
Ga 12.356079230497366 18.77280476488762 12.844193721717698
Ga 10.189290945125332 17.157225262580393 11.549540183848796
Ga 10.840758599411732 17.708036704276243 14.697210964160847
Ga 10.994267696513383 14.536467390665122 11.689697222359802
Ga 13.933617002388678 17.450275793086412 11.2939360284532
Ga 12.082449125766932 12.323877515916077 12.04174261228285
Ga 11.366641004122108 13.954192484523622 14.581927829099156
Ga 12.614271940794366 16.072959069356823 13.274280154610096
Ga 12.04864039450734 16.340427389446546 9.82448516446526
Ga 14.178059100460267 10.438989791305115 16.528936271407495
Ga 14.124850288008304 13.93208455443663 13.799269159406984
Ga 16.56540411838319 9.55699064820798 15.72983239851868
Ga 13.718240862281233 14.647031155435815 11.077574375400598
Ga 13.546306480969971 10.356622549584586 12.158850611306555
Ga 14.70408323021482 7.518488204247839 15.98752481955737
Ga 12.72135456570459 11.696689022285867 14.6615002130121
Ga 15.264960358326302 12.63393946589277 11.74662698558242
Ga 15.381283645384423 8.641875925262909 13.433339458105982
Ga 15.414204885172154 11.358942165242315 14.16282138709514
Ga 16.23066527137066 10.264306393635305 11.372619234635735
Ga 12.984286494147272 8.965190251201093 14.533516362460803
