25
Energy = -63.0034952 eV
Ga 10.924205457900989 9.988757410459078 6.8211951453886
Ga 9.589857437047447 12.35207865955925 6.458169726653326
Ga 13.141879279490714 10.784357104869386 8.11146548439737
Ga 7.183978176185359 12.726296445310203 7.465103280778842
Ga 7.791557309627978 6.442989845704153 9.010236668382012
Ga 8.656835898212616 10.377695117305409 8.234910322781632
Ga 12.221853465160443 12.647916489766011 6.353275381612862
Ga 9.799081930371525 7.757473126040986 7.792099971776467
Ga 13.81684281337002 9.926379282425355 10.413172330088775
Ga 6.104524032702984 10.742074816515384 9.001674641039473
Ga 10.843425131845159 12.399088865539465 8.909108185223475
Ga 8.430490454352533 6.450436057750672 11.724198633812692
Ga 11.140715890399436 9.484499482104487 9.656633503266374
Ga 12.359131631896892 12.051200708645585 11.04877918102895
Ga 8.380403003680296 8.795890353062388 10.260762239279495
Ga 6.926867659322229 10.704793870567375 11.464481133806109
Ga 10.211947400555394 13.62352404694214 11.55467621260063
Ga 10.646694176137132 6.902997943052605 10.16279649002099
Ga 9.665411309893246 10.935394211131623 11.601082742105648
Ga 8.242541582055207 12.738010265625531 9.99712573012461
Ga 12.638297840259249 7.9093877004531326 11.64657023803435
Ga 7.581910446174816 8.759661706115265 13.080628442795666
Ga 10.976326219755073 6.059141540298519 12.929140698671338
Ga 10.205436837535421 8.629721659608142 12.658641340892196
Ga 12.182931309343497 10.473379984423408 13.307218968713759
