24
Energy = -59.45673135 eV
Ga 13.479810663993485 13.766965120768951 5.82130732258138
Ga 11.528319809244804 12.09106771301783 6.889919271194461
Ga 11.276339832447468 15.011186479256263 6.861548475114886
Ga 13.18921731103874 13.706780755506271 8.540766241306748
Ga 10.277537611060813 11.118634552706515 8.761908971102791
Ga 14.202350096705821 8.425811368982993 9.826756564966727
Ga 10.204040515721836 13.884571881175818 8.98707740794098
Ga 12.03278103957988 12.757216103904799 10.572234079057605
Ga 11.65912649859275 9.546856033138415 10.397809369032682
Ga 12.62710895961755 8.008824432887037 12.208231545385377
Ga 13.32019740054281 10.961486300153718 8.759362621818472
Ga 15.404793678750334 8.757453605719704 12.566334272897526
Ga 8.998713347845992 10.231833232288755 10.809848805672281
Ga 13.477127305561016 9.94254842002712 13.952456065259193
Ga 8.872520611878011 12.891118318643915 10.996770260856957
Ga 11.488692660270726 11.272062509014646 12.654424204404409
Ga 14.066990533100359 11.013875943333648 11.452039291440787
Ga 7.1009077050893605 9.178021112769176 12.30598883000072
Ga 10.093271994750193 8.729829714004588 12.638046858484303
Ga 6.684325411762161 12.215836965954455 12.388243579160042
Ga 11.07667537237214 9.836793678746844 14.961794613296401
Ga 8.49017233169893 9.244866698918534 14.73061557146991
Ga 9.079018388179836 11.573571783089228 13.43850931945177
Ga 6.762915594113494 11.241059170186595 14.923641839084148
