24
Energy = -60.66104271 eV
Ga 15.659300761068813 15.031874325861708 12.823343321460175
Ga 15.96273695025204 10.208764400074749 12.128530577732105
Ga 13.84784662381572 14.361011563706056 14.731595556119853
Ga 14.99009796937044 12.919393649647708 11.171495051854862
Ga 12.95848444101726 15.011607789114946 12.307886038621554
Ga 10.967189832639155 14.345801030756482 14.049939478656963
Ga 15.138659105012602 12.093871050711618 13.85931712952876
Ga 12.557064772335101 11.782622090716767 15.557794428801037
Ga 13.532558876488078 9.953667208083234 13.921188508165883
Ga 9.601226504160215 15.057271026272199 16.45119512246845
Ga 12.619113817325022 12.307412683682767 12.680834599303688
Ga 12.776172307080598 12.910891132712814 9.61473565710975
Ga 13.715919724848524 10.61927141310205 10.755100737782447
Ga 12.139906661439095 14.056540941637062 16.767050235661692
Ga 14.151176270029167 8.068336395838731 11.806230563153719
Ga 9.82266690708773 12.48055610293512 15.607706721201945
Ga 10.487318430554888 13.634163068795289 11.523506434227256
Ga 11.748550684052917 15.444694598846736 9.734494656550408
Ga 10.94883191805204 11.152428141923053 10.688010944596996
Ga 11.605418113350009 9.021232818491441 12.22948719819386
Ga 10.495716306680468 16.30404020929308 12.088169899623406
Ga 14.547231243137588 15.440098134035699 10.173371927680112
Ga 10.618723508276755 10.873938025006925 13.728908307876464
Ga 12.06424261445833 8.947694952641271 9.414282370251936
