25
Energy = -63.99283334 eV
Ga 10.13958463933155 11.193873195880373 9.09042240880319
Ga 12.949148437641286 10.652030805776 8.632526410628035
Ga 14.690802959720303 12.618065386713697 9.114991665080575
Ga 12.011790279135765 12.93872651889612 9.793492511823828
Ga 9.276993704698453 13.646810883002395 10.25225313447993
Ga 11.40238646329607 8.737672890672586 9.640971820052757
Ga 13.815937387849644 14.906013938361747 10.053446653229605
Ga 9.383622451132654 9.858909131004665 11.342265719634828
Ga 7.540708606973811 11.515153792659635 9.819193277346407
Ga 13.440615907964316 16.51560967190272 12.190806032571055
Ga 14.79899005269979 11.221095214395405 11.448303274861091
Ga 14.175262735149186 8.696489690870608 10.487344364682665
Ga 11.160849919170218 15.163307705448384 11.183146647607643
Ga 10.494479889860683 9.626660660294073 13.694424060012391
Ga 11.605298391846825 7.6811849053712145 12.076394592497104
Ga 12.319474947364963 14.837220115123545 13.942391306748267
Ga 8.28116356066965 12.014135250106918 12.397537421423955
Ga 14.166082610855785 13.640833498794635 12.321133406741207
Ga 10.943923240776757 12.789382924618721 12.542667728388862
Ga 12.111829189092221 10.67642836944384 11.450962933393104
Ga 9.539053216810549 11.832874033171127 14.694214287978456
Ga 13.522158922516214 9.103025548346073 13.363781723396677
Ga 13.184791904444339 11.744057137804853 13.803483636908416
Ga 11.677204104154436 13.004559982212495 15.669327106447845
Ga 12.155864613556112 10.173896885840527 15.782536011974775
