20
Energy = -50.10227143 eV
Ga 10.272455110667101 10.420851676277952 7.437189951373679
Ga 10.642020233868005 7.605751730531967 7.587316251110756
Ga 8.611344011512019 12.229251767764435 8.485579435716888
Ga 12.877892181281476 9.168335195023007 7.287681928722231
Ga 9.194801169952294 7.601131407184437 9.956839218463866
Ga 11.826058449358806 11.939554334343198 8.858751724702802
Ga 13.90612134152396 10.305379629431075 9.672088494091646
Ga 7.387329868924105 12.444258080429835 11.208118420153957
Ga 6.612096055659036 10.560575863465962 9.34909000010792
Ga 10.419228471869038 8.538434221215217 12.221961230594642
Ga 10.089213049083144 13.136876603081772 10.553287661847559
Ga 8.00749796594555 8.905203130119348 7.833324060268899
Ga 11.719879769598066 8.744274930088638 9.871801611234439
Ga 9.142364096528762 10.820349919279906 12.85668228337696
Ga 11.870295055327988 11.111375315248127 11.431336476501926
Ga 9.500760850853196 10.366804352655475 10.138678725822386
Ga 7.45629695535843 9.107474434239585 11.48102188130759
Ga 13.469534676329955 8.982535172612867 12.096430774556516
Ga 10.760010595317118 12.970983731852069 13.090115522330864
Ga 11.802280335515066 10.608078749628588 14.150184592187728
