25
Energy = -62.9066737 eV
Ga 11.01411292914655 10.067395097080993 6.351512892148521
Ga 13.43494074930289 11.00310907545586 6.893640400885926
Ga 14.39955008296723 9.159364160757217 8.540275344935242
Ga 11.165099493952415 12.347474133948667 7.982938267461898
Ga 11.730283245545483 11.95101343229129 10.815163387067049
Ga 9.159742761130158 11.472169041134308 9.810290935156736
Ga 11.65441640841213 9.776413866543695 9.011051261170673
Ga 10.820290414661788 14.284563221070522 9.553843189602395
Ga 13.422982188619752 14.372013026447034 10.441716298458076
Ga 10.535548558218451 9.394654637886545 11.341258236276426
Ga 13.938166145500341 12.013261652631243 9.252208576574986
Ga 13.523805085521907 9.665712366577992 11.084305462545752
Ga 9.488297060146477 14.047093892011185 11.743695370363472
Ga 14.929084552910448 9.609359880423462 13.373707353210639
Ga 9.928091521731824 11.576965894847463 12.742101602957558
Ga 14.395938289657058 12.227093651470936 11.938868316829288
Ga 12.27037949888037 13.537168447549961 12.889465172650873
Ga 9.383126932935632 11.047949823927459 15.266210843319579
Ga 12.31698090269991 10.397958137428652 13.505978031726231
Ga 7.752559821413196 12.914497718596117 13.850171617175251
Ga 14.37940747167755 11.96964129184362 14.592711048776687
Ga 10.123906401857138 8.818530041167826 13.91510433596177
Ga 10.134495935621224 14.216206157811905 14.367675734559041
Ga 11.890388408039673 12.350720046336301 15.321797661265137
Ga 9.655179030639133 13.226445195947498 16.861082550109078
