37
Energy = -96.22990509 eV
Ga 9.752262764000816 13.874903275535539 9.176996895646608
Ga 7.098515922517683 13.867412483802408 8.01278502896568
Ga 11.842011323156466 12.681351979363757 10.530252549231125
Ga 9.300442084878489 12.557908411530514 6.710403635193917
Ga 13.75192761310163 11.06267907509108 11.514659104418332
Ga 9.434679708907353 12.23829395438111 11.788602698114119
Ga 11.442370023841953 11.707786645212337 8.144965566413001
Ga 13.540511692958031 10.256770424454903 9.04355799983351
Ga 11.646966549098806 11.661982695400395 13.165031324038646
Ga 6.768662914544615 11.369127468922438 6.40400979776952
Ga 11.290084848867483 11.098990774382187 5.548287016620885
Ga 12.750625059503797 9.244108770322002 6.692566165358485
Ga 8.715570303951246 11.233926451491177 9.127012300629522
Ga 7.242521516729815 13.283450054452063 10.750691734498929
Ga 13.4067782264216 8.33787495610275 11.538730279001157
Ga 11.088504299223336 9.937489518890436 10.561518078248946
Ga 13.94011234595418 9.967397593879802 13.97896091119367
Ga 8.965316370312626 9.936013844486189 5.437947919063761
Ga 10.194596387977523 9.197745749008185 7.838653527734205
Ga 5.920354575595809 11.294833282403031 9.079479843216214
Ga 12.359793249577457 7.6061570527392615 9.22959679873667
Ga 6.743733450569526 8.470298984061728 5.360016316630866
Ga 6.965859247328592 10.753849297081862 11.654497962591991
Ga 11.531923038575277 6.687510344483269 6.81843026583386
Ga 9.22025030213663 9.690230162673434 12.669959955867343
Ga 7.340344543563397 9.110049569898178 7.9532048850585255
Ga 11.563937718981888 8.788906819124607 13.671320593471075
Ga 8.657535959814087 8.417599083207909 10.257759404301243
Ga 8.823098687637183 7.05912547941611 6.626189700590561
Ga 10.806505844748123 7.235037898906037 11.453740728663226
Ga 10.026751629607354 5.983176047938482 9.06798076836531
Ga 5.773882354371669 8.642974924266158 10.164974353113022
Ga 7.024642865757978 8.100770463372465 12.60035998765696
Ga 7.218519825669549 6.4686427621521005 8.89272273750706
Ga 9.321093164539063 7.049126505233708 13.871407484998567
Ga 8.579022537355339 5.738077071645225 11.394768556931618
Ga 5.856995091905456 5.975605851843965 11.267563188948778
