34
Energy = -86.41630324 eV
Ga 13.455501722805906 14.788288014194547 8.918943655916522
Ga 14.599415114414802 14.730664439436374 14.872169988189397
Ga 14.457687008070094 16.952995199635815 13.433349442032599
Ga 12.110023457823873 16.53247445568962 12.0616984088191
Ga 11.684793620276535 13.153108710221728 13.018234345053314
Ga 9.717332605336436 15.189338004556225 12.604776543812168
Ga 14.891878308643903 11.605589607497874 13.243397637081713
Ga 14.191105360408564 14.152461274117353 12.237530788651732
Ga 16.480702863258816 15.787059057949206 12.202714351531975
Ga 12.274232210381966 13.014324651906849 15.619066591909771
Ga 12.734021746523 10.974833127638249 17.862152875488114
Ga 12.350318082842845 10.707301483486575 12.771500000361781
Ga 14.297251292060398 16.699059980096273 10.6484498914045
Ga 13.164604674109496 10.392818520723038 15.402250874128569
Ga 14.01794781046612 14.82575752618771 17.367712149697713
Ga 14.142656450438714 9.6117662339712 10.905975588166521
Ga 16.453688748749215 12.778825340910009 15.073509771764707
Ga 17.153792653797712 13.083012973858967 12.68186744726506
Ga 12.423615654103829 15.37145358498418 19.798756372674255
Ga 13.2519008142123 12.24666150913355 10.555545547321412
Ga 14.304928857770248 8.899371282524534 13.610412537167546
Ga 11.457474349558035 14.215435100775897 10.58442950468798
Ga 18.34050535814452 14.156114524223373 10.54267894858194
Ga 16.00129083666865 11.460212780594857 10.829507351788509
Ga 14.038127722456665 13.121003065177717 19.328961007710106
Ga 16.727080548311655 16.2644299096616 9.42183237317593
Ga 11.509639930017878 15.88639467037521 17.080625004181833
Ga 11.872979429611982 15.514716654624824 14.471360846474592
Ga 13.69736671330652 17.36913921728384 15.983389045435203
Ga 11.656891853371787 16.806705860786955 9.417806100471482
Ga 15.031834959112576 12.217307365990916 17.03945194873545
Ga 11.366225387456677 13.38891840412031 17.996577548576973
Ga 15.686258145118018 13.680104113800882 9.618221770473173
Ga 11.796232040381826 11.88373452461941 20.22881225064198
