34
Energy = -87.43432799 eV
Ga 16.742731498429404 11.14096925321588 9.445293141825344
Ga 16.301725239084416 13.968242336045284 8.830500740262472
Ga 14.76201016355934 11.989559485546335 7.574974937898236
Ga 16.457055865112 13.589565915277726 11.742852723936538
Ga 15.573437010753405 10.555033673453211 11.742247986121
Ga 13.976984466378429 10.035961649043982 9.536612898075678
Ga 15.0982145173769 10.108975975747594 14.423642849903228
Ga 13.727635186055172 15.01502179437186 8.95985397585119
Ga 14.051935975901099 15.109909694558665 11.907387511941
Ga 14.29805370039689 12.687744909866563 10.344505756050838
Ga 12.341821623230294 12.697003475089609 8.257757083362913
Ga 11.586383989830752 14.230731846397173 10.480268170984594
Ga 14.354046576624171 12.522758778243336 13.142003440260842
Ga 12.012373393415523 13.691995440403424 13.22433597911096
Ga 12.018337092795656 11.463846707980805 10.965720775607123
Ga 12.181227067081656 9.733244543127803 7.4746248471370125
Ga 11.50575743560878 8.825560276477056 10.021706301130775
Ga 10.188253492089503 11.198384822227704 8.78887655327148
Ga 12.597200947371615 11.342057303339551 14.774587338605029
Ga 10.223549907403264 11.358790504826649 12.936606338679322
Ga 13.127717081242757 9.477368519234325 12.452399025191756
Ga 12.980504996428474 8.245621402761348 15.088036664293458
Ga 9.251236717081024 13.078931919689268 10.470728656060809
Ga 10.416563432399737 12.732562318562472 15.636292268499949
Ga 8.113431067766548 8.861537963902311 13.182131831968702
Ga 8.972230175607665 9.997807607483248 10.792119466333965
Ga 10.677640447525214 8.485519985439552 12.590258312386236
Ga 9.487555570949409 14.004478305299134 13.302804468693322
Ga 8.396591832382875 10.842359869339003 15.015667434006225
Ga 10.638595052314344 9.45390014945162 15.133815665306482
Ga 7.317383458240433 15.746541086909335 13.866355953218271
Ga 7.325588743344505 13.151128648444944 14.755186838601103
Ga 7.0966004319529175 14.083020065352246 11.754854306006514
Ga 7.4422334677993485 11.552216449636447 12.33990182217015
