35
Energy = -126.23660152 eV
Ga 16.03957722238453 11.440160544473144 11.603863182178143
Ga 6.59183509552252 11.456164943052332 11.496147510000243
Ga 15.829481517805423 12.693091974573232 14.39211376346155
Ga 17.51038123103816 8.86513010259215 10.984810464742985
Ga 17.317058288932692 13.583368214473204 9.895839134715224
Ga 5.908915019489783 13.428414201347017 14.258523374868124
Ga 6.478747183591018 8.528533164573942 12.369634556171315
Ga 6.746711342323551 11.643797486865656 8.287440822032067
Ga 15.78635299164113 9.001427193003995 8.510471714600616
Ga 14.680858842527055 15.193363520904896 10.380458381557318
Ga 14.405640164767116 10.054880062807406 15.002392379169763
Ga 8.356508683624112 9.166225144564383 7.757917537175788
Ga 7.98243409825757 14.613556497121932 12.318987754568967
Ga 8.526403562483036 9.868743478663069 14.264735955995972
Ga 16.135732844237634 11.919136562204457 7.603823321325642
Ga 13.416629566290343 13.550423549068766 12.704363174857168
Ga 15.436879171061651 7.654382721376509 12.902694708556245
Ga 9.047514187427575 8.805743773898039 10.735621515357002
Ga 8.053691578258995 14.405212995040051 8.893848783351928
Ga 7.6551604737240355 12.19669395330714 16.25698437633576
Ga 11.857431891275754 10.650646902808205 16.683769639634882
Ga 12.612066851456802 8.750514632043535 8.56795444669577
Ga 11.019511943898829 14.884720542472445 10.138105624857939
Ga 10.196498773398229 16.758007229162345 12.446294028761919
Ga 10.528353305931663 8.047295570847846 15.771148974204664
Ga 10.496369538549606 11.177074556861704 8.569552824757835
Ga 11.980467109790926 15.529318318416792 14.556024493002566
Ga 12.143006492519667 6.963298549768169 13.354500299900257
Ga 11.897625558077142 12.989529664849393 6.468498528866714
Ga 10.413600673838312 12.830821272242986 15.033149711202164
Ga 11.22110568571771 6.679718644185287 10.370823662027172
Ga 10.362427491618929 15.505932481675615 7.2138483526709045
Ga 13.168162650350684 9.565635900210438 12.199288587597163
Ga 13.567062415308007 12.648276186624646 9.053862367015046
Ga 9.700171522378376 12.021134296605807 12.022880743656177
