32
Energy = -81.16380391 eV
Ga 16.771144023164982 15.603589295212993 13.31580258139497
Ga 14.570089794977854 12.388212708806732 11.893611208745021
Ga 12.69589062228513 9.659838697759607 15.402473839517585
Ga 9.774615338384077 11.982180062335003 12.416490409456816
Ga 9.948693096957111 7.6179958419258496 10.086036869351588
Ga 10.20144522449783 13.04720599954548 9.779449553250181
Ga 14.795351206851759 11.065924256463155 14.554877599832047
Ga 10.559910635017808 8.141373235731262 15.16296243274704
Ga 12.451153047513246 8.521049874254597 10.675464697962203
Ga 16.532345603390887 16.533606637101702 10.720126550183043
Ga 11.47044783333357 9.746387761662833 12.924521386340999
Ga 9.424016952192805 10.569205793467974 14.733915150433981
Ga 14.720222011399642 18.18408073012577 16.367277419595045
Ga 15.197099147544126 15.303677412988995 15.850727923935663
Ga 16.701078173628545 13.78739413130052 11.301331982964697
Ga 14.00444528050282 17.739606223440216 11.353407260389352
Ga 12.413174031952687 11.479039596251752 10.83297003427679
Ga 8.62269503872987 9.481455272238357 12.469362577234145
Ga 15.773130567687433 18.134606617172565 13.354486940422083
Ga 14.18685417119741 9.664882530392669 12.325835351436313
Ga 10.24410513694973 10.265334525515806 10.134863674564864
Ga 17.118263479925574 17.088260459856574 15.405877194698167
Ga 13.334992415978338 14.127714757366082 14.164380812131965
Ga 11.595434420585198 13.913675980039507 11.880931215036213
Ga 11.80805160607018 12.072051527865645 14.270836481724807
Ga 10.240686056529132 7.3313965260398435 12.6882624390713
Ga 11.944256732285368 16.41112540235766 12.290041315311338
Ga 15.988371875000972 13.33062566225356 14.08117914275956
Ga 13.59737080117894 16.819832513261105 14.307801529616254
Ga 14.318870812202706 15.112362199857554 11.75939269351502
Ga 7.599292700902526 9.061117415983018 9.980378127131264
Ga 7.8321656468115055 11.770782340415662 10.5090659466164
