33
Energy = -84.70265249 eV
Ga 16.096507602042553 12.400344195485497 12.809421581832252
Ga 13.715965045475466 9.40815788630739 8.749031863900266
Ga 10.66257178238818 10.49008348903171 9.098795921809668
Ga 14.83420876276657 11.031260096197993 17.66031337398224
Ga 9.135793543089813 13.916726824623426 11.264418980979476
Ga 11.047784246386254 9.82821579998124 13.584813132841667
Ga 13.768337007987364 10.707174540043885 13.231032524372855
Ga 12.381546160228966 12.447984327740594 17.464943825792353
Ga 15.756278401798403 10.569886347644463 15.077020703105072
Ga 10.192710957439084 16.453565333988053 11.829405834071293
Ga 10.242560923677907 15.743854568571955 9.07847543464403
Ga 10.66839737663045 14.28710192344877 13.3901606837573
Ga 17.05438843767155 13.133028902598491 15.243908253715615
Ga 12.510502284978022 9.667005878112922 11.222565624865567
Ga 15.193079444727344 15.123783966438182 14.510812739439727
Ga 13.02485241218349 11.929185296016598 9.44480563640944
Ga 9.817354920284588 8.751419785434924 11.493187136411912
Ga 14.930194370363616 13.260929643615624 10.584509054418282
Ga 15.249347265970677 10.431729563241133 10.869037655280538
Ga 11.51641222266073 12.311743891489298 14.830066647949458
Ga 13.460451026779158 13.44283139996889 12.99250915215664
Ga 11.448015541991548 7.953973940275527 9.436924060458958
Ga 15.231483346740475 15.602240537068202 11.775743837021697
Ga 8.953478130416272 11.302926383211414 11.176148789913144
Ga 11.399867910310117 12.152321747796655 11.844313360699093
Ga 12.822915953416432 10.185407789559036 15.772834323719264
Ga 12.88074801559339 16.150074132265946 12.873206578926679
Ga 10.786317184937433 16.971123961798146 14.5057603152413
Ga 13.480552883742742 17.34437603937108 15.24148195075081
Ga 10.61160464160525 13.08825770992139 9.112228990801297
Ga 12.374361582485022 14.763440724681221 10.624898923955142
Ga 14.324146074527748 12.866654425363654 15.605845724225405
Ga 12.344912757339715 14.78029774531242 15.729168339095606
