36
Energy = -129.52012561 eV
Ga 18.119802733127305 11.200238863768968 13.975792139780426
Ga 17.113809360774876 13.764336927091323 12.710199268804944
Ga 16.243717710871827 8.970635247567511 13.028755252489251
Ga 16.70073206561489 11.987265503874102 10.274686127403353
Ga 15.907089955972324 10.239514773928114 15.779421766157732
Ga 14.251749194965669 10.630292287513319 11.416339311066777
Ga 15.08244804634151 14.01516671976813 8.54805022447638
Ga 14.128486335133337 13.829533709845098 13.125318814736824
Ga 13.582698311421977 12.196123626657894 15.61364832340325
Ga 14.360017765251099 16.663757105947766 14.185100980612567
Ga 15.154584651610142 16.377032940806398 17.058362268443524
Ga 12.618375076602138 6.827425833178486 9.703337294672938
Ga 14.901044035688262 8.790717860198356 9.090965067569522
Ga 14.838668989831127 13.70248925281676 17.902467177882706
Ga 12.186357433598499 13.941085936162752 9.482501916101777
Ga 14.940882789925306 17.197948282991874 8.78056147909732
Ga 12.94844265110093 9.754515578350206 6.9701695424563015
Ga 12.92904038077173 18.06051480095108 10.775333788067043
Ga 12.871784204254674 12.783670193585767 6.769532366462128
Ga 10.575651031079992 8.873293589466847 8.834108472795457
Ga 11.483736946345836 15.970119350432913 15.052598189286346
Ga 12.369979296424923 6.87567166939891 12.716776477821828
Ga 10.565529492575441 11.005697696110424 10.988519453249847
Ga 12.010638635380683 16.781495007811053 8.194695310802208
Ga 11.424430978986221 9.61020737373062 13.56204542525599
Ga 9.725227364649742 18.230192417689597 14.177795744887
Ga 10.561885621859824 16.303298052136725 12.169085045523985
Ga 9.903040923574267 5.320920396870089 11.891350275893041
Ga 7.891779850994679 7.026533843490139 10.415004740092625
Ga 7.687129548674054 9.96249652356174 11.522638901518995
Ga 8.445191593452119 9.195476482436144 14.344580863308357
Ga 7.564079202677234 6.414727150680007 13.433847929133554
Ga 8.18021330555393 13.710852285748654 12.293555579786519
Ga 8.227003918509515 14.071214148499191 15.282368610209412
Ga 6.102715785699715 12.281105983465746 14.074367915360064
Ga 6.022716435319069 15.313101749774015 13.662650130315075
