38
Energy = -85.69969574 eV
Ga 21.548774896984895 19.725784928081126 0.028367142411672677
Ga 22.058774359972865 15.020371739103023 10.820963245222046
Ga 19.241135359014073 19.697934776102226 10.62263635605221
Ga 14.98553596846499 19.877702048551868 21.046071490943017
Ga 19.215325401157948 20.321981961711597 21.893874875389873
Ga 15.65067990897062 17.35894643095546 20.436885607305076
Ga 19.9307057579327 19.700716352716135 13.333078187998467
Ga 20.53916624819375 9.057015360289242 20.03118811241874
Ga 18.624752394210255 0.005086737682923457 22.45523746152398
Ga 11.054865095956263 15.632643654116755 12.76023051942518
Ga 13.111776520836452 14.446538142497023 14.241111028559274
Ga 0.30297040440761164 9.79885260573756 20.267981328630196
Ga 16.709455124972205 21.30028909959696 22.017709486978305
Ga 18.924180481940244 14.910449463067264 10.367491325259113
Ga 17.923668251082805 17.311771073065827 10.686626988100219
Ga 20.463210401669947 16.501425457561005 9.07534681664594
Ga 13.076967985487107 18.326751110675996 20.540000150238964
Ga 13.465567403878712 12.609749752873894 15.915564123949817
Ga 12.750193700621741 10.616183829443358 17.517991878489106
Ga 13.419868905373706 16.7008353327422 12.744821981451262
Ga 17.687094750773586 15.088677176180669 12.61401708675871
Ga 17.548102910124186 18.92767884859342 20.714519103569806
Ga 11.74882226540428 14.934403605358886 19.608749903118976
Ga 10.890718819503359 17.34512076109167 19.837497086012725
Ga 12.826622803301772 15.073050181178722 16.919910773969285
Ga 20.338285571344752 15.153536817424879 12.812996660701623
Ga 11.570071621576561 16.727237311875676 15.092046108245398
Ga 20.992688961534643 22.243703773524313 0.03939256700974868
Ga 13.772546615605938 8.188468085422336 16.765165507078986
Ga 11.935239415585997 17.662212015607764 17.431776228308898
Ga 18.591493530548718 17.473770031938304 13.734935707121803
Ga 14.011987875311839 10.263021824189916 15.164580008915019
Ga 12.011655102008117 12.828288001475196 18.276842906107102
Ga 13.931484373921485 16.32119747388145 18.886379192442543
Ga 17.24462246320098 19.495775241288754 12.400913073642009
Ga 15.5105865316794 15.008690071927564 13.872965945306623
Ga 15.920491360114973 17.307051321661113 12.474875487370355
Ga 20.477872992194506 17.528767855346633 11.657723437697186
