38
Energy = -98.97847134 eV
Ga 5.833390639130463 8.11492981416063 3.8745212013083354
Ga 8.771244211936041 6.6063922769692836 3.9334863811591925
Ga 11.190569021177897 8.725178840446715 3.7342545547468844
Ga 8.423208657429514 9.613901135233887 4.3284813113570255
Ga 3.8070795068025722 5.912184932370174 4.47425846558621
Ga 6.449935032163648 5.337026473451851 5.103863855699902
Ga 11.591122906615968 5.852784555239221 5.300387391979103
Ga 5.732203198284286 10.1968016798038 5.979944720234994
Ga 7.3347379114650835 7.705281327625051 6.048684334915388
Ga 8.00586500584736 12.276712656153732 5.85533033984372
Ga 10.647380657729563 10.778435662675168 5.965135079294563
Ga 10.057071668762111 7.988855687581854 6.0712980376362475
Ga 4.350405185719018 7.553994134395225 6.588130860184009
Ga 9.116196240937157 5.085128615567062 6.411202460524814
Ga 12.673862650469745 8.636039847449256 6.59319284549495
Ga 4.471621948383504 4.658404092472985 7.136877241908409
Ga 8.320214120525476 9.949282353351359 7.200585652798036
Ga 7.114709030593954 3.2026685537230137 7.2965900735875024
Ga 6.797749827177946 5.845377657638159 7.888815725621001
Ga 9.187786295046063 12.038358767108788 8.767175013108536
Ga 11.525363688048774 6.471574493242117 8.177741311914508
Ga 8.993527219695439 7.397133187547136 8.34497586785043
Ga 6.295386907093259 8.536951640380884 8.341446534632222
Ga 9.26833953172211 4.758293208929026 9.252283287006382
Ga 3.802436032275711 9.561876142288865 8.644749605312866
Ga 10.917001102035089 9.568033345640707 8.657728717212583
Ga 4.606675834561221 6.631436154799141 9.498419780563461
Ga 6.160035297821785 11.357407932659674 8.738133769077796
Ga 6.42556221326991 4.214696120035053 10.136589163759064
Ga 7.193202746799711 11.433295982024775 11.434200618414856
Ga 7.400677259160086 6.827782085041344 10.385619344514724
Ga 8.339685524745262 9.553512039057383 9.863747177516986
Ga 10.423906094002508 7.623782146015641 10.722554176036637
Ga 5.637488144040121 9.039963879420174 10.948260288059519
Ga 9.115007569256385 5.493190529061173 12.079763055297777
Ga 10.359665558718715 10.502155017051335 11.476753826504106
Ga 5.679965370034232 6.579344786157265 12.455004161552766
Ga 8.140225641574398 8.532337698282978 12.450319218835538
