32
Energy = -82.6758764 eV
Ga 10.482491772947391 13.06858666311982 10.664983073444837
Ga 12.700950370285916 10.684706989411463 15.497797365883867
Ga 15.511867942924807 12.54139113260897 10.252134504165708
Ga 13.358168357442914 17.41639293249007 14.953443804446048
Ga 8.920111894164165 11.592195813123853 12.361676415009589
Ga 12.887080792285854 14.178865522647024 10.560348223780181
Ga 13.501034743917856 13.598352626626037 15.277376903673842
Ga 15.343676784804611 17.670348966202248 12.667103804783677
Ga 10.890806268006306 10.266019721879625 10.996992907918575
Ga 14.627384207842814 10.30944142793645 12.230420004559766
Ga 16.48986972826289 15.074602673088915 12.680248362849522
Ga 17.095604179991877 9.912321309795502 13.839321473906843
Ga 13.101005593279064 11.41732784403365 10.388743074024072
Ga 9.321882235823425 8.789285579757966 12.69001359431797
Ga 16.980647430015615 13.307382630666611 14.900320433804318
Ga 11.032594936659933 15.512382213324628 12.127440971776021
Ga 12.188305789339802 9.267783186686989 13.205637163167193
Ga 13.446035727517254 16.89614072970285 10.440128138359748
Ga 9.654981130186714 13.891442166307945 13.544931304402793
Ga 11.404370094886497 15.510703080059058 15.110681992519165
Ga 15.472467715582448 15.223480998150645 10.1866736712141
Ga 12.246230837255748 17.81269180731487 12.607365935956125
Ga 14.567059289553438 8.745036123322492 14.491854903767894
Ga 13.656828551224994 15.392530828672113 12.94559186304042
Ga 10.164175958177106 10.458128247837854 14.735935912155265
Ga 11.907905210734889 12.21675016009114 13.053269893583515
Ga 15.36021219083742 15.619697050681566 15.206740201900312
Ga 15.138081631373161 11.411571941366905 15.007146614847812
Ga 10.891085051481843 12.841834394066241 15.803880744801578
Ga 17.247020610031754 12.442638595969768 12.237206495952776
Ga 14.572217911946012 13.00163223760055 12.798956913220062
Ga 8.0775780444139 12.219147202031033 14.987361593689895
