35
Energy = -90.81879438 eV
Ga 12.456020254905733 13.260101891607167 10.372688851962085
Ga 9.659253423141955 8.969921752853102 12.386584281330396
Ga 13.528525320880739 15.949683559876423 9.858210984033914
Ga 14.908261864386123 13.664827067887492 9.006163192264347
Ga 12.079991019060278 14.484362319298485 7.892510143847259
Ga 9.114525859704766 9.758869511282779 15.251326888773024
Ga 11.52090957243482 7.569388090772133 11.01396520957936
Ga 9.042555245439866 7.765704227014843 9.750641173895987
Ga 13.110355609291807 11.725766985585672 8.01565952781964
Ga 10.096485557994688 14.708083519013135 10.295632550903735
Ga 14.754785043070424 14.214336587385377 11.853069656002281
Ga 8.694898488664428 10.144188168112885 7.981235179566656
Ga 8.062169545466976 11.020029968911924 13.134373742847904
Ga 13.283467624817401 7.450283430779441 13.096951333590303
Ga 10.478685677463485 12.35962754008842 8.569532809941265
Ga 12.094795215723485 15.539828861923038 12.075274953797706
Ga 14.511894842061642 11.580994634841213 10.664547235618228
Ga 11.430701670642959 7.881439772511662 8.112358284289545
Ga 7.734999727137623 9.915117751440006 10.66946733062438
Ga 11.434438390343535 8.75750370552528 14.41403947952811
Ga 15.517141968942708 11.972830859426555 13.296403833316905
Ga 13.512401513946136 9.351682271916587 9.468926540781897
Ga 8.286634148907478 12.907510606099875 15.17543158305353
Ga 13.428858134408104 10.619940446274683 14.432249944320988
Ga 10.734919310664043 10.035135294423688 9.807827129938849
Ga 10.351448103011029 14.345721041844905 13.712986871550312
Ga 14.86498617844883 9.383654040867444 11.997536050487188
Ga 8.095944312431893 12.503249535101002 9.737434059728606
Ga 12.709774268075748 12.942586772436778 13.021918645972958
Ga 14.164049147588154 6.8892902382561045 10.554527298841059
Ga 8.19322577272751 13.727230084669737 12.17604935560037
Ga 6.0467992167158 11.911346626222434 11.581821626593543
Ga 10.808467482737406 11.691955677426254 14.386004726030725
Ga 10.33361521136211 12.094513402179025 11.598811689354466
Ga 12.276807476512406 10.226085886850752 11.960629828105871
