32
Energy = -115.14916954 eV
Ga 16.85533907225621 16.235390591209637 9.043704752110076
Ga 11.489813927141665 6.298999909974952 13.121565694945385
Ga 16.38510084601509 13.7881059167817 7.376984704853606
Ga 9.25373470934267 13.247369318112142 11.218811531596055
Ga 11.773914755922013 8.142100603603652 10.734862020695166
Ga 14.991837354387561 17.777260234626592 15.477747837792696
Ga 14.480295615037514 18.115158271371975 8.932595147789854
Ga 14.70880251299964 10.458942047688193 9.903422022681829
Ga 12.106299407729743 16.72283458387377 15.011177644876032
Ga 7.022042175219895 7.7140800628057535 14.559665454106113
Ga 14.544226271123634 9.385858584206932 14.146901228355949
Ga 5.331655615798249 6.680747789046996 12.274019091710128
Ga 12.484497908963284 7.697105477395551 15.619692051997207
Ga 7.641022677337033 6.60630746683565 10.334777945365568
Ga 8.804076464450295 9.92309454104785 13.504646976540634
Ga 13.668378394645686 12.813523157569492 8.358243253971205
Ga 7.90263588129674 5.250677795589905 13.034195566835221
Ga 17.47808294229594 14.603890701832198 11.572396495525984
Ga 8.689394745545082 15.894300084444827 12.677823389885905
Ga 8.951444310325424 9.319085245446411 10.568995395467091
Ga 14.353296824545033 15.483448548267063 13.3692530689136
Ga 16.94763075048168 11.628231550859908 11.541277526831339
Ga 10.346449721488014 13.773809752331784 14.026181856061799
Ga 13.37639760930171 18.025810609752607 11.751088298089782
Ga 6.716679046612919 11.907050802627056 12.566745845659906
Ga 7.358578882040069 14.007287464964163 14.677334722868286
Ga 11.763402112064336 16.8505618207251 9.466118586211516
Ga 14.481019610109426 6.371011429695696 13.818513856316056
Ga 18.581486191985704 12.813963339621152 9.317139826128646
Ga 14.073038664418917 15.370536672292962 16.839486038589317
Ga 12.641235979702305 10.640177049522544 12.143206063849611
Ga 12.57268917491415 14.254899454925454 10.774222991184876
