37
Energy = -94.11988044 eV
Ga 20.88457860336175 15.383260522278427 15.963715147785193
Ga 15.168846739315772 16.08761546384061 19.585479027237756
Ga 18.360781433836795 15.00956692067825 14.215990338416677
Ga 0.13937942847591142 13.989525719789727 14.500626630069647
Ga 16.538818455007704 13.57799122234209 15.244641399375194
Ga 14.758985101683932 11.634249874648692 14.77700683543404
Ga 12.914706348482024 16.549504078672783 16.360637920532564
Ga 16.83903788004997 -3.13704739357479 11.424370259189596
Ga 20.642520589239634 15.07193869270504 13.107793945207552
Ga 13.099766939201366 17.4440560144845 13.9291419729405
Ga -3.6388258580606108 15.861023778111857 11.006403030007819
Ga 17.53854072372985 17.411423976852884 15.806598469202285
Ga 15.437271712192336 -3.7605780399355466 13.616714233519193
Ga 10.793629200265407 16.696681646654973 -1.3524365010684127
Ga 15.021887656964061 18.41740479629646 16.093898609192117
Ga 0.6582193905124879 15.904455045335666 12.572665477998711
Ga 12.880255821690152 15.041652026063922 20.80330592012959
Ga 13.604491413720787 17.694900252068564 -1.6039505092104787
Ga 13.858331053560399 18.32905174764744 18.400914423213578
Ga 21.364572336298167 17.49532556376974 12.000753974885338
Ga 13.692601359757626 14.272738337297083 15.066534721315675
Ga 16.80789534436643 17.887525945802746 18.35204658262529
Ga 15.157191140251332 12.617891700856074 17.364600015654876
Ga 11.493120381938935 18.948263300486314 19.81471113613383
Ga 18.57849488974734 15.216189668866846 17.056630768356424
Ga 17.03043782401015 14.181706106319094 18.827084480377323
Ga 19.833261887605772 17.657598448529736 14.530395903125601
Ga 15.481125430254897 15.99851694561469 14.169793281045687
Ga 15.514527614893302 15.62677851232353 16.967724684125287
Ga 12.974103745851522 14.287000051627803 17.97841569237712
Ga 12.59690691167871 12.117664975414458 16.389818754631932
Ga 14.80361400824522 13.387629483295601 19.9726287394229
Ga 19.331162699619938 18.995517754642908 12.176904052620198
Ga 11.646228752185225 16.448488650557938 18.69145377908996
Ga -0.284239462306456 17.139784761518577 14.764082153993147
Ga 18.00147136960093 19.807417714096264 14.497888020463922
Ga 17.377723257147192 17.1089193621202 12.72085707403876
