32
Energy = -82.12119005 eV
Ga 10.534793461908082 13.378508545578608 12.328063413457485
Ga 16.997122995860526 12.209747545352746 9.617924500009455
Ga 16.690141270684446 13.094063534331585 12.21424191711833
Ga 13.967574665752386 10.213252048215857 15.700509313983606
Ga 9.34949579656825 15.180725830839295 14.082357783894599
Ga 10.336631816132032 10.835434407924282 12.532031849948025
Ga 12.194833958144812 12.305751597527783 14.476034723029281
Ga 14.021560142425216 16.202383607913525 11.214769105648157
Ga 15.277681859128686 15.475712661067647 13.343031794467677
Ga 13.458424968238123 13.544040342598475 12.371926427565118
Ga 9.418401088530544 11.795065331755731 14.877948687891235
Ga 13.660162834579008 10.785333591997723 18.33117844440242
Ga 12.1179755719715 15.177424026115013 14.422448543603133
Ga 11.379961149626267 9.314651346427684 14.510789105629659
Ga 14.894773425851545 12.03200548829822 14.03725888929334
Ga 15.916259444063694 14.708832668216592 10.126348362013758
Ga 12.30714318665356 11.404474735238727 10.888733595234033
Ga 14.140261166212255 12.746099154359964 9.473777708988303
Ga 13.97989230907087 15.465848744387817 8.397506983975001
Ga 15.141698278588935 11.070595566851155 11.305337469759356
Ga 13.784579044074588 9.728144346574734 13.100724714002926
Ga 11.854488474071092 8.765947008246512 11.52231148939803
Ga 10.408981083752183 13.90236651857289 16.283013576369488
Ga 14.259085192605424 14.497157019122758 15.592165363319353
Ga 11.832044255142069 16.90561832876629 9.31906216526428
Ga 12.694690208085564 13.28722967311304 17.32688080163386
Ga 12.303373530830184 18.301429131625124 11.563861400333032
Ga 16.922723285925017 13.718237327766333 14.808191136028695
Ga 11.294616451208585 10.92303396175753 16.77907305065209
Ga 15.486581492794684 12.377081884586486 16.80063322144409
Ga 11.106133630233126 16.015039891345715 12.120235207338814
Ga 11.956977863432222 14.262365425321205 10.05651576278152
