37
Energy = -90.33815464 eV
Ga 15.334927681870761 18.840528191314696 13.405633526309655
Ga 14.340498637992477 15.56316362005826 19.1596618045484
Ga 21.39583398872169 16.542914425766536 20.269650441838266
Ga 16.469697954878974 16.00607783208078 17.654373525977842
Ga 16.81334187137003 17.73352716913201 19.687853201578932
Ga 22.522421998611836 18.053376659309816 18.338020567370176
Ga 15.747450008219204 -2.7839933172553777 9.270315574013372
Ga 16.855738486301874 14.6985280384681 -3.387232344478271
Ga 13.600562827794452 14.489775270633722 12.354262789049066
Ga 15.000490436397472 13.28901134853491 14.40458679947317
Ga 16.778871709514593 16.868773182850095 -1.3808177520214437
Ga 21.28802045054444 15.323439289776276 17.767593926876035
Ga 16.849344404122565 19.97944251282643 15.36680585040051
Ga 14.689878414157377 17.056585594195354 0.1299242440918925
Ga 13.172104007993788 12.21424839072978 16.114495183715068
Ga 18.870120926263695 15.083150517983258 18.868894594212254
Ga 17.024693064444083 14.533073208421666 15.332818877315407
Ga 12.33147192058257 14.807662935558392 20.630651977553203
Ga 17.820799072384016 18.607629205327147 17.217890107513814
Ga 19.077932795680248 15.656483516431223 16.22210846116683
Ga 11.330538999774356 10.638992573755235 14.965608309663029
Ga 20.738220601304597 17.757210435642133 16.42151454537327
Ga 15.764243432902969 21.718563833850634 13.23684735124219
Ga 18.103003606081632 20.154796468686126 12.877938823176303
Ga 16.64251930403305 18.979591325712562 10.920534197753518
Ga 16.50172901136464 17.245315631677897 15.19200509421446
Ga 12.812465527261631 12.246606932603603 13.402463063610064
Ga 19.161458580420536 18.217157976853763 14.459220644325166
Ga 12.59966332598326 15.44381738733209 -0.4621809148864844
Ga 17.349397417247705 -1.6738044105419807 11.13476975924283
Ga 15.819841995301525 15.603541500348639 13.071803044050878
Ga 17.75901201600055 17.22366179522829 12.544809416283409
Ga 19.649961027974538 17.95506143641882 18.905330723736682
Ga 19.05017697071729 16.49265304071413 -2.4892402740541
Ga 14.834203530654236 15.110774815323856 21.816250602743132
Ga 14.293274556896275 20.378503411527948 11.503001520122883
Ga 14.742019273700217 13.971643523238686 17.002499354938276
