32
Energy = -81.99896778 eV
Ga 14.25461379783191 12.38549164763332 10.430578039589834
Ga 14.2062561278382 15.641894862533695 11.642750525737794
Ga 11.711906978290493 8.888739754008688 12.43800940583429
Ga 15.927111377323017 13.499573502443193 11.969981124819995
Ga 13.190572705132872 13.79409489307695 13.4873369397232
Ga 13.76934622761838 11.963935485966438 15.414212096498723
Ga 11.977695190750072 7.93328014414813 9.724686434038263
Ga 9.248956265387985 10.87304531098632 12.504893604865396
Ga 11.454909184705205 10.589557637052051 14.330847655000728
Ga 11.282236529319615 12.69530103684454 16.072369095818367
Ga 15.819249485750268 13.893252171478178 15.381353281044948
Ga 16.305382800952046 10.559351637144783 11.409599108194056
Ga 11.892965057911697 11.751094819482589 9.015883397690306
Ga 16.10101879285177 11.661231098731347 13.989105501681662
Ga 11.639931823330391 12.130666428056495 11.826047516216764
Ga 18.074710436153996 13.512742466662857 13.76675759341059
Ga 12.21811142977682 16.992832267771693 13.133882329827061
Ga 12.576253286006471 14.29878448198707 9.822415374452554
Ga 17.293897155573823 16.225485142137927 15.424473442166835
Ga 13.837176121824522 10.730977184946404 12.956999299589308
Ga 13.280836052513155 14.419325742033804 16.419196017731128
Ga 14.286917789378176 16.299705797016014 14.531087402829135
Ga 8.95497043929025 11.471838463483293 15.256044401466282
Ga 11.088902590221327 15.386447151036766 14.891779132790052
Ga 16.48927911861599 15.86380483238814 12.920588130392346
Ga 12.090060071993618 16.88451589780286 10.34887873468659
Ga 8.893025302456152 14.147851219427839 16.06681523130355
Ga 10.355720717375771 9.961369271333195 10.309034624342187
Ga 10.86189337367355 14.91261540089827 11.87768155740487
Ga 15.13983710366189 16.142894349624363 17.160828422010955
Ga 13.664210911971937 9.813735160551266 10.424928570597126
Ga 9.772398367349597 13.311088854289947 13.45158409168637
