37
Energy = -95.98363288 eV
Ga 5.312126360124129 12.981576167005043 9.493352208240543
Ga 12.371471672587283 13.582888708284132 9.399157266346952
Ga 10.423680510304758 12.78364325840402 11.20236593162131
Ga 7.3112525764209355 9.863871879402895 12.615569831429045
Ga 7.7493538775313136 13.794867589203623 8.82090063692728
Ga 8.099214403672011 14.139146024362963 11.69376733623717
Ga 11.258137486131636 11.258963076048346 13.183617009787008
Ga 8.089649063603664 11.602271931984886 10.436578735779353
Ga 5.711288969485585 7.922170715131459 11.100459583622438
Ga 9.601892456882322 9.0241647954122 14.051818704985187
Ga 6.154229081440978 12.317495229740217 12.272197067392863
Ga 8.379206920041792 7.345685378544287 11.827459150519218
Ga 13.618848395858409 11.92819171136635 11.126480218672949
Ga 11.629949922671898 10.616036341976109 9.56715048834182
Ga 5.4294902745808775 10.391744085134198 10.210665947909497
Ga 9.863873702893336 9.755752199835143 11.357445800250071
Ga 12.915514194970696 12.04581682025134 7.368859928171893
Ga 9.87172673779418 12.28147579994666 8.074170965973066
Ga 7.1122590228402665 11.226267526173794 7.918565574582556
Ga 7.86083213648257 9.021645212005705 9.591969953398303
Ga 11.03968252373296 10.061019980401499 6.772270580439477
Ga 11.00165510976643 7.244297722438199 12.331814136107527
Ga 7.090809943578231 6.185116777186116 9.661893517793269
Ga 10.35293828038673 8.304686351401878 9.15131011339811
Ga 14.29583485112536 10.344225116797432 9.008830285109925
Ga 12.74007714126653 9.405807845983437 11.948192208790799
Ga 8.527141877477698 6.856847568733671 7.488817562860581
Ga 14.37856044353637 7.9884615639617405 10.311337895205456
Ga 12.913802961874719 8.181541105149968 7.86566160148061
Ga 13.659699218837636 9.908695296769622 5.924078771104712
Ga 5.882142920254236 8.529922536465223 7.690835662090975
Ga 13.616337115599729 6.674157600642481 12.56862842864402
Ga 9.70023570267126 5.51468420401951 10.081000811599532
Ga 8.530521169222586 9.385675102701043 6.728104009986537
Ga 11.147872320489636 6.206482772719974 7.543901950636706
Ga 12.238807979147152 6.312626805899137 10.068040558476973
Ga 10.052148491504349 14.944343015305547 9.47499538287645
