36
Energy = -93.08926442 eV
Ga 15.894037846997874 8.934495333937116 15.336866329895603
Ga 14.365685662788074 11.347696291095899 16.647650900130376
Ga 13.350492480823078 9.801307510990654 14.620210801040772
Ga 16.870225072923713 11.552875327405339 15.244900908983574
Ga 15.864866660166186 10.463500255128828 13.0024079220586
Ga 14.51551073487837 7.756387507073533 13.179828478105074
Ga 12.694212509201959 14.775400836244202 14.423296248768777
Ga 12.924326527156992 11.296901676581491 12.297317097334652
Ga 10.51446226745375 13.928113527901772 15.94938244808975
Ga 14.600009021731621 9.540642524454542 10.917083896667734
Ga 12.031098189949981 11.920861658935129 15.441928853170598
Ga 12.043462180305829 8.633881509938023 12.547333502771192
Ga 14.63124097355846 12.798391321083283 14.241855838187902
Ga 15.593938564484276 12.352595164346102 11.151606945892478
Ga 13.558844507007436 6.974196585094633 10.612517857232174
Ga 10.234482633081061 16.384168947701134 14.86243264891735
Ga 14.64011605526268 14.351290950496534 9.451902773022683
Ga 13.361367266741356 11.768037383763149 9.537561439618335
Ga 12.197106625283455 9.142600713292055 9.732230400004354
Ga 11.11548220135573 13.178031123123969 12.774652732620766
Ga 13.69336939044967 14.189627927486486 12.040795085232771
Ga 10.38589417754851 10.633493166739447 13.794668763470723
Ga 8.838261607011962 14.278127594407682 13.595251261552988
Ga 11.457804477318913 15.921608307871821 12.21643444393122
Ga 11.889183375233662 14.315664182653506 9.96930798044376
Ga 9.783862536754773 9.199782230242475 11.394559842520861
Ga 8.559575249937238 11.843391562166286 12.28464903154414
Ga 11.132529468665007 10.69455648640031 7.931149065089709
Ga 10.703428634930605 11.823045498407607 10.408528871059048
Ga 6.731576526848253 14.08752981635704 12.00566148424338
Ga 12.472697490514035 13.160172898523134 7.309914517889472
Ga 9.391895516450186 14.819692104962444 10.883484904710507
Ga 8.378933885205546 10.451810334413265 9.67573722698771
Ga 7.715681960309819 13.037895862747291 9.748126078099592
Ga 9.92384863029441 13.725486162387877 8.256518027058235
Ga 8.671114930935053 11.538947791923196 7.201089729831938
