36
Energy = -93.84814856 eV
Ga 10.789624868986122 16.777244708858365 14.219785984220685
Ga 14.111350871602726 14.058326567670441 9.000616032845889
Ga 12.777914180763135 11.110475320135732 16.560455083714526
Ga 14.988457775988714 11.407532813318516 9.912809077028301
Ga 13.056876467681102 15.513729402288803 14.854804617980955
Ga 11.617502953241654 14.309810008048787 9.837609717237248
Ga 17.950371019422924 11.392884979748986 13.65204980473584
Ga 15.380801609202397 15.938226093431966 13.517640878885455
Ga 9.745236158620385 12.52230992844867 8.851896815751264
Ga 13.197624118043954 13.870753205231747 16.975684587333042
Ga 13.186865612526995 15.709915087510709 11.55380196205466
Ga 13.65334130087024 12.694702522906184 14.370199241004398
Ga 9.066951952775947 14.61916052682596 14.098514192087732
Ga 16.74523546383348 13.365267993176584 8.750010133048871
Ga 15.611557052674243 10.967198301154603 15.32036897453772
Ga 12.427201670222471 11.497046294321212 9.10529914359095
Ga 11.028895322976888 12.847847741850497 18.26202077822257
Ga 17.74777981558937 12.591507784098903 16.13159461618464
Ga 10.867512373357238 11.70179476414218 11.32826981956814
Ga 13.39081057673768 17.757529182668844 13.241533622425035
Ga 13.706057592545434 9.233379128777129 14.412027495707202
Ga 17.382015793354316 12.152597073814384 11.166534800950865
Ga 15.522067860293644 14.33384465975212 15.885687652111963
Ga 15.788622836791758 14.680689001585284 11.14495015935838
Ga 10.359153324677337 16.358813777418735 11.602092906541683
Ga 11.507969673117834 10.750157320053551 13.89900012742252
Ga 13.035736873557306 10.100009968190461 11.588167451649534
Ga 10.720780490146687 15.236269586607932 16.568796304708794
Ga 10.650217509419676 12.695386384382052 15.602369567317785
Ga 15.41433267215653 10.778541331328176 12.603026449294317
Ga 16.208640632330592 13.386989849423577 13.486413597582636
Ga 9.12727588960478 13.844988115256129 11.29177538128908
Ga 15.30028950276226 12.135159142294786 17.76090175030525
Ga 13.615982170187062 12.963914777412677 11.677105546457478
Ga 9.167876727502106 11.95098353451101 13.444951663730022
Ga 11.492211808549406 13.88900322966985 13.113167173051405
