34
Energy = -87.16407411 eV
Ga 12.866534871845387 11.416160217514252 7.9451581169680825
Ga 14.830930794104766 13.523055030841393 8.787852772593823
Ga 15.490625446970391 11.111250018047322 7.387980461466765
Ga 10.59740668720395 10.872474235891223 8.91240998488103
Ga 14.14604378831141 8.917392506046568 8.531680968965764
Ga 13.860758711647412 16.04805925879364 8.12797872863668
Ga 8.261970640249084 10.350691214323524 9.798181111556385
Ga 15.158265914621307 11.150917791071672 10.011023328708134
Ga 12.058681974844726 13.912554249144232 8.491000752660632
Ga 12.621948348962018 12.307735246312474 10.660521251053645
Ga 9.970797213383515 9.087807938359845 11.822060329239832
Ga 12.509268402541522 9.555852020589565 10.574080285824213
Ga 14.899040320696617 13.343892738170542 11.725209665296948
Ga 13.301626379115811 15.48431577157982 10.640126469077424
Ga 9.735418231666532 13.738513640935778 9.65701947907251
Ga 5.73861168542788 11.222655842815788 10.237063020977914
Ga 9.870874168694002 11.911515625084661 11.634101395512472
Ga 11.490235255040666 14.231059306684694 12.112362595323678
Ga 7.2035202241787015 10.838701361557968 12.453843720030505
Ga 7.486548488187694 13.218623719008573 10.819015791690628
Ga 11.89708306954568 10.937862087983525 12.966098940630024
Ga 14.551160271510826 10.524784472683292 12.391820470874752
Ga 13.926600622887413 15.261223444871469 13.450350331139653
Ga 12.850118717332768 7.9340575987616235 12.784236824279018
Ga 8.27467351525592 13.433016526842529 13.481506220212053
Ga 10.824745666168436 13.241963579703901 14.37329170639759
Ga 9.16669306006854 10.681101917788835 14.137770167948803
Ga 13.410298345392754 12.799139883701514 14.343437641780483
Ga 16.062979108060212 12.190543094814812 14.128798485576782
Ga 10.889781393321417 8.765658114106664 14.499303937256126
Ga 8.842059434650473 12.592297545430895 16.13922839965946
Ga 13.922692537381183 10.21004027214841 14.920229514113714
Ga 11.281870758725294 11.144563656676523 16.03378960927527
Ga 12.579145013479671 8.61952913318614 16.60047658279175
