37
Energy = -96.25478612 eV
Ga 9.990520499417993 11.27950280809736 13.954638708091196
Ga 6.623126294055398 7.784208527549735 13.829047914624276
Ga 7.443423741517098 10.312663878571447 14.28764541925778
Ga 12.069074440101211 8.895656964950119 13.582722181423554
Ga 8.485957890072054 6.715808438538162 11.16745777502854
Ga 12.544474125817858 11.927183667039005 12.818862272668781
Ga 6.978402572916526 9.356012910748237 11.630501009810905
Ga 6.726566695046584 5.624205154577521 9.289625806166766
Ga 12.519527806974006 12.225438106436812 10.06467961406431
Ga 11.07645394076584 7.419649192275941 11.501734146965873
Ga 13.192169211314217 9.7286756299646 11.102119264786827
Ga 8.152845487714375 11.7882769827738 11.796971689768606
Ga 9.289498139891567 8.483929795766748 13.178107342567342
Ga 10.43554445529573 13.183311652460509 11.658153276841333
Ga 5.709567790012019 6.521774775665192 11.576762153176576
Ga 10.52306320914993 10.323775515655488 11.42853921123804
Ga 9.446227849700923 11.555072116819776 8.899375227535204
Ga 14.131510048768714 10.32063683032053 8.473952593421712
Ga 10.44290316801609 6.633091002909804 9.006900767936987
Ga 6.1660894389261784 8.324131293585946 9.25918737575934
Ga 11.408760232168216 9.528757666800088 8.831297433399662
Ga 13.270212081276782 7.313923627579255 9.872206189899664
Ga 7.77487500739073 13.693859400535542 9.869450077536923
Ga 6.408135346596413 11.067496355155859 9.595448120214929
Ga 7.566179751481389 9.75394514041764 7.367288540832059
Ga 10.466011617209373 14.101147254242724 9.134601022631873
Ga 12.903137652141346 7.698205049956448 7.23719336050988
Ga 8.061139050720266 6.875249715109333 7.353890650326412
Ga 10.7438445021981 5.5986616098716695 6.554492026912517
Ga 7.164847574155062 12.47390209396291 7.278662770216059
Ga 8.138051835304736 8.418485610829393 5.049312824159986
Ga 10.37457146520882 8.276698678617217 6.505718762390919
Ga 12.128955012532627 12.383702452512129 7.527809395639418
Ga 12.296078633652602 10.196163745362142 6.096798053037179
Ga 9.591231387624758 10.76198686321038 5.840921735804096
Ga 9.707118131850772 13.35377241541177 6.56726521937581
Ga 8.894930539430636 8.946063702136078 9.655686692395077
