33
Energy = -84.35400174 eV
Ga 13.681233222124364 11.82389644953683 13.603169603421387
Ga 15.991624637387174 13.171401191724817 12.984128383108512
Ga 14.808155795153954 16.985933073147674 12.17137645472251
Ga 12.846502346168753 15.045193101099255 9.944715921122663
Ga 11.298838744683176 10.5787486146585 12.181048581800008
Ga 10.988697533136758 12.893835856396057 14.141879320945055
Ga 12.21054594014103 10.248527488657595 15.223704125631013
Ga 11.696287238981231 15.170474156644739 15.091114935342066
Ga 9.294834665785418 12.6225569892534 11.879980005472506
Ga 12.439052997159255 17.371045667529483 13.45827281859542
Ga 9.750075013485992 8.878289478796498 15.824344747638762
Ga 12.117919066894808 17.581993100268924 16.390948927393854
Ga 9.238339969443853 10.862893807913652 14.015751914884857
Ga 13.532148387516187 14.663438972515122 12.781611269819752
Ga 18.06578964435853 14.534916341466236 9.341922362319503
Ga 10.806888691184453 15.405626891979976 12.570398623908668
Ga 17.790459526642547 15.231029354367921 11.915892969612008
Ga 13.648926868668022 9.17690175176529 13.115998514150077
Ga 14.54342041673903 13.782306641388908 15.25503077697402
Ga 17.074714558611557 12.373904760758771 10.65027702210408
Ga 11.879149068673643 12.884392542921454 11.22327780641461
Ga 12.06698581127897 7.986221947739332 11.009344535768397
Ga 9.949057423157363 14.79213469823468 10.120333313746546
Ga 13.273307137770402 10.262860512216893 10.355179467418555
Ga 15.467922393415641 15.06056523015005 10.442489944217213
Ga 12.387082494041614 12.638428161567887 16.503336289681226
Ga 10.921799801012607 8.24799225168649 13.501383069719683
Ga 13.121325210654692 15.042710134068729 17.313190661611717
Ga 15.65952269403129 10.570649863765603 11.928648755341479
Ga 16.32923966702445 15.61242856139475 14.021981761104643
Ga 14.359668621824648 12.634786794272996 10.432332596836941
Ga 10.04942222540149 11.428148247529133 16.770534801412175
Ga 14.434480927666158 16.57513473293802 15.37780016036349
