38
Energy = -99.06872322 eV
Ga 7.759728612120555 13.407139734743108 13.919813628960915
Ga 9.995988449775414 13.102098479770946 12.314761017939352
Ga 12.13799150947775 13.137133146429383 10.849594559947127
Ga 7.5293690793089745 13.519590415247492 11.196148452648565
Ga 9.962414497366488 11.533740946043437 14.595644076588105
Ga 14.328349400902756 12.355657655981101 9.44570896949998
Ga 7.4425720063745 10.984460494567239 15.399665341277768
Ga 12.409198696312325 12.113491019324066 13.418839948126587
Ga 9.632887723324512 13.160288534522548 9.588602385887002
Ga 14.93227402847398 12.318302234345312 12.165795794035617
Ga 12.006929706169462 12.921007120189737 8.12614430150304
Ga 9.181235450323895 10.763607648899525 10.906287854026438
Ga 11.112932238082328 9.872607741327213 12.66512515840528
Ga 7.03972145444954 13.691800995638289 8.459953822574708
Ga 12.624554189286624 10.493251677936923 10.521135874520118
Ga 8.659738845754323 9.157624557790923 13.48494531940691
Ga 14.127790438221515 9.763669541770367 12.771120217818957
Ga 6.914512290457103 11.182843173090808 12.615329585470503
Ga 9.581129705207893 13.873097254099402 6.951896582761528
Ga 6.641996258989245 11.114793979119451 9.74406622275335
Ga 10.505903305311259 8.5162503973844 10.210346008421084
Ga 15.401513369037907 9.933011780277875 10.220864859348325
Ga 10.711126323512568 10.498912071661685 8.476423960628356
Ga 8.208907337073526 11.411425916720631 7.465510425862133
Ga 10.56154439986894 11.499695956971278 5.936502538633904
Ga 6.8051351976674015 8.877256126789478 11.22960430205651
Ga 13.466313219261409 8.066388470561522 9.488767745444381
Ga 13.526510174900244 10.445092098414996 7.548477069592817
Ga 10.192003372614122 7.046173470101305 12.462370530087236
Ga 12.78738136816991 7.630894944311061 12.067257737260165
Ga 7.375549071406395 6.7600531963259005 13.035999035971104
Ga 8.07785659318509 9.018236793617126 8.772770001031766
Ga 11.50469106760694 5.90886656998984 10.048771332888313
Ga 9.04810738391715 8.940949926584524 6.192273490796531
Ga 11.576857687519649 7.975986957120139 7.589644018652543
Ga 8.324247621413555 6.594261032887459 10.493600837202397
Ga 12.174360961608917 9.42422003638546 5.389747750385161
Ga 9.285708597842982 6.672278845434824 7.99976458924358
