33
Energy = -85.29045264 eV
Ga 15.240032282668869 13.338126058703446 15.278927610796805
Ga 16.308385238167293 10.105383620046936 14.555372864224852
Ga 12.553265249443093 13.5447724082296 14.58882897336715
Ga 14.352952289263218 14.41230494128222 12.694311955443283
Ga 15.560929698233924 12.048898778749413 12.836912613079951
Ga 14.289196036574998 9.367334749209354 12.686042264016113
Ga 13.691339465324647 10.937913835508084 14.9216153775382
Ga 11.787076937139512 9.952245291626438 9.638925883495277
Ga 13.943116666610138 8.256492411496575 10.076130867475575
Ga 16.69022000526084 10.052989950243349 11.259511583974183
Ga 13.294859743423851 16.21639269360886 10.88723645505696
Ga 10.999998245676588 11.944429780974282 16.12527117683349
Ga 16.072346792505392 13.058119524458096 10.371310663234595
Ga 12.63694632203394 11.705321848535943 12.441384205632762
Ga 11.925574982553385 8.366292067043874 12.128125012821599
Ga 14.188833296497618 10.990077826431932 10.186538394330276
Ga 11.347379905228497 9.849788349591375 14.394422112930155
Ga 13.479754738513776 13.515590905384316 10.033193447458949
Ga 11.576958202982734 14.613726486570679 12.264289598569256
Ga 9.353884796727264 8.214445804817302 13.492151759721482
Ga 10.142246667253206 10.39968963578942 11.973387855699318
Ga 11.444360672214856 14.870987882558637 9.227053266274925
Ga 10.995509014815303 12.439797449872989 10.462366385639376
Ga 10.119449552600257 12.721947990309115 13.520540193147054
Ga 10.471976450553836 16.94553795090608 10.984129905650743
Ga 9.836520984114717 7.94298896897281 10.333817826384731
Ga 9.046025014954676 14.627302553393298 11.359840295194903
Ga 9.083234673485448 16.036628625577475 8.569450890691177
Ga 9.140904963300427 10.599150993661079 9.333363211277605
Ga 9.018886878950923 13.252186583092005 8.812369496324598
Ga 8.262506374843706 10.842334033012797 14.150693189598343
Ga 8.06417826844755 12.150731941810585 11.55565601005959
Ga 7.581530120032364 9.443635571789269 11.473249137076214
