34
Energy = -86.52261006 eV
Ga 14.485949408933383 14.697818627953229 9.393928185920995
Ga 13.32000575007872 17.25166883009217 8.535323499249742
Ga 11.28151843413863 16.610107704789936 10.449278646167487
Ga 13.959699220436082 13.660953758687661 6.886138296597838
Ga 16.295754263963175 7.513699079237417 13.094011962531976
Ga 15.850292716522672 9.251788377715823 15.256354826737168
Ga 12.421863319813317 13.844210014271004 10.883471220542043
Ga 14.742112812938018 9.692615087551674 12.847222144920746
Ga 11.76609623985482 15.06643703113634 8.315350831064846
Ga 13.931216820807675 16.53221340949689 11.152401500096909
Ga 13.568094638952303 7.031368882038532 13.152525179108364
Ga 14.497183809239798 7.074517402665186 10.451882893194336
Ga 14.562829903973897 9.70177886843053 10.182858414572687
Ga 12.985704429466443 15.567948223748777 13.271812042484235
Ga 13.493092798718862 8.032911950432155 15.538767405621623
Ga 11.82830047739711 12.507120578473776 8.161162831311685
Ga 13.709891039495064 10.960788152877056 15.09665371521297
Ga 10.300384113540305 15.124896475877103 12.356610285949634
Ga 11.691129377022216 12.212962063028009 16.159182690575367
Ga 14.264119377503881 12.06759949274334 9.242250249425123
Ga 12.81608710240386 11.224975822535653 11.788632461972256
Ga 12.254440540170254 12.942167861989525 13.655068894147703
Ga 9.9335363461043 10.69298902154617 14.362341769703422
Ga 10.027678364340618 13.985228023108178 17.16572878239744
Ga 11.768537004427518 15.013695786751908 15.44957446238624
Ga 10.865099217970474 10.881098160936366 9.899009189481191
Ga 9.571667842188164 13.919490664875855 9.698579233699846
Ga 12.182264461463483 8.452414317475693 11.142306568841748
Ga 11.951921555528656 9.226518682586327 13.70858316904607
Ga 9.6936375380929 9.511813756493567 11.815709467056013
Ga 10.023587231407172 12.39699432918166 11.945065357269488
Ga 9.394653443275127 13.151373440830882 14.442692129671075
Ga 7.541002463069306 14.532445290221316 16.177723253805453
Ga 9.237194888219003 15.853772110989233 14.641163474663877
