35
Energy = -90.0927885 eV
Ga 11.535534757623708 19.391704924944545 13.446592144348164
Ga 11.249900985410033 15.993092118631099 16.01339089043662
Ga 17.560279903596197 15.987913756176043 14.925399022040981
Ga 15.816719995802327 15.997052227841392 12.044847242569936
Ga 12.95197983843532 12.158279330631961 14.734007924649577
Ga 12.575120947343633 10.78963080582663 17.368174969519572
Ga 16.28579089676126 14.226332968219806 10.170512057384494
Ga 17.33522343433499 14.022179337617647 12.981909995032186
Ga 15.477559650101929 17.449420843713188 16.239197549438394
Ga 10.877809325274496 18.644991993753703 15.966671548701266
Ga 15.260614464320057 10.795795931571917 15.84768178061807
Ga 10.649765288874704 16.77141182912612 13.284735093581581
Ga 13.186896567687153 17.669888199335066 14.623033624871992
Ga 13.062180549393938 9.336144757435273 15.00777259654585
Ga 11.973580387487946 12.440748637554583 11.903500249686834
Ga 16.25589609037541 13.364948627686156 15.366538944236943
Ga 14.38483366228963 12.291411432462755 10.702577931831817
Ga 11.7524749058027 14.376778261419455 13.928578999119328
Ga 15.623928765542079 8.727232067441875 13.939033534776271
Ga 16.416300696500823 11.636169906402959 8.92234945065147
Ga 14.525405013757434 13.650620241110916 12.960605413296788
Ga 14.280909909262489 12.919549578814449 17.246249247962183
Ga 14.10926533044571 15.209365863597583 15.227470178814766
Ga 13.253886044173449 15.243161548382783 17.958825106358756
Ga 16.069234986784963 15.093416606789418 17.407710884776805
Ga 17.60049999547495 12.059955908823497 11.316690904479534
Ga 15.118592878679385 17.0380578608852 19.117693528945825
Ga 13.626178555187701 18.604021174291827 11.889444131569462
Ga 11.504008056315213 13.411469210629802 16.822218759749685
Ga 13.761303751930898 10.538126329811861 12.74518311655956
Ga 15.93872632323822 9.80033416929308 11.158367807022417
Ga 13.13151640645225 16.00947882423186 12.281376697569824
Ga 13.055540338655188 17.97520548563673 17.436063977370043
Ga 16.41013420051012 11.33382012377278 13.526569470585383
Ga 15.638731437487266 18.072067951659225 13.696793150931033
