36
Energy = -91.71084899 eV
Ga 10.907007054014777 14.797872308691574 8.394179426277674
Ga 16.242064934226292 18.457758146232123 15.838507238486043
Ga 9.991029239054711 11.686446430160728 12.754671430168735
Ga 14.246018803216995 7.398320445765516 15.91590001905675
Ga 10.339924391133339 16.624081256582162 13.553551356004617
Ga 14.05410296187141 17.268450086742945 16.846298884971702
Ga 9.931367942261943 12.337759689401468 8.290193608859509
Ga 12.954150320266725 9.988237063525533 15.189083258268834
Ga 10.613864387123737 11.255815589313722 15.225982400303197
Ga 15.916083879075897 13.749499483240298 15.866664867044353
Ga 8.73278670899897 12.982529187505843 10.634259790586636
Ga 12.9053044675291 12.396623311615132 13.423106509950545
Ga 13.505193175794133 12.161315697696603 16.395011209138577
Ga 13.955273945124361 11.958002294747667 10.568554122984324
Ga 15.648524338168428 9.360124497527451 14.720730755732577
Ga 13.429855530236868 7.9529759508156195 13.40664012852084
Ga 14.775582619667595 10.199317831821563 12.251939807585211
Ga 15.103186958254078 13.965134844166851 12.35121551752448
Ga 12.098178715329068 16.41869028329446 15.326023695197335
Ga 12.680163004512538 15.154251928813368 12.88626393849608
Ga 17.23923638155493 16.602281474649608 14.28198251434572
Ga 13.13444670196692 13.29040686553818 8.489231957287414
Ga 14.768907367618912 15.998849413240585 14.372443257331232
Ga 13.599668451151 14.665973937527157 16.91785345959289
Ga 17.401456930799664 14.012614331371054 13.619919845690594
Ga 18.586437100771946 14.831856370480867 16.05817791269876
Ga 13.740112521994376 15.216861121917676 10.28127324746562
Ga 10.792163828422225 10.807875459844185 10.305053631974829
Ga 12.306519096121413 10.814880381494602 7.997656858697761
Ga 15.469520063955805 11.887347330103221 14.251997332042489
Ga 12.012976387927454 9.900415726900462 12.461989015903946
Ga 16.36953355791585 15.893102041610538 17.18986912131199
Ga 11.58619010722423 13.33630633020023 10.880334724370229
Ga 9.552639407770204 14.349643540071488 12.745208392936645
Ga 11.278273500736915 13.853737636142156 15.003113594917274
Ga 11.026556944102364 16.051190777712364 10.842967462807112
