39
Energy = -101.90700311 eV
Ga 7.8639590470238625 15.642141431657032 11.201766899348344
Ga 12.615799431309165 14.810788061876668 9.974646678159443
Ga 11.033954888183974 14.395765625092872 7.716254763691337
Ga 10.468967097865587 14.493424137348406 11.594118451826779
Ga 9.00614550151112 13.774678775129342 9.319164058102618
Ga 14.372861078292607 12.80257288202546 10.005817803618571
Ga 8.328200623728332 13.897145483516077 13.332752588133085
Ga 12.8596750120201 13.131973775397096 12.368605444754952
Ga 12.856167065893487 12.434718677650121 7.558699636691759
Ga 6.673472723529748 13.209496884632374 10.795780273758986
Ga 11.42423568497765 12.216055986312462 10.015151385702032
Ga 10.627433390940187 12.623516580718197 13.822122329431732
Ga 10.060219913187437 11.691690073615783 7.591696075521256
Ga 9.155341245668854 11.85543271562392 11.463376199138901
Ga 16.132495079217335 10.683310053741312 10.304700430360196
Ga 14.450832140453599 11.028715657876159 12.416146515589169
Ga 5.033372575643184 11.072900953813196 9.791067136346138
Ga 12.706915381838495 11.262306279264715 14.592491196305492
Ga 14.881348559719356 10.702301035228118 7.827771123964417
Ga 14.671468580934638 9.21215802133092 14.483810965178721
Ga 7.646943512194335 11.441302388014163 8.926814181439589
Ga 11.58620499593165 10.241454641622246 12.231308925444301
Ga 7.955004299110658 11.28712349152513 14.134665450964633
Ga 16.209363712210102 8.765312027252687 12.288161066749678
Ga 6.658995920968864 10.613709281120535 11.920641744973071
Ga 13.292114174738222 10.09042586748831 10.013280526930458
Ga 10.117865343264453 9.81177963994343 14.620313486785623
Ga 11.995918018726861 9.668285990661829 7.574156943273563
Ga 10.121929265027672 9.657120289527256 9.78858258621628
Ga 12.212240764257105 8.265839455179924 14.64255487866097
Ga 8.714651440244632 9.454752119390946 7.356898983009021
Ga 13.484250589161872 8.178118268234087 12.043836770803981
Ga 8.902606648693725 9.109270280468504 12.20400156265291
Ga 7.3309610428764 8.831955623797793 9.850682404712337
Ga 10.816838701698732 7.319908527310384 12.563257002991271
Ga 12.153803906359292 7.594988050197174 9.865139620420372
Ga 10.59867649258064 7.392470923516759 7.69700221883733
Ga 9.410480704204499 6.88887292941872 10.361820468660582
Ga 7.93605450940627 6.836879479210094 8.002665833375112
