32
Energy = -81.72291048 eV
Ga 16.661929248136673 7.169872075278908 12.029564386416954
Ga 15.336670584096698 9.533764009357421 12.871326305852952
Ga 12.807683998752843 9.332474329521755 13.749972520715772
Ga 15.94629705069034 8.896514761891774 10.1833588725238
Ga 14.970581080668437 11.353976893048769 9.947844064531687
Ga 13.913961687429614 7.086750702739983 12.078256241519826
Ga 14.195330918461666 11.836411100778664 12.804881620436925
Ga 13.425573190118113 13.387127524999897 10.747376720685345
Ga 13.197574404614738 9.390628777833818 10.818871651276906
Ga 13.881391737111024 13.113476267563549 7.868056319152784
Ga 11.619379103645048 11.476398912688335 11.991634100643543
Ga 12.231041226956744 11.200231827823144 9.30891350268621
Ga 12.224006120563963 11.824572308720798 14.69958989180988
Ga 12.429581207918327 15.375597327377628 9.132519452116354
Ga 11.07901643931693 13.232649216183164 8.006810511835447
Ga 10.084135382779497 13.054048341486753 13.826535829885875
Ga 10.723779093660182 7.955808449151652 14.713638756043883
Ga 10.072929953701488 10.794836711087228 7.778097590900771
Ga 9.817345700390588 15.719170193536103 13.613484854390773
Ga 7.716778743558934 11.912466465594127 12.545228337671153
Ga 11.416619682447168 7.589121435670862 11.87146125235306
Ga 9.857452984284992 10.361950247522293 13.840991612592136
Ga 9.671686280146224 15.271567431540463 9.442309652249056
Ga 10.316969479063841 9.370019570511342 10.179333544411067
Ga 7.403221009420258 14.018474034032991 14.12530361774995
Ga 11.176569027719431 14.355649544636556 11.595016301595138
Ga 8.943050968638662 7.873754518281996 12.676123964522665
Ga 8.272671403904912 13.269891154206944 8.170819013362918
Ga 8.342259744615511 14.385707083371706 11.595860141955793
Ga 7.781222723529697 9.688734504281443 11.276792976864153
Ga 9.647748492298538 12.260572106583394 10.377308587344848
Ga 7.720147424072657 10.729429794240053 9.010737911955404
