34
Energy = -86.87195678 eV
Ga 12.798306926013394 15.662374439022821 15.146792337304392
Ga 12.318028132843821 12.986014256763031 15.529412868328142
Ga 15.45198634282604 15.76573563742246 14.91000789217107
Ga 14.76239709673489 11.63021115510006 14.677715053099334
Ga 15.332064284869368 16.144894796204987 12.238902992279732
Ga 15.90628565922461 9.931970174315529 10.54705010967011
Ga 14.07963056250268 13.915127892009398 13.359284426255156
Ga 10.1320784772532 11.933783784659651 14.312905542556038
Ga 10.935222767410842 10.924701661396655 16.800143658180225
Ga 13.80277965865216 9.592228881211676 12.504735676657166
Ga 12.57107408297152 9.97237828808453 14.907888802725251
Ga 11.015936185425124 14.427269075161245 13.472927098620394
Ga 12.682222204490872 16.358756604489574 12.39493590997881
Ga 15.113451917669144 12.034557275421806 11.882300385058358
Ga 15.714001702666557 14.27529337058466 10.403873367606415
Ga 12.872873838227594 11.208795973303427 10.26957187208442
Ga 12.308571221684216 11.9999074066138 12.73583915943586
Ga 11.029848425362493 9.363579043331383 12.712506586773463
Ga 14.828417833769219 12.448819373535867 8.778237041302289
Ga 13.016818700234584 14.080685943729604 10.636689571834507
Ga 8.525528868854359 13.69954742628436 12.840899140660484
Ga 7.80969247513936 10.997532369051006 13.332181582847674
Ga 10.544829358412198 13.65459319065888 10.918192598773727
Ga 13.527305319313784 8.516945350665996 10.091602356200315
Ga 6.088308482659467 13.284300420018255 11.969331399809665
Ga 9.443581091729765 9.33800977389516 14.966904060451952
Ga 14.825202973799227 9.884551602206477 7.922499544037937
Ga 10.285113411788224 11.611852457579042 9.098589119839462
Ga 10.944104955291019 8.98037372397521 9.733124207619634
Ga 9.072554837512413 10.210843020043502 11.151366424434256
Ga 12.243740551388472 10.895452031777436 7.591609626197342
Ga 8.140822909074904 12.635209635360939 10.263326602316083
Ga 6.252132544618513 10.611964795874083 11.159902686610142
Ga 12.526580638794684 7.987348936515327 7.65477173170335
