38
Energy = -97.65098661 eV
Ga 16.220369279984702 13.414977026113055 19.405222740392865
Ga 15.097254833786048 15.656522899942127 14.855289194576496
Ga 17.249575170932243 -5.089466449109803 -1.630795722361589
Ga 18.228107624551885 16.421378939005567 15.318192458662443
Ga 16.96039600837199 14.643913254283103 16.83189888755329
Ga 12.846525557538 15.984472113606564 16.237443437786546
Ga 11.257571242852574 13.173179395041688 20.00326159238105
Ga 16.06518317587583 18.30866256723832 14.477396491259686
Ga -2.246023236591796 -5.512470377481445 14.436348061289106
Ga 15.571109879278541 -4.785995964039078 19.28993422025516
Ga 13.368993336479484 14.646441155354388 20.840962696860558
Ga 17.687289731563542 19.93757096792023 19.44565821781753
Ga 17.34467164853454 18.371973382518185 17.234316413968493
Ga 18.469206668048113 19.379159022206636 15.045061327744785
Ga 13.033139317617467 17.837951313306696 18.72335683646497
Ga 11.692396688734481 15.590591219476751 18.81815438118161
Ga 19.213436141847087 17.446850356615084 19.420119127286082
Ga 13.728228785385191 12.710807277419608 18.894336307577227
Ga -3.048527895061661 17.715936286044666 16.972437995922192
Ga 16.773545367897256 15.370744803703039 12.991946919707598
Ga 14.523550606817691 13.369787064197489 16.408640611455038
Ga 14.585530961751813 15.478719553787343 18.33801657470825
Ga 18.076327859169577 16.134440163697434 10.715005504517146
Ga 19.67336918459591 15.287034255018689 12.959688329103352
Ga 20.774470047433628 19.613173763725893 -4.1344344012478125
Ga 14.787042334002962 17.747099760154327 16.663087299700113
Ga 19.6425714592227 19.330194321874778 -1.663883357560418
Ga 17.434332153907807 15.743071162715575 19.18103268305463
Ga 18.610025493424768 13.743686754072932 14.870050277836507
Ga 15.45514766606132 16.04536283172232 20.986925301636898
Ga 17.301145835191978 20.217980341512536 12.551775421031564
Ga 18.85640920868999 17.841539021033572 12.715266858484185
Ga 16.20480487029918 17.783862570873644 11.712963086991605
Ga 18.865391890563526 -2.170409099317289 17.291417827876682
Ga 21.116720050863233 20.183527723267286 15.898395576334378
Ga 11.733736767854852 13.511072120243323 17.01668652728537
Ga 20.19902615288349 20.2018884702105 13.172406108123123
Ga 16.095734028222953 12.950525845815468 14.349902218141935
