32
Energy = -81.57233478 eV
Ga 16.0852919001518 14.051599223304782 13.418422278285535
Ga 14.226433184242039 16.147369461746795 12.767371356379376
Ga 15.300734557565278 15.833072746975427 15.39856667316078
Ga 14.950367150833756 11.791788622796199 12.667814108279842
Ga 14.08521865499308 13.313346003755765 15.30842185514606
Ga 15.182315588203009 13.932453700700167 10.597439986156376
Ga 13.093666203334932 13.666424654919906 12.713732973910588
Ga 14.01174584591747 8.599316062417973 9.901147954700182
Ga 13.661161017342684 9.459593180686301 12.684946014557708
Ga 14.598160700618912 7.101098679367256 12.366140735312342
Ga 12.575932152862242 15.64455285414199 15.102332284666684
Ga 14.539215231116739 11.058752985196273 10.168162118871615
Ga 11.032104492150687 13.37123662336527 14.478252225715645
Ga 13.983077152096397 6.005716304601195 10.040828097920514
Ga 11.158211072075359 16.16526402571922 12.856154444711926
Ga 9.950450420243273 15.966412456597805 15.550044238150385
Ga 12.160302264778531 7.120192576659289 13.438763371967664
Ga 12.634512965032284 15.59870713972395 10.604357753271593
Ga 11.64472135577112 10.217158221929655 10.74975637711993
Ga 12.687852724530691 11.257751383535021 14.511731632783812
Ga 10.708606098653403 13.661599848035369 11.686496620022782
Ga 11.627982774960016 7.670073861439464 10.829991832547071
Ga 10.946540954621394 9.386547045816593 13.744314061664442
Ga 12.563588909475456 12.637501174598622 10.025369215545016
Ga 12.053286539828333 5.1033905833956466 11.724514183152676
Ga 9.773073500965003 11.463911131390772 12.847287496882116
Ga 9.342304596335005 15.92825097970326 10.896132062465556
Ga 10.836716369826073 14.43142896965696 8.96805436855873
Ga 8.715275752344448 14.581758299142756 13.624728145049131
Ga 9.773393069714022 11.8371585623158 9.786196446898995
Ga 7.98578053680804 13.928764745442233 8.945821134053087
Ga 8.000349348262278 13.061749269229695 11.548831598777902
