32
Energy = -80.53437641 eV
Ga 16.688557442618205 15.690372549024547 12.392079833970463
Ga 16.954813623569187 13.046169677160885 11.56068007093607
Ga 14.391016362214652 16.964362652990292 11.597997586636291
Ga 14.638792994867037 13.882755692245409 12.967614790353633
Ga 15.424544632454461 11.336076987346695 12.913211858043216
Ga 15.049822723981071 14.716426426260602 10.269473788585353
Ga 11.276863517239828 11.638327193006754 14.96664319848895
Ga 13.375234312590278 9.823295024957368 14.523108867589793
Ga 12.517834833042505 14.949574941778287 10.88555100777639
Ga 10.609302045177468 15.483820676722216 12.807138834014292
Ga 14.740501989394602 12.033613695575701 10.156246482708006
Ga 13.044666806621846 10.639454462870486 11.847372836909658
Ga 9.358545819268386 13.12477541634564 13.905629851373277
Ga 12.19921114683513 12.935434840682005 12.840548337370585
Ga 8.318722484814764 15.67757218861277 14.258903256023675
Ga 8.159033495304227 10.810407573280552 13.63645515879639
Ga 8.081185857309475 14.828251141456363 11.76246370708158
Ga 13.05752108038099 15.736017738799095 13.62189303164733
Ga 13.551770163881452 10.024723260506724 8.905502885570577
Ga 13.246135989908705 13.95440595206332 8.277132270067987
Ga 10.078130705771853 14.121384195673926 10.334182567483643
Ga 12.065877817308326 8.350645249403067 12.409993049395332
Ga 11.917137974221747 12.231079815020626 9.83931531901195
Ga 9.912594436712993 11.672836076473411 11.680892874192185
Ga 10.34572816006819 9.303859581956546 14.178898407298412
Ga 11.030314193403013 9.77459652164355 10.050547405290317
Ga 8.971519132442086 9.04708380233728 11.593111824563362
Ga 10.96478133203228 6.689265680879609 10.849501637915868
Ga 10.99486642838606 7.673984432488754 8.453410782606271
Ga 9.690617636287508 6.939158523913933 13.413927569880183
Ga 8.451366994162655 8.067295324759156 9.158115171376165
Ga 8.314191637064985 6.217390684254098 11.13965603280642
