32
Energy = -82.80029111 eV
Ga 14.033799180108671 11.345699998850735 12.056125997148946
Ga 15.865566465488515 13.046182403966636 15.43612385042239
Ga 16.613589708763456 10.808713008151567 10.96865809137942
Ga 9.555691922760522 12.616498866776041 11.227078368367826
Ga 10.807574468454243 12.165099013642148 13.4921705807399
Ga 11.197329842054426 12.803073209144713 18.272782687136885
Ga 14.415225564955328 15.339035723551662 14.78443903204481
Ga 11.649896647005374 11.612658470731715 9.272800672818889
Ga 11.527120118963502 10.340072816155912 11.610604292303998
Ga 13.149011890759143 13.882123875050166 8.009615019473213
Ga 15.719937194325945 13.47962678927512 12.610476209011836
Ga 12.847517606487864 16.06306994368327 9.873538094059393
Ga 13.524667426451861 9.307468499283216 10.027807429993912
Ga 9.995563923720972 13.496504886908356 15.798238770077917
Ga 12.420885769946498 13.45084258386396 11.404382721901
Ga 14.974552938203821 14.776820468029756 17.45156899519591
Ga 14.870030229029728 14.272774900172323 10.276242332581116
Ga 10.659233012016765 15.705166299646043 11.727231637775827
Ga 10.536731375886257 14.064558009210677 9.233663397193853
Ga 13.735371548832115 15.963861481121405 12.341511502777934
Ga 11.69365570809801 14.92443413624603 13.956490082762427
Ga 16.323481952478645 11.05311702404494 13.709334637124513
Ga 12.257474535783201 9.515342672707176 14.061456737801745
Ga 10.335061467931512 16.778140391493064 9.296608317973758
Ga 14.412350664448818 11.802407766914706 9.442609673674442
Ga 14.554181379184085 8.800479322083227 12.863134027082406
Ga 8.900082848202288 14.334896726991504 13.441162478868034
Ga 12.3867047928779 14.601086616181227 16.492269381450395
Ga 13.383556507747583 12.67078079523121 14.282644277142774
Ga 13.7388935733023 12.169496309737031 17.008266072787354
Ga 14.464690529548932 10.112665280592745 15.549483918810715
Ga 11.451915598203213 11.148250849729523 15.954079428813461
