36
Energy = -93.53962687 eV
Ga 13.329236599874566 12.006572350739404 8.121425403173044
Ga 11.209015002166824 11.164662856653814 9.397653531491835
Ga 13.476375394976909 9.141398128757316 10.34496044708054
Ga 15.434800455095647 11.114964583819711 9.410238435674577
Ga 13.418108760364097 14.317714904595272 9.410462542555628
Ga 15.784189201891238 10.367482210097046 12.000202754762597
Ga 12.394733171437935 15.824457704258288 11.453985150123405
Ga 8.885347521705516 11.201596641078895 10.888538849822243
Ga 9.390966801897125 13.317894156014233 9.116009719151377
Ga 11.24286979740929 13.258482869642732 11.184223514446687
Ga 17.88860765349192 11.727016359196195 10.25691384899135
Ga 9.90519525348753 15.647401961457911 10.66233469470207
Ga 14.93792049729441 16.411673773746823 10.67311043751439
Ga 11.333017015927492 10.044480787277157 11.88078998055211
Ga 15.692299611827222 13.590546553856756 11.021392556056028
Ga 13.483409176233398 11.957063034471519 11.200457836407578
Ga 12.836790460089428 16.991138856177248 13.825978159672252
Ga 10.839112156867273 14.831058253056005 13.534207241416228
Ga 8.59560552630916 13.764061423788752 12.060727395809657
Ga 14.642645354733189 12.614783878817873 13.528069601525116
Ga 15.023118851283424 15.312294491157386 13.148134734722383
Ga 9.526838727077134 11.123483411670579 13.504713580168659
Ga 6.958652009467432 11.85059246151609 13.145260854877481
Ga 17.4748665207463 12.268158509254592 12.789819147305689
Ga 12.002686755424458 12.347092208638351 13.567054145688276
Ga 8.820144860204152 13.59029987448619 14.754201819473597
Ga 8.53700440864505 11.229681668689578 16.08666979486324
Ga 13.05635741188117 14.53280895276428 15.146474700118462
Ga 13.619292046662318 9.779761279369518 13.440966079839086
Ga 16.119152579747904 10.658697937006568 14.923235798304544
Ga 16.817485399582043 13.929240626951893 14.601751619847564
Ga 15.153568968382817 13.225836805394605 16.46653726619291
Ga 11.2206202131828 9.697067154171977 15.011760435730437
Ga 12.85895987238773 13.630842593468143 17.7877969191948
Ga 10.988631859176458 12.534431313699955 16.202960936565788
Ga 13.439092657905169 11.33197797909306 15.787698621014606
