39
Energy = -101.34452529 eV
Ga 10.00299801167476 15.491227490427255 13.055762239978323
Ga 14.013056442995152 13.320474323062156 11.469145035514064
Ga 11.704622332760827 14.566409530345712 11.025327118729265
Ga 7.230057700492461 14.25675084988873 13.197193468397572
Ga 9.539158216234643 12.947283045941193 14.151910972506471
Ga 9.148830449672518 13.256401022995624 11.347101091710277
Ga 12.140459531034994 13.55023107991537 13.727018270955298
Ga 13.437424233576294 12.068369863879665 9.261950878182798
Ga 10.828879579409469 12.762328196286626 9.21074466624512
Ga 14.73603874341333 12.637952903305004 14.068134100596055
Ga 6.24675511468665 12.493383786335857 11.149734483551017
Ga 11.68167156343779 11.65757489187096 11.726474367754859
Ga 7.439710034548387 11.397445650387539 13.504184090938127
Ga 7.9093903224569955 12.035179997309971 9.176396022790236
Ga 10.109646930890928 10.36590181671293 14.153109865197628
Ga 15.909365547417073 11.331273397729214 10.30710117163374
Ga 12.615071462375631 10.797157560980873 14.4170204926954
Ga 9.56684401669818 11.830775031217218 7.027896508099602
Ga 15.052276942574263 10.117916963180667 7.752884197166186
Ga 8.184047218217495 8.721280657785348 13.614968421640569
Ga 10.995455086703767 11.284066781763501 4.9056233388853006
Ga 5.507431228598481 9.59283661147061 12.867058414997418
Ga 9.150202012067796 10.52958112550179 11.403762290551533
Ga 14.46121443218827 10.425216024063962 12.436507927955397
Ga 13.802422952564687 9.283319216934593 10.15112052969888
Ga 11.179980747099444 9.793336631308929 9.511019213699084
Ga 12.44955081929699 10.949776192734308 7.131283522354168
Ga 8.615917091459282 9.541611302249834 8.46285656139336
Ga 10.433779042465655 9.134209462939262 6.502863295028857
Ga 11.943652696083946 9.0078971504738 12.2808790004749
Ga 6.738176958513493 9.723176530665212 10.453818028515721
Ga 6.985601407237722 7.069019545171031 11.878866887510494
Ga 12.446430086695447 6.838807738172517 10.68745824475501
Ga 9.68325553370123 7.819482392744397 11.383794880028784
Ga 12.899826677238229 8.15270351417394 7.832223289969808
Ga 8.582816351722709 7.078895743161944 6.828636853157831
Ga 11.296383933339328 6.378672235856504 6.400438783944696
Ga 7.558678537107783 7.219848469557918 9.29377937093638
Ga 10.399920499892296 7.19922576004123 8.87095259040303
