32
Energy = -81.29301471 eV
Ga 17.010173983026917 11.985530179369087 14.42929793889665
Ga 15.091125095657656 10.035864966516083 13.466202838987783
Ga 13.86774570496646 11.450259811114144 10.681611630473755
Ga 13.310205378322488 17.449826333833514 12.659996559340854
Ga 19.08552319634825 11.90795566233176 12.212673907903735
Ga 13.654192484108952 19.04361759534499 14.829653358836557
Ga 12.64299027803567 16.543867372877067 15.442153958275936
Ga 14.55832341993011 13.056504288874219 12.813078110347748
Ga 10.830187090935608 18.54104675393701 15.13492478678606
Ga 15.404760241743933 17.076509437665727 15.064663519414506
Ga 10.565821999204633 10.822305687912968 11.329221105950666
Ga 16.213259240065355 9.850525113025741 15.911957593609513
Ga 10.618327589221835 16.970983620642386 12.901107015317617
Ga 14.564419962944113 11.925862630783035 15.689889242031887
Ga 17.146997350781 13.988198347980797 12.117980449645678
Ga 15.194510240435203 9.047477265283243 10.84506605127744
Ga 14.15098671793368 14.439385018941548 15.251850237701788
Ga 16.783734097532232 14.821831125168622 14.859572047321807
Ga 11.89604938148366 12.839932886338799 15.814190833060758
Ga 11.918368505565944 19.901942317547558 12.903916962319082
Ga 19.05344385417677 13.796098490029646 14.179726368963804
Ga 13.132856964011154 9.444085340544548 15.463230080381395
Ga 12.311792461329434 11.48423225491325 13.663948652588912
Ga 10.097873680158195 12.964019913698861 13.105101796331994
Ga 10.038853532271787 16.72395229315948 16.792875429056608
Ga 12.447538133901604 14.815746917091674 12.976646107399644
Ga 15.202210295204956 15.667355662413819 12.673519944250758
Ga 10.321382535256562 14.961101927172873 14.816871742589955
Ga 12.792349636883038 9.419774701417998 12.129299425284742
Ga 16.42001956929617 11.442912210477928 11.496364081573201
Ga 12.045857062107237 13.113335821411257 11.084807498386603
Ga 11.812899800799673 14.809019419302523 17.50450546375892
