33
Energy = -84.58362703 eV
Ga 13.825766574626368 14.521529909161123 10.037163702889586
Ga 15.530424858757316 12.341058150777199 8.989880966135981
Ga 13.65051721488483 14.808563214609903 17.267485033123588
Ga 14.45062678968453 14.347617162651769 12.550774736046412
Ga 11.096081656204849 13.845604533582161 16.512749532712007
Ga 15.141635663261262 14.230048354989567 15.046773240156618
Ga 13.184431605272172 13.878333726105522 7.579765827838364
Ga 13.249367342660625 11.14996006421047 8.180880328214903
Ga 12.541729338495333 14.91328211236298 14.553983281374748
Ga 15.262808687795335 9.725390606831361 10.11687714412429
Ga 11.655561452866147 12.767137446444844 9.74689802518953
Ga 14.215089091787164 11.827146693426211 13.723804182867122
Ga 11.841812393302 13.00763864915817 12.53115562843962
Ga 13.58129982408896 12.179740356892683 16.34034012437667
Ga 11.33782385794358 15.54821524289687 11.104022603404502
Ga 13.888270648242173 11.893237214136573 11.099474394204677
Ga 10.425141759854528 10.464805044105956 8.613684649975845
Ga 13.901011483901485 9.366066701595798 12.670016841814356
Ga 10.146040701821953 14.818194086458249 13.567710650196554
Ga 10.850024792291196 12.501014520401922 6.917244461791351
Ga 10.316483586232255 14.87769952755689 8.574226841132216
Ga 9.321012226442312 13.544752875133042 11.105152305834581
Ga 8.989776317191408 12.865711708989402 15.292113984739183
Ga 11.39558920559946 11.681680203627122 14.824957022121572
Ga 13.355081974333824 9.726452820337306 15.34934804142506
Ga 12.623298364696046 8.941282388127789 9.43617967692791
Ga 14.379517365230024 7.194329263787509 10.852527912883822
Ga 11.281329009315815 10.540645958630286 11.32045189196709
Ga 8.83834069597185 10.18611811905186 15.050934016766838
Ga 7.541071337053305 13.703388235872714 13.144078825792322
Ga 11.036200678929145 9.224668591274959 13.820959344149689
Ga 11.841028910465814 7.784485058896705 11.755697235063366
Ga 9.306228885142135 11.434481835957481 12.749274624607224
