38
Energy = -136.63541814 eV
Ga 15.90330272755352 12.450154966143492 9.842601646937464
Ga 14.457435259062182 14.149631782197822 7.691178287930606
Ga 11.909475084841333 14.912806731996485 9.231457834166452
Ga 7.9515567115330725 15.467235735677004 7.500711815510648
Ga 14.744465978846655 11.09276737740407 7.4450945909795205
Ga 11.213700729430492 12.485059507620731 7.583165657284676
Ga 8.190513781718954 12.49150124415104 6.795247997296061
Ga 13.578939028169748 15.109550887626847 11.916595946005415
Ga 11.351789395893224 15.117136538346337 14.051650436934429
Ga 15.422845901648364 10.198008280223625 12.756070822243798
Ga 8.207994497321605 15.209033963184913 10.530647333094084
Ga 10.886925461969867 9.03898031486108 5.500700836947611
Ga 11.98025129194678 9.586305001840772 8.257915353325098
Ga 13.262013665564496 12.008540059673292 11.422301857124317
Ga 9.15540620045338 12.299923914755817 10.536119785511438
Ga 5.507853967243672 14.796373420682635 9.21195638316389
Ga 14.46857849155387 8.028130425817743 10.874668498275001
Ga 13.717182475336173 13.211148417414881 14.356546463114592
Ga 7.66242187241838 8.9738582158965 5.96431423907569
Ga 7.0036536009677235 12.933345832431979 13.344043045064062
Ga 11.547837201183318 6.168793314899495 9.346846827802242
Ga 10.032554616720644 12.391213989503536 13.560775832061488
Ga 11.484727940100846 8.551952626726539 11.706754837961753
Ga 12.804292428386388 9.838467416290513 14.382727901335976
Ga 5.688694188530367 11.856535182174849 8.390880383263697
Ga 8.492393903899739 8.755560882711773 8.910570306252225
Ga 14.610400313495608 5.791285667693011 12.965227730844584
Ga 11.438536410200678 6.195955422200793 6.332751262884428
Ga 6.529357436409287 10.728650817794993 11.173494562384187
Ga 8.492432009772848 5.629588564223549 8.94629314147234
Ga 6.738455571762121 10.27553176436858 14.866260433232464
Ga 8.19915243389405 8.263553558714941 13.074097999746785
Ga 5.2671277213224865 6.949915700084106 6.964003207517428
Ga 9.569634546048631 9.303413295278675 15.441319748517753
Ga 5.896118769412232 7.217742967631516 9.786166065879428
Ga 11.577617207432926 5.986694941503994 13.397109884488557
Ga 13.500308692577757 7.03002959252809 15.49219958509422
Ga 8.165989719041784 5.932203702074546 5.900476432782081
