32
Energy = -82.91772164 eV
Ga 16.058403988681253 14.541820011622045 17.115233014548956
Ga 18.44274017964337 12.548953985824323 14.07616642693763
Ga 14.77603825963627 10.95435770396669 10.837300718677273
Ga 14.821900636260589 8.729934177724818 12.329652355944935
Ga 15.582822155960393 12.910368171592296 14.996962388464175
Ga 16.43411596200365 10.884353177538827 13.348963172399271
Ga 14.702824282711644 13.45803123822426 9.953632605136852
Ga 12.350674586690007 9.75773480875639 12.767966484394476
Ga 17.21963410090107 14.96733205325993 14.076818710112637
Ga 14.445538118848802 9.943522920934603 15.037171315131515
Ga 13.598868333166562 15.914936743465573 10.25572827870508
Ga 13.822197204429381 11.985509351658244 13.203927235747647
Ga 16.28346801760306 15.53179175527232 11.030120337825169
Ga 13.34290164244613 14.67757673139637 16.526504320098326
Ga 16.662024054301764 13.1236509548669 11.90793151582548
Ga 14.337634350432735 14.724176801708087 12.865805434970165
Ga 16.51727444982138 17.388747388139155 13.06704676147869
Ga 11.664789041119567 10.925929277002561 15.179014364149301
Ga 14.98715406375997 16.2238917820471 15.133622158940135
Ga 12.350239294903965 13.286593617156594 11.329585265920294
Ga 15.261961976326093 18.108072388954707 10.614061445915093
Ga 12.084349918517741 13.757708812700196 14.33228887771796
Ga 11.583729509066888 15.870706782784683 12.021481294337763
Ga 12.266656981687527 16.73496429420874 14.745338104008804
Ga 13.80505044388408 11.862827792647362 16.806605856119734
Ga 13.744627545441539 17.52265300589078 12.785563962776898
Ga 11.411437909142803 12.954180577592389 17.104437524173463
Ga 10.677938743044256 11.848637221817834 12.707643607839255
Ga 9.62199252483047 14.518535672073998 13.09532752298856
Ga 9.401577788480136 12.549481346283502 15.05307045033373
Ga 8.887300432863116 13.959903676741593 17.324707265479248
Ga 10.337562786290837 15.441601313940744 15.729611900989557
