39
Energy = -101.51218301 eV
Ga 13.761323992691999 15.8585388437479 7.450706571383153
Ga 12.882808751072393 13.389786270695032 8.055441663114422
Ga 12.116484770632283 11.159470204484109 9.15795859487634
Ga 11.768138248398087 8.513924058620969 9.585198546605211
Ga 8.921717431837749 8.175758599053813 9.467379461243919
Ga 14.628943986962215 12.222085806763173 9.911601463501436
Ga 9.300601715405419 10.837102530936171 9.608652761623835
Ga 14.18766415070323 15.3310468159437 10.113803698680394
Ga 11.585720996905982 15.748723804055182 9.098697741590442
Ga 10.215965180401106 13.338130307330074 9.205021920968036
Ga 11.506907747371093 10.294852167638814 11.730949559471798
Ga 16.535932639892174 10.654805736392909 11.355613224722418
Ga 14.069719183964285 9.452576769537078 10.514737854157087
Ga 15.69364753315245 13.79398879390194 11.728276878904806
Ga 14.937655447673068 16.317561632262596 12.574836939226568
Ga 10.062592452486046 7.713304709424001 11.91919099836449
Ga 14.147129702704381 11.432299949764193 12.674938957070236
Ga 7.264447496757007 12.261832801219935 12.176735806112404
Ga 12.417477802452291 13.546688960343822 11.204332772877216
Ga 9.960758955724737 12.548658219634552 11.789979088441438
Ga 8.563898584186127 10.00730884428277 12.24817178725122
Ga 10.136304946244307 15.28125334341018 11.275359948791152
Ga 15.108814762840169 8.731983771015587 12.93139716657345
Ga 11.845664344470281 12.065613436202776 13.71607169501538
Ga 9.172704898583772 12.273487745933501 14.50311281198907
Ga 12.311961106561013 16.133444697373676 12.653660678362272
Ga 16.330822708545444 14.86712686848346 14.34027101549777
Ga 10.958048461274053 14.414027533020624 14.538468433700562
Ga 15.824606934406871 10.097531405323075 15.104587003306937
Ga 12.601209769294087 7.797524240428083 12.606386935296813
Ga 13.042053979821663 9.741450093322294 14.610975608882592
Ga 13.720254227473536 14.087996433397652 14.04280100117179
Ga 16.585154914773867 12.25168423484077 13.689539271002662
Ga 10.495981365123692 9.195664100631069 14.204173816072842
Ga 9.818644297165008 16.701539038103697 13.696768738947538
Ga 8.085076890684324 9.893845126882278 15.13541718828459
Ga 8.217776235867202 14.556639204736504 13.099536879545647
Ga 11.009844679429365 11.073037356133447 16.291316928292524
Ga 14.027257933835392 12.059424772496055 15.809647816846622
