37
Energy = -134.25636244 eV
Ga 11.872712795556584 6.433582580026776 14.333186051772993
Ga 14.801523250924118 4.181739092083327 9.02643588183122
Ga 7.296949160870944 6.282542497779746 13.440861945938844
Ga 9.985998927502862 6.265508757006208 11.969041356473411
Ga 11.34312492938849 8.761640493632557 16.175940041799915
Ga 12.596282623930916 6.266163842773608 9.159202396598188
Ga 5.570508729140965 10.031961309166846 9.301088537878819
Ga 5.2069880627931955 8.519834729220488 13.236947357379304
Ga 6.953124218820286 8.247296165920611 15.702470686497733
Ga 15.095311595010076 6.6410554757351195 10.78908751142993
Ga 13.68730796774205 8.879580976054985 14.232164689206762
Ga 15.227111938374259 6.899493045839298 7.780937348247349
Ga 5.885226863886 11.245159187220557 12.107097826323535
Ga 8.939878974945158 10.524106698659368 15.525928743768754
Ga 7.290027076464362 7.550664440835346 9.632680671810027
Ga 9.737464324684185 9.013324656192605 10.647349900928823
Ga 7.6653088284308 13.957998838563881 14.38586735496191
Ga 7.729141480863386 11.024658542194178 7.367962288346119
Ga 8.85541881227939 11.628109508841296 12.674988875013614
Ga 12.729158687045873 10.684113724391391 11.982806344726903
Ga 9.45793813499218 12.68191404996358 9.252871169127147
Ga 15.594491571624483 10.363068147105766 10.998993393748169
Ga 13.736569884663588 10.113378212654215 6.886558797159596
Ga 7.161183491817468 16.128233213112612 12.337590018741205
Ga 9.658555837658744 16.236200883476 14.0812176472112
Ga 7.955113374310258 15.33023395679595 9.481770000776336
Ga 11.483355391092308 11.616920382311523 5.41689442024344
Ga 13.165727619435081 13.399832593449037 9.463852987777916
Ga 11.340696375461606 14.475424873005185 12.223620450730191
Ga 10.18692975583623 14.104729136400648 6.6482728930695565
Ga 14.950995020953425 12.378939687993368 13.223971951725497
Ga 15.607164663803431 12.025124607640098 8.370095588561094
Ga 14.336070874796597 12.183738030304706 4.7859389590877495
Ga 10.633285713750332 16.620489004097855 10.153326926113916
Ga 14.334098060664848 14.9929317446693 11.775217290237428
Ga 12.444227086512223 15.796226429325976 7.7738015017087685
Ga 9.473738904487284 8.502791496070966 7.642671203561004
