33
Energy = -119.21246958 eV
Ga 19.783903071002864 13.131115418087331 12.113083306939055
Ga 17.989768944947446 10.83396063295279 12.950302651973647
Ga 17.937419472663485 13.42198140403763 14.48599916662474
Ga 16.7945066871202 13.299133489950643 11.69914969401673
Ga 15.52462547674586 8.504359111930846 15.033929221576765
Ga 15.022662554145642 10.973030231983572 16.723790593344283
Ga 15.084769522792827 15.948599983936115 15.255404675834148
Ga 13.196979650762998 8.558921822829696 16.99439273818182
Ga 13.192025220344572 14.607701589225154 17.267658410000557
Ga 13.733072091697103 9.55903691471982 12.683158776817352
Ga 12.353381944555887 17.128320125296792 15.783199791013844
Ga 13.992028393070138 8.259756276980276 5.465838409384694
Ga 14.015148266084063 12.267127192838812 14.126807876909533
Ga 11.520404253404235 12.409929803573434 15.840184339611328
Ga 11.632314518838655 8.227388342555003 14.415548326350827
Ga 12.831992567972593 15.525350153453724 13.220307917441811
Ga 13.437809479567534 8.843139841399154 8.388194789453602
Ga 8.811747081343299 9.314407144073591 14.798573901853922
Ga 11.876011502319603 12.415472694357467 11.351136440931949
Ga 10.220719691504467 10.154319882699781 10.15371624638066
Ga 12.84382111639415 17.751421592254925 11.099717368727301
Ga 9.424583916952788 14.442798288472934 14.949029842776676
Ga 7.977056534945407 9.052008351474644 11.878341798193805
Ga 9.58859740508231 14.446020631166496 11.898129234976107
Ga 13.664214977130419 11.127326787674475 6.443689179423647
Ga 11.291176589033546 9.295623893587566 6.316832147912616
Ga 11.625490955059885 16.501876514667977 8.598967590578804
Ga 9.859827759548462 17.407993322694146 10.856786297134473
Ga 11.549048598461642 13.420522338824394 8.451978515550048
Ga 7.504183933478374 12.068318113035692 15.197081690040305
Ga 8.688221645145765 12.166495784424587 8.447346305759892
Ga 6.159318174987054 11.412298658483149 12.520945328550559
Ga 6.98183370935412 13.550400077424406 10.564239393380891
