33
Energy = -84.74486901 eV
Ga 17.07932981437145 12.618195426891285 11.315913428861325
Ga 15.135578946538983 14.49243204458577 11.97623572074798
Ga 16.200430320651215 9.950648677377476 10.974846843191006
Ga 14.446252330486915 12.041178739271361 10.742431574888103
Ga 16.156071638376886 9.759719066958754 13.668568860192737
Ga 14.462528668028959 14.624219489437344 9.22584952134355
Ga 15.8021184052786 12.368578090295104 13.71783560974345
Ga 13.736231233643675 9.329145044702654 10.20712412827907
Ga 13.982101864595608 16.49246596844613 13.179933282992447
Ga 13.421377239494204 10.48272071188369 12.767899415157004
Ga 14.19664697070274 8.961705157579878 15.217383026444606
Ga 13.131219185909105 13.17934644995516 13.264271628465202
Ga 12.266522683871633 12.941617705216416 9.672361912893674
Ga 11.871545071517248 15.310283111123493 14.399256065753569
Ga 13.99266611993864 11.603981493422705 15.424106044463496
Ga 14.18649320406977 7.739205469755697 12.565958385819847
Ga 11.648274003638655 17.71579102784771 12.7168926501261
Ga 11.576934263161188 8.560266023614917 11.914663456193928
Ga 12.564617607758041 15.448951362374807 11.109332701665483
Ga 10.55932569773194 14.902070962662352 9.342311688618997
Ga 11.694498057349238 8.603874547889994 14.543681617795452
Ga 11.815520223751388 13.232776424426987 16.049314635521142
Ga 10.05415761344304 15.635814864211097 12.245237739563317
Ga 11.03711181057297 11.222390443913119 14.146839230602454
Ga 10.793003737715186 12.949301157726715 11.980229233126165
Ga 11.809259300404673 10.488430156617795 16.7458076372344
Ga 9.68207484973254 10.360321504511209 11.807629993108831
Ga 9.490191242498291 13.723633047149479 14.39548475383319
Ga 11.42432358766838 10.362384066792325 9.606254857476436
Ga 8.161847324154946 13.978472088978206 11.37980283969058
Ga 8.096836329533483 11.95724892273497 13.031078002778491
Ga 9.528548416713068 12.198037426144367 9.620795706256523
Ga 7.986056418249266 14.48464170102927 8.730430989016064
