37
Energy = -91.12770097 eV
Ga 19.86658409178207 20.988838129605718 17.535690062470337
Ga 18.450671075244916 17.25553439202327 15.589677874535955
Ga 15.374129859645965 19.623813611434336 12.972341184799715
Ga 16.15569547233572 11.60663993371693 20.93604554491174
Ga 18.28004372927237 19.915539638723125 13.646144515254651
Ga 17.73023899868802 20.56690546393949 16.258360468326952
Ga 15.615786551094098 21.506715877549443 14.927036238431292
Ga 15.54199736345602 9.17949687224347 19.900512397331898
Ga 12.121072907612486 14.867946300176257 16.80295630511522
Ga 0.7996908047003384 22.934156551920108 19.252777607950463
Ga 13.835188611228908 17.267111497000975 16.402729074369308
Ga 16.975898889716046 15.95832886078831 19.769926176107933
Ga 18.84597844390913 11.772368521902504 21.51041663138172
Ga 21.863982560758306 21.78608851070427 18.625495045457978
Ga 13.492173258611226 19.755607184439224 15.21212026813815
Ga 17.19424065568538 19.46130739860577 10.966209388410425
Ga 16.726296238977113 14.155514020752735 17.57536102178758
Ga 15.089071423174504 13.815749805150608 20.008523981086046
Ga 13.53489996874876 10.985656703119295 19.286826203868934
Ga 20.176712872521108 19.19946318555192 15.21415900340265
Ga 17.381916359499908 14.097885455282523 21.572466463280165
Ga 17.704161899831387 17.441723897306865 12.945737408341406
Ga -1.273774827499722 19.833597659544235 16.613251596300806
Ga 13.801321557880145 12.92565921654486 17.573097637553875
Ga 0.76883581558464 20.827947960044387 17.617633306927974
Ga 14.233406914471168 15.101470339710168 12.15684942419944
Ga 16.838633315688476 21.921563009138595 12.509662950852844
Ga 18.227768182403263 12.865048178121887 19.122664490891527
Ga 15.934989730466365 16.196534169704996 14.224386140532607
Ga 12.806028886581569 15.502896299275156 14.386519842270523
Ga 15.492046520956078 17.323897607216228 11.332445178465301
Ga 13.611896032360004 17.806685004025116 13.372706381691392
Ga 16.076239850580798 18.687737315569223 15.479422404656482
Ga 16.505473786939376 16.881588995218998 17.435464382849656
Ga 14.181698209502395 15.736459209591674 18.443010666261717
Ga 16.07863387190823 11.563818538802737 18.238166896734413
Ga 14.940185850401866 14.46612063000169 15.783159042643923
