37
Energy = -96.19157651 eV
Ga 8.366310133649826 4.75150056168679 5.025293440716725
Ga 10.261694522074006 9.638465508169256 3.9479688791848075
Ga 8.141517966924596 7.851407374795066 4.68325337312927
Ga 10.8112165487823 6.554362270010716 4.976301766214422
Ga 8.470022796045871 10.964045103641547 5.73778082483298
Ga 6.418452838527479 6.285212115325882 6.301062397613142
Ga 11.45401224993875 11.337153956578788 6.628836955391745
Ga 10.618846302102863 4.112222276883756 7.160180657974379
Ga 5.627447354671259 9.28725666425199 5.549455793449642
Ga 7.607374941530556 8.785015878786046 7.31265606758706
Ga 7.727431287332325 4.097009420210496 8.03561325270545
Ga 12.95341970643027 8.855502281881405 6.025059157840885
Ga 9.021827027100743 13.075772369561529 7.733652144788796
Ga 10.288115681005802 8.804872509863792 6.593949059042737
Ga 9.099237459959514 6.402703433259526 7.1419731289211095
Ga 4.100772439680243 10.605074157821454 7.609318289381465
Ga 9.420312137530804 10.506982815466802 8.474394652938889
Ga 11.87329228308313 6.714826587171398 7.749720118965139
Ga 6.6655312038952825 11.404054109070724 8.009256890775454
Ga 9.857951257807397 7.9382914588808715 9.26191183633785
Ga 5.124993329735761 7.989054635870747 8.156141522839526
Ga 12.159446641835904 9.462738178928861 8.841916639641568
Ga 7.40207844259346 6.656725946008741 9.194772922556824
Ga 5.1348215140245275 5.17832305705343 8.602860630160597
Ga 9.982565935416863 5.229581494966244 9.725331784722597
Ga 11.117348136873064 12.096341431424474 9.829741263163193
Ga 7.574004038942973 9.207263792829277 9.958102288119095
Ga 12.013541050008055 7.255690480187642 10.810847880234844
Ga 7.223983788392513 4.817594744577903 11.218322481230901
Ga 3.1883823292486 8.981328474765835 9.654995743676862
Ga 8.68998795678791 7.2108854540680305 11.817592021199586
Ga 8.040913839563451 11.931919150223532 10.499906360988602
Ga 10.104047399080534 9.784982574865618 11.35472108517137
Ga 5.323219579871132 10.503334550525711 10.443504165349054
Ga 5.677089435002612 7.572911785959718 11.169784384573155
Ga 3.287695236305887 6.377584013035269 10.272178192268118
Ga 7.271891828070292 9.872806001217674 12.592438566139107
