39
Energy = -101.42044017 eV
Ga 11.43184043021066 7.988745877027973 3.852229717965912
Ga 11.349062065035657 10.878154067219016 4.632332413605167
Ga 8.333764545671935 9.779308113722484 3.7862782107930397
Ga 8.246396339205864 6.996085531602121 4.978064763640712
Ga 4.9399263325625276 8.839614860142124 5.347396889362744
Ga 6.020070564733678 11.785788233210328 6.104909056715934
Ga 12.722188386918644 8.286220428046512 6.342454997917587
Ga 9.104656702277738 11.66923442908127 6.223847726588172
Ga 10.028925237470057 8.919765486647474 5.9795542519305025
Ga 5.246912338691378 4.808267305755121 8.317753754911912
Ga 10.754340987644394 6.07308332153477 6.045197073230644
Ga 7.403118656947646 9.398888509993178 6.441777564615672
Ga 11.82852294549811 10.874353113472909 7.444812827534178
Ga 8.273266798082432 4.649662258507694 7.018017250802488
Ga 12.805903344820889 5.635295957071689 7.8861432697868015
Ga 3.640557607877417 7.226136184655333 7.397045977970409
Ga 6.309228181715067 6.879314812909264 6.939800114919846
Ga 9.007320537332777 7.1972148932958255 7.74887721611918
Ga 4.915927445482985 9.771863967667779 8.019102777938086
Ga 9.563158461565507 9.853402889333351 8.414088417125996
Ga 11.74476537086125 8.02347371220535 8.799385551222535
Ga 7.242128317435888 11.588776045613614 8.600839380134452
Ga 7.373754373325534 5.74126984897884 9.801466204128898
Ga 7.152509371193005 8.60445595514829 9.090935829525149
Ga 4.8439396493100215 7.468086121461914 9.865229917483296
Ga 9.381958256937793 7.70600215780678 10.340428142558821
Ga 10.294311633553328 12.279689935719475 9.518146550718717
Ga 10.366458310316734 5.22140835679607 9.24450957710672
Ga 11.792501522140713 7.019935499633585 11.437195857638445
Ga 11.371537867836812 9.879213184115674 10.74638450042415
Ga 8.441535999248112 10.236509271408542 10.807406810145613
Ga 5.606313173705205 10.288122345623774 10.724589802747621
Ga 9.066155416570203 5.818374421831623 12.325391140949591
Ga 6.8231460035648634 7.749256064222386 11.794588883551361
Ga 7.808988946474147 12.905836660909237 11.06866505343222
Ga 9.725678863627085 8.713361379738187 12.853688973455263
Ga 10.087368227228621 11.558524993210941 12.527705978552072
Ga 7.234805150593515 10.297615153459546 13.291190195625385
Ga 7.780837220320719 7.453470235208866 14.306348961113246
