37
Energy = -96.85197628 eV
Ga 9.410693835607388 9.442125362805193 14.229889202833633
Ga 7.90198866716232 8.152844019629834 12.477532562867907
Ga 6.665583104839982 7.172922298325571 10.16529924282569
Ga 8.189063774772642 5.660160347693843 8.291457731072407
Ga 9.377973854178752 6.799179518304404 10.64051383004514
Ga 10.918493211361525 7.7329037804387335 12.624536673486242
Ga 10.900635703526534 5.50494901473819 8.876044518545262
Ga 12.165151444958365 9.121582755103072 14.680750380104875
Ga 7.785016976360789 11.242461316046567 12.701143356369032
Ga 6.517329027150294 9.895706137323588 10.799420067146201
Ga 9.406461068238235 12.144592708997585 14.773475630376323
Ga 5.361032687287497 8.743583774884735 8.22783556687449
Ga 12.550330337520641 6.144748188292345 10.95385966661651
Ga 10.048783541363006 10.165381387385112 11.521764552795931
Ga 8.585985397540437 8.976271169472982 9.133060007470418
Ga 7.603741189996198 7.947139487910555 6.798921503389529
Ga 8.454003885693949 14.589127603175973 10.11732278876248
Ga 5.418583974345775 11.397513829160836 8.900405470849405
Ga 6.685274018088043 13.600912371273925 8.395594032718172
Ga 11.71545499694472 11.562258196381304 13.46548412225471
Ga 11.414148957839478 8.526071449105098 9.679274958470165
Ga 10.246214665211118 7.584003637327729 7.241918333064323
Ga 7.4033012008665136 10.669953982924902 7.257274472450352
Ga 8.338955487655554 11.784050690116663 9.865378999235967
Ga 12.881222356771222 9.63051221676582 11.930765665003086
Ga 13.08011420248404 6.867540713363342 7.830599929744351
Ga 9.820817590380074 12.978279507349386 11.988632892917208
Ga 10.704306965036817 10.97387141744158 8.717976708119581
Ga 9.636677256822338 9.934755704742294 6.102265079093264
Ga 14.202335336217413 8.091314706845981 10.092859253145335
Ga 12.294469555431947 12.153778824944592 10.906998729120092
Ga 12.353289235289074 9.445152342705486 7.014665783977723
Ga 9.206308986179113 12.825473939399366 7.2302386840671495
Ga 13.73412126821896 10.491171143781852 9.239689003337967
Ga 10.817069416950067 13.810977514021266 9.354326774191392
Ga 11.590877584065158 11.906399665084884 6.017347634764204
Ga 13.061262644253404 12.877429228765745 8.223159272438965
