39
Energy = -133.24630698 eV
Ga 9.84881848799977 21.289884403652106 21.605110460332387
Ga 13.186943467715775 11.012192386202146 13.20110517372801
Ga 11.894286048823357 20.90565287545966 17.37277007512184
Ga 20.686393987270296 21.27244914310443 22.87867029562978
Ga 12.979186418527696 16.266814052204733 16.845119522167423
Ga 19.636710615256067 1.1045290973798598 11.89078890476293
Ga 20.43753858714252 18.001376068340274 17.49511290293063
Ga 17.851175174581392 16.453691322558914 17.808139427915652
Ga 21.728716867282614 21.067779331191108 11.518588451047778
Ga 22.113930495035675 -0.3532214367271671 11.206643212174173
Ga 18.675049161845553 20.19477294567805 21.061546273347787
Ga 10.25856971228365 17.71346646615867 18.664923768041884
Ga 19.6683370415073 14.658064837521497 19.463602509352693
Ga 18.695735847824157 19.54766079149723 14.821977199666273
Ga 20.674348250731505 18.016232398971695 20.572462318900982
Ga 18.902691295383125 11.75538573401222 19.274124948343406
Ga 22.055019767929654 9.310976438420733 16.354157157902673
Ga 18.804337759704666 20.816358770871588 11.98106794001136
Ga 22.937346786110155 13.735573715402374 14.23224127537737
Ga 20.304384380158172 12.681798319636508 13.439365882235808
Ga 13.44743079843133 18.720725545778496 18.768397295501295
Ga 14.93643173898177 15.902727729816728 14.523629939641644
Ga 12.658730289078168 9.67202519504156 15.4155300929999
Ga 24.11882334634067 11.301122230289726 15.431015269262655
Ga 17.671808793335856 23.482495352834352 12.656053131582407
Ga 19.591342029321236 11.067575598801133 15.954962546219031
Ga 18.981996581456098 17.12572256253983 13.024673927591463
Ga 16.233420931953233 18.426498623235666 13.328831912868338
Ga 9.162709037230183 14.036796722144928 21.550293250965538
Ga 8.995735879166213 18.38026364544432 21.350923920529294
Ga 12.378601220491188 17.33313558430604 14.162746771447242
Ga 21.03193892122604 15.023698483476768 16.64048324892538
Ga 11.2334430476366 -1.4497507388801787 19.546696226024956
Ga 21.7155008739821 11.880353414735572 17.959817548767067
Ga 18.443282579464817 14.814012134249806 14.968192953911336
Ga 10.292981020723726 14.586151138720034 18.85790399185259
Ga 11.939818580799722 17.813702006652484 21.46650681553042
Ga 22.70240804223225 20.194442896569896 21.092611443595246
Ga 12.084430845998618 14.720281725249304 21.27329508444928
