39
Energy = -101.4026112 eV
Ga 9.414128766982707 11.003228305009767 4.728581844182807
Ga 7.972593974879466 5.886850026654045 5.052475302168258
Ga 7.37890586166673 8.793190037225479 5.229070990260926
Ga 10.172598533819839 7.8952524189946125 5.282811588783949
Ga 4.672032518894061 9.438538502890047 5.785669058941355
Ga 7.020613735557245 11.492548883439374 6.378524854040797
Ga 5.585229730740338 6.798714655801001 6.573096663604516
Ga 12.000417621160809 10.538945882456918 7.195173385846956
Ga 9.929246751377214 5.229491129002363 7.029104816249148
Ga 9.164029111226931 9.752502227382696 7.158155267443217
Ga 9.618740369344668 12.560025821329363 7.541945306001635
Ga 13.947578030470206 8.323055490752889 8.316497900159781
Ga 8.26555548291219 7.25281344709737 7.478299018281623
Ga 6.32259494179435 9.166979599318454 7.883905403010522
Ga 7.174963347010873 4.661042053691094 7.818585103237851
Ga 7.24404706948641 13.714175611425583 8.72149469180662
Ga 11.119353993402559 7.969649414875082 8.093732066965773
Ga 4.729576433017455 11.478569066490563 8.188703519661427
Ga 3.7727769486355913 8.29323254388203 8.642646708886986
Ga 11.377246595797713 5.449665695285123 9.140055323489284
Ga 8.777457981006345 5.820545486166876 9.817172232552068
Ga 6.280665934291381 12.382014717520622 11.312349619000521
Ga 8.097861423691237 8.585343848013267 9.856366422852354
Ga 7.488147765281014 11.113196091703383 9.171454599816492
Ga 10.129413243312047 10.336107338251354 9.491340733105769
Ga 6.004906397872159 6.747435892936037 9.499253671910893
Ga 12.698590293174293 9.999140245897348 10.190741889058886
Ga 11.765304534902537 12.553726939045426 9.645811106386837
Ga 12.940227052124277 6.794503706455985 10.536837368420708
Ga 10.391942198066776 8.091634057705399 10.959801229121313
Ga 5.560781325022618 9.505680304427374 10.649474653042608
Ga 9.147894187907443 12.703636812807295 10.717768843480547
Ga 7.7286216755667905 7.170441789079993 12.155236968360974
Ga 10.46781375807106 5.689858488799529 12.212630401159858
Ga 8.03812403288966 10.326223020620922 12.133914885512743
Ga 14.833579425851196 8.603505561987273 11.091847325603707
Ga 10.876389117792716 10.908467927860816 12.099594044122961
Ga 12.418794210575161 8.47967760741288 12.698916908161097
Ga 9.667802260919537 8.686935986800513 13.717504921801837
