36
Energy = -92.31072527 eV
Ga 14.393885351981407 13.303041511822334 14.784036252229333
Ga 18.26807812094415 15.506866557337615 15.453803687439997
Ga 14.557063282715301 10.687482539385659 18.298872117492028
Ga 18.90472969311082 15.344596366270252 12.75472224420736
Ga 16.28169193235059 17.246399111407566 15.141232604843976
Ga 12.661931375052113 17.433898725960127 11.595401291203357
Ga 10.929712879225782 16.625243593993314 14.026827768200537
Ga 19.28906966222971 13.069593356858082 14.077671488982617
Ga 15.728541030321574 14.85665305951329 16.426335396881736
Ga 16.35281103125124 14.650255426578811 13.615663488779726
Ga 14.45031442152368 8.89446192557208 16.177309935437172
Ga 17.163600183392568 17.372448056826663 12.51718543526734
Ga 12.099538496398516 12.132076014357365 13.777804437378277
Ga 18.002456618012822 15.006008332967863 18.176090516823702
Ga 12.000399166452482 18.336418162613597 15.78337741462453
Ga 16.241525714335904 12.961669619300412 18.414011681835596
Ga 14.644606798964979 12.956884521856539 11.945259598026151
Ga 14.502506060287272 10.573652225398549 13.58042961404444
Ga 14.463536385724721 19.496217264181407 15.750388425302228
Ga 14.707117556140027 15.314423134947763 18.967117220554286
Ga 16.947494161936003 11.936758200627748 13.470790213808037
Ga 15.086541429905907 16.085331037970036 11.72033956296239
Ga 13.866043139323674 17.463545738501015 13.84251812250456
Ga 13.353004502958328 14.64275710666147 10.344217342527351
Ga 17.93344459023866 12.92183874714541 16.328878345539703
Ga 15.838795202692996 11.366819342706897 15.966596427106515
Ga 13.314674505716033 13.38888554510783 17.541410610636785
Ga 14.480058853388654 17.245944843713566 17.203063547293393
Ga 12.901698021953225 11.280453035827435 16.05467825411389
Ga 12.878598476123111 14.85062565127533 13.18285272663725
Ga 11.400149242210745 12.879318260414419 11.50806597578585
Ga 10.715060874944566 14.064191166869918 9.266507939548823
Ga 11.747390131219166 16.653444530592832 9.206370783363797
Ga 12.732368219194012 15.33108253874164 15.865379382352495
Ga 10.62759275496105 15.525260068819277 11.697876125095016
Ga 14.058200409711024 12.884103937630991 20.147672680969354
