38
Energy = -99.11270712 eV
Ga 7.351974821001949 7.945142655082965 5.462644766548521
Ga 9.759884670128795 9.855126619603242 5.578274749054161
Ga 10.198228778512906 7.209418035740756 5.593231793481658
Ga 7.234858430886763 10.813633344568084 5.289132822391933
Ga 12.512723635246333 10.796496454032933 6.206361139647866
Ga 10.455795018659405 12.434283906088188 5.714313710457235
Ga 11.755716395232087 8.481178550279203 7.3583516706958365
Ga 8.335840422365614 5.864843623225661 7.442318266720228
Ga 7.950245076280054 13.356037154061523 5.8080511192986055
Ga 6.336541384406704 10.002231181914098 7.706530862673104
Ga 8.94942181655977 8.556893284508922 7.8719508074040485
Ga 6.332402663291132 12.848247679682439 7.94407628666148
Ga 11.434819041426442 12.502435086345235 8.262641255832152
Ga 10.832309335038229 6.118757974813341 8.444716733944764
Ga 13.270875481770416 10.43666271319767 8.861615180887386
Ga 10.536415359839662 10.073665597664316 9.639264981204878
Ga 8.825532844383417 11.307756222001082 7.827618362088881
Ga 6.466027942621694 7.348257555345249 8.542682957032842
Ga 9.461241554823381 14.459781034428186 7.837864624340082
Ga 12.859060306393872 7.786926467590766 9.6896407721815
Ga 11.88484343654048 5.18018783831848 10.62539734265672
Ga 6.413947558148936 11.207657710945469 10.210179633229844
Ga 8.365610693853787 13.083010955234805 9.861429701852682
Ga 8.677503156150143 6.083368193359027 10.267065837168067
Ga 7.974532678495364 8.873433221887714 10.400639356989055
Ga 10.598100615852193 7.950276701603407 11.184874656362993
Ga 10.936397048472072 12.538815133473753 10.943232161380399
Ga 4.766987691840103 9.014460225329497 9.981015030218266
Ga 6.08120060550145 6.751647767354375 11.365645083061711
Ga 12.956035505167467 6.908970051107844 12.433112438690051
Ga 13.412470685651712 9.561478727625383 11.771917818264232
Ga 10.145545066283718 5.4097226289217755 12.697251842613634
Ga 8.626658542793232 11.189913863988387 11.83265941292559
Ga 6.361446244231345 9.595047663166968 12.653643594876051
Ga 11.065983710911887 10.344482685816594 12.68402511429696
Ga 8.332433091286498 7.445834090248676 12.763312142718968
Ga 8.651004478851092 9.784313237540388 14.20393466593044
Ga 10.888219625411297 7.878439578215169 14.038216718527961
