38
Energy = -99.03424363 eV
Ga 9.9241009039856 7.13695652760055 14.266125940930815
Ga 7.544091240440796 8.088650164136984 12.978170657219618
Ga 8.927648876508538 5.469077451801057 11.938685114039956
Ga 7.287758705355041 10.718339305562754 11.985451322997127
Ga 9.313694985151788 10.001447422553376 14.002707989154302
Ga 11.872026555490764 6.168243907324851 12.019518186949847
Ga 5.642942782392501 8.782896767183178 11.138383813398415
Ga 11.600137168764276 11.939677248927044 13.701585605977549
Ga 8.943519021988052 12.59969457741906 13.097552191523853
Ga 7.673585493588009 7.156104954220437 10.123094751224953
Ga 11.826229006836805 8.9204295321108 13.133879267066975
Ga 9.784822629217302 8.122053078049522 11.503593076774562
Ga 5.383546818185377 11.372361560453802 9.898280742467879
Ga 10.46474410646889 6.299405439282226 9.549862955841546
Ga 8.410304537826514 12.568870960467413 10.353243298772675
Ga 7.820214297802897 9.973452686198298 9.266433299817882
Ga 10.174388438731215 10.621668873452805 11.403253146438216
Ga 5.426715172879619 10.752556872598632 7.177665010009205
Ga 11.105493354608287 13.192595833296277 11.077177975568839
Ga 5.5967161252287125 8.335394053014307 8.50301116471802
Ga 12.494926966445625 7.614969824618724 7.714626956053871
Ga 10.131747926967673 13.581442087448213 8.376195816886646
Ga 9.959880326925289 8.79579009746575 8.413278786309158
Ga 13.64823721061896 13.257538815395009 12.202918215740992
Ga 11.51143138823817 10.98015234860618 9.212569550936825
Ga 12.428083722660912 8.308534704989315 10.3598051634835
Ga 7.458612835364446 12.516275588099953 7.825018795487299
Ga 10.255532354960513 6.37239305279709 6.704664442689087
Ga 12.553519426424513 14.78446711243606 9.29267455182708
Ga 7.776645915042783 7.1159123151015855 7.423908260610878
Ga 13.081524561973627 10.65535046124085 11.50716772442678
Ga 7.776641023528004 9.618785278021498 6.372926403059316
Ga 9.763961474625779 11.304897777368273 7.04845357226976
Ga 12.228476406264157 10.301431925587908 6.389014224245039
Ga 12.714352341991823 12.580071197876007 7.453044521128831
Ga 14.26464378840993 12.341021267976735 9.668876283574978
Ga 10.205337749034955 8.881551193993138 5.4991706077162865
Ga 14.068526219133453 9.873467729535117 8.558288226355025
