32
Energy = -81.9826412 eV
Ga 15.726121127760914 14.14851182243155 14.117099298162117
Ga 16.168811172719426 11.418739193494412 10.472208894494678
Ga 13.455665772601582 17.081809472469665 17.846364312559526
Ga 16.87073770734041 16.341358374194662 12.858635784785179
Ga 14.285056979263745 15.164615105842666 15.860639552798805
Ga 11.656138184195283 10.68034685405573 11.940086738263073
Ga 10.870400006463067 11.22322575926429 15.815988701013328
Ga 11.64369141300705 15.402488791112482 16.560131882022276
Ga 9.670244975949227 11.99051704773546 13.491725705142024
Ga 13.652268261378627 10.898557810371885 10.159773941296288
Ga 9.873237862486794 14.623690529092205 12.57436052173699
Ga 10.409160220990366 9.295356405768741 13.961972473040243
Ga 18.54975777556441 12.026069691383169 11.596104864143769
Ga 10.791683620014169 10.476837613254046 9.251276663184694
Ga 9.998259302873786 13.912416832445773 15.28711697952133
Ga 16.849641814902267 11.745555337824579 13.653539585179988
Ga 12.823393020206517 12.532957352523042 17.01016639212249
Ga 15.05247969456278 11.858707862777635 15.626945333780736
Ga 12.192502871322436 13.564231866997101 11.569992639890154
Ga 14.393260790409268 12.179435443101319 12.559270981701458
Ga 13.517937130497472 14.545386787730362 18.469973099965177
Ga 12.48608128423812 13.223563919226892 14.316960714920423
Ga 12.04849878730017 15.79182544270251 13.782817380937475
Ga 14.640600890652752 17.183354134235422 13.96799098205268
Ga 18.43752308048593 14.258697502561999 13.207430577290905
Ga 16.5088264022375 14.038466217593783 11.283702668949184
Ga 9.812102233952201 12.645867246802505 10.792795669186672
Ga 14.150553985784079 15.400816203805851 12.000384019504107
Ga 14.371631617043821 13.78229514287858 9.773043628105459
Ga 12.117689837500388 12.859004718515365 8.883701586145708
Ga 12.586839273195228 17.925588675485567 15.422541069956399
Ga 13.056521780049033 10.477325144320487 14.257952925913836
