35
Energy = -90.010192 eV
Ga 14.807715121228583 15.045462006788792 8.729915855471022
Ga 12.307880931237158 14.001287550364303 9.127989942902792
Ga 14.49638045636184 14.381893902448619 11.452591364349757
Ga 9.891628394785677 15.082203260005725 10.278034979193585
Ga 12.272028332876888 16.36006946428693 10.928623700775063
Ga 13.566021147975691 11.785996738936255 12.426789672642313
Ga 11.797191145624904 13.64538493124053 11.716505447314045
Ga 14.49605396679844 13.614177972694353 14.369825892886096
Ga 14.784350413264024 12.256378640903986 9.690167908818909
Ga 12.887451423768487 15.530898677009816 13.554746259061421
Ga 12.281222762385337 11.192423858485414 8.332807819057503
Ga 10.075346326377808 15.491488674957036 13.19153915893429
Ga 13.985745453374506 12.79716759420006 7.230138997917131
Ga 13.40751854502128 9.832089397684413 10.393975034051284
Ga 13.158881600982003 11.020130892969375 15.163445756653903
Ga 11.546549596085429 13.100542102824205 14.333543233781024
Ga 9.06227930060111 13.15348057936317 12.282319028024455
Ga 16.053958326593612 11.090612577838886 11.52967339206873
Ga 7.52330473135292 13.7449142848081 9.99351282862333
Ga 10.114520324582905 12.411459035909845 9.440248317752575
Ga 15.480548393825803 8.357797361769869 11.065243542056805
Ga 14.107824771035087 9.122804449619663 13.25529336750628
Ga 10.659486927880359 11.083726378216287 16.109363454103573
Ga 11.142222493208868 11.05712985268576 11.618379967710338
Ga 8.978687289706341 13.411426955574646 15.220242105649268
Ga 15.78904103562815 11.36073950377217 14.302895275339965
Ga 9.19105586054825 11.012111501952223 13.69630249416598
Ga 16.97160623755921 9.109269685836024 13.241452513029712
Ga 8.079259301200901 11.195280302561931 10.698216370568844
Ga 10.59573001263534 9.443232547542442 9.355047992463366
Ga 9.041919860509752 8.494617273083119 14.65835516578107
Ga 11.5421733187573 9.26890026845338 13.837666543753084
Ga 8.041939328065183 8.586067170139842 9.85789686483197
Ga 7.181361576246101 9.234792520831178 12.52774646785632
Ga 9.841371868909409 8.6905770922504 11.921804180361393
