35
Energy = -89.88112775 eV
Ga 11.245795319666543 14.111430112807028 16.24355334475225
Ga 15.770394063434502 11.833706109127478 13.974328102323256
Ga 17.06379671479651 15.974460351986233 12.65075671816652
Ga 12.63388569434382 11.53266276833206 17.345070121031426
Ga 10.699423470366382 14.943518094298106 13.684547285963701
Ga 11.03268947022979 12.335331203570798 14.10572484014069
Ga 13.687408181452339 13.186172018386713 15.38203808588702
Ga 10.27691602271073 12.507642696513523 18.085720430408266
Ga 16.11278977318732 18.12924945804182 11.228521244041278
Ga 11.14650164665867 14.031068898970371 9.001786679705805
Ga 15.745851116994508 14.686910539693207 14.566416421884728
Ga 11.078800700884978 12.76231780218842 11.540803304539025
Ga 13.488264380381748 14.306051935731162 12.841566276754284
Ga 12.02429787094277 11.544677596633267 9.328071676915943
Ga 11.999719802133807 8.887044005677213 16.61330302291565
Ga 15.950334454560066 11.247131288875087 10.913027584232154
Ga 11.769450955931003 17.324238016126365 13.190951026293257
Ga 10.332826649275653 9.903605318983429 18.65892121427349
Ga 10.011678376619946 10.824585813370792 15.92629437540588
Ga 13.652542393539694 10.493201393350297 15.190460649909683
Ga 14.673478687340355 10.823858034568625 8.433710107484579
Ga 9.512546816726182 14.970370870627395 11.282644226806106
Ga 16.1166092888844 13.637739199983345 11.793817810980304
Ga 11.164518887966208 9.517819939432677 14.005853480442115
Ga 13.941821061426875 13.342962013613034 9.982892049002222
Ga 14.027998316800018 9.307328211803855 10.634147558371863
Ga 12.012009964122006 8.916882552710161 8.945905518483189
Ga 13.02019808592491 15.969104756832886 15.395184811091305
Ga 14.001908210437133 9.036537570783539 13.157589033361216
Ga 14.487438954502919 16.807930382489428 13.277765241399287
Ga 12.17094247115968 15.675692513412924 10.869974426595785
Ga 13.433559866985622 11.669050408805173 12.357451976776446
Ga 13.280540650071773 18.191865370575062 11.130574301712267
Ga 14.866427412610598 15.716047536137689 10.555879446833071
Ga 11.353660419493417 9.767494123030083 11.487373273258221
