38
Energy = -97.51448579 eV
Ga 10.890753872008004 16.810704874549625 14.990534794285827
Ga 16.317091391629656 17.74007922232957 19.49615136469706
Ga 16.365448095404034 12.726685980774153 14.367322381215082
Ga 17.730837831529076 18.17274052587006 15.740150727609524
Ga 14.827693687886326 15.004766103813127 18.733442699482286
Ga 15.366725539254261 12.366080178384223 18.890054854370497
Ga 15.470152715757907 17.67032807192723 9.300205045436636
Ga 12.598459287168215 16.36396317335885 17.079655880069875
Ga 12.286458869086205 18.099759583426266 12.954630600531791
Ga 12.936828717519642 16.61010557757094 10.214727617048206
Ga 18.636069570308006 11.236564683693185 17.64727809676275
Ga 17.21075428190488 20.21010389035136 14.038883622988564
Ga 17.715749714105982 9.022883165063348 16.526823253396508
Ga 12.721690829185134 14.46041058652514 15.074735645781049
Ga 17.692544795627768 10.428952760362884 14.26944989529061
Ga 17.46890272328865 13.705007473738037 17.20836230186439
Ga 15.406937506904455 19.977655672100514 16.01791796853269
Ga 14.380124040364654 19.5156086836906 18.468167737196335
Ga 14.172057395236367 16.764103179659347 14.585955891582636
Ga 17.969969107093966 12.47543149743381 19.870197886804362
Ga 16.621958522191278 15.44555955679288 15.150520907217453
Ga 15.112958603412311 16.04939396054801 21.288685314226655
Ga 13.23814826022976 17.184694154297823 19.456807893251046
Ga 17.770292887127045 16.365013578107884 17.514647765596006
Ga 14.794596892579785 14.342223580356853 13.121753042627757
Ga 14.99018568934964 16.651531130163722 11.99240922320213
Ga 13.736172837350562 19.182692919757553 11.02115202519113
Ga 16.243430355706153 13.60660658571531 -0.5911091500520583
Ga 15.198241447168549 17.248093720552163 16.983650161529745
Ga 14.687999873150638 13.570761787454046 16.46308120376644
Ga 16.50018408862556 19.159006477237146 11.476180308588264
Ga 19.05275374998305 12.464258868903576 15.322236851044975
Ga 16.034139690909186 11.151640627872654 16.547867961020145
Ga 14.676755198526438 19.22939104095346 13.585123290354712
Ga 17.184191716428717 17.25252710805344 13.310320908565062
Ga 12.248761273560797 15.405599572797154 12.634411157732696
Ga 12.857357664004917 18.941780566597355 15.738823914874764
Ga 17.48184006049979 15.156333545299347 19.73333529465133
