39
Energy = -101.40862507 eV
Ga 8.981099303918132 10.435046708762014 5.599512639522048
Ga 11.548392086235486 11.189364188039692 6.9573657397934205
Ga 9.36541930465511 12.995452063291365 7.055003036331723
Ga 13.408500208080419 9.102785822552637 6.923744008514665
Ga 8.045381996825403 8.335430627068106 7.36466504933869
Ga 10.662423047794588 8.559315085580518 6.850498211171918
Ga 6.76701410206939 11.145959675360931 7.162398831136631
Ga 11.7248802193356 13.493082416373381 8.629899468612582
Ga 13.790254693747471 11.25534105137606 8.817645285873972
Ga 9.307134980327126 10.625663970749807 8.616564039976618
Ga 5.595773355941384 7.435702488257054 7.872454550845917
Ga 12.264723456862207 6.662077540613361 8.196850038624381
Ga 14.63766322213364 8.230489495483912 9.48122620329434
Ga 9.495702176809546 5.968191461636532 7.797553195434002
Ga 9.421259310270806 13.221985144667407 9.875687902168345
Ga 11.965655676247462 9.393388269616707 9.345047616387903
Ga 6.33015280990493 9.55989736679095 9.358276311846112
Ga 9.829756156526521 7.9884540575997605 9.678840081442138
Ga 13.824245864203329 13.542344460190126 10.376299377259082
Ga 11.778467227307152 11.582711191530713 10.847336574573252
Ga 8.944279719249744 9.997481453910519 11.176969241907516
Ga 7.552209366500265 6.573963148925242 9.84819242319372
Ga 7.080419997818871 11.99128111272772 9.983110013737928
Ga 5.000136842963706 7.378287350983267 10.62339596524441
Ga 6.612816042393262 8.939296841141518 12.09488512817159
Ga 15.641896811986706 10.734937305490112 10.764043176893871
Ga 11.040068011252092 8.71589600194166 12.620172765520547
Ga 13.39851753210554 9.524947284173754 11.709268623578662
Ga 7.624597408755932 14.152481525509929 11.759272715214175
Ga 11.297212652315324 14.238551997264059 11.680918408418181
Ga 12.301274023268592 6.990303521882474 10.924754915322223
Ga 4.726595832692886 10.929418940139925 11.276330317436893
Ga 10.039018451026333 5.273865041330393 10.722702757127896
Ga 8.774504734422898 7.2741497822738586 12.31626571864278
Ga 9.599089343333922 12.224330339831756 12.548179327579591
Ga 7.037162255102885 11.565155904400795 12.76339185917076
Ga 14.06308376788938 12.019540415207642 12.709848351709514
Ga 8.94603480859617 9.790361876999357 14.166046813412486
Ga 11.753084359715189 11.13896823091053 13.681284476154874
