33
Energy = -84.23167448 eV
Ga 9.782043002825722 13.84739132795829 14.921776389807187
Ga 10.479801215783622 15.232072568260774 17.198007441380614
Ga 10.452820999051077 9.494178235412573 11.747754171492392
Ga 17.05388650688943 15.816218312144775 11.522912870622973
Ga 14.105049783983887 12.867270831792029 11.860968750899227
Ga 15.369221695224494 17.021458969197916 13.05345351584867
Ga 12.373836100845965 12.503750887002699 14.326646704398309
Ga 13.990449624925727 15.562489969401211 11.207884723021232
Ga 16.884798076615745 12.227854613937613 13.05207779904928
Ga 13.266339646128849 15.669704626654733 17.573173706505827
Ga 14.18760697178657 13.007266184560752 9.137413458609991
Ga 11.535955075669483 14.495887162403058 12.607372093706017
Ga 12.085993831160598 15.417300137330823 14.995912600931515
Ga 16.42633153275771 13.082685471741547 10.669834123692597
Ga 11.354682556702247 9.836575706947839 14.286387129533498
Ga 14.879496500440608 11.319199153643199 14.288354250487684
Ga 14.422596756399942 14.562990966524135 13.856205218547034
Ga 11.711788922982988 11.87722629720999 11.192170993278335
Ga 12.121988097155274 13.130465495271384 17.165387822134583
Ga 15.687627771280424 15.308693492302764 9.022374745351163
Ga 14.60582976649602 13.221942467670944 16.336998209837226
Ga 9.201575135909561 12.973607296524692 17.95159308614275
Ga 16.103401421897036 15.43321076353071 16.153519629860995
Ga 13.326499128987713 10.153758531611528 12.54259101266645
Ga 13.269026282405422 10.637332841944197 16.321273738823137
Ga 18.337288024048924 14.624339990018818 9.45294152474563
Ga 11.82157488633729 14.382626347139317 9.960555214900515
Ga 17.293247776607206 14.78659631636285 13.990144835324244
Ga 10.412811106865396 11.262562446864486 16.335662764682912
Ga 15.27781341566737 17.496364047475666 17.71746457262172
Ga 18.886257931085744 13.651352212266499 12.107375582230192
Ga 9.812146899349877 11.927235316586437 13.158980608686914
Ga 14.090605216499204 17.174928954683757 15.279087481231471
