34
Energy = -87.40427755 eV
Ga 9.002522401214831 14.872143951541688 12.441892082441523
Ga 14.019858856384849 9.615781134566344 12.177230995068221
Ga 11.723753545328242 10.902956494238605 12.395793897345586
Ga 15.221652325859525 10.594274294098037 15.582140541893235
Ga 16.010806298729374 16.525961102992664 15.26494144941326
Ga 7.5522051332353595 12.798612905166879 11.46544283927602
Ga 15.233445371137202 8.26043784415748 14.209861365306452
Ga 13.301025034080048 12.45223627942228 16.306134959099037
Ga 16.38000349718703 13.163032580122271 12.159293100390343
Ga 15.690747588718352 12.32615039412412 17.60907309989703
Ga 8.91975081922607 14.283635994312126 9.434361461944503
Ga 17.85701857424435 14.960047859537331 13.987295011772643
Ga 10.354204156151056 12.712673358454897 11.113547732929309
Ga 17.58785548328967 17.694923498583808 13.360582820495912
Ga 13.089077524690213 16.98407286061473 15.7310745323731
Ga 17.395084266062028 14.491741906581916 16.810699490715294
Ga 14.628560041924827 14.865388884243401 16.798485378459947
Ga 14.845335237540716 11.551568767120928 10.506550103669834
Ga 15.153758849628263 14.330543675468284 9.887337018175879
Ga 10.990794312148113 15.592958073063505 10.602110629947882
Ga 16.183251019569123 15.937821561327768 11.904515403614543
Ga 9.089481432515527 11.43956858989657 13.230223797772105
Ga 14.485832189999142 17.57329509805625 13.38252151183307
Ga 14.003047014785382 14.74934296693862 14.034430660414097
Ga 11.578919403314668 14.483150462380413 13.173626248903968
Ga 14.007209838576635 12.167845845833964 13.406260159876737
Ga 12.752421640346936 9.69206554090333 14.731971615506808
Ga 16.542541671676325 10.661875506149318 12.981274743910351
Ga 9.45840615895214 13.781113832339727 14.747445900422472
Ga 16.142469219770994 13.106749312490091 14.867629373912099
Ga 11.10110887932917 11.715228101856095 15.081250830628926
Ga 11.672734937884703 14.61563201443419 16.025186289808236
Ga 12.834999357793095 13.203830068848362 10.90531293247564
Ga 13.412484442952113 15.900526483503706 11.589291777488935
