41
Energy = -106.87902291 eV
Ga 7.650575167851991 8.407635350270292 3.493386202373654
Ga 8.432579101870827 11.014899164071595 4.90604698676362
Ga 10.829714597224482 8.959102265385988 4.611755234149169
Ga 5.912381843157943 9.631092936611292 5.518748003217156
Ga 9.135467966537622 5.92892980388556 4.895619278000055
Ga 6.2821926550509835 6.643281488084197 5.532278113032131
Ga 8.44301025971935 8.439696254542122 6.032766334546105
Ga 10.808316960497137 7.12220118422774 6.87358196757831
Ga 10.225197291522774 10.317891496633147 7.15081362677917
Ga 7.298063566941943 11.10929892931829 7.51909872596387
Ga 12.81895662443334 8.981694602204161 7.277803571225189
Ga 8.932937349430203 8.451077471418019 8.563745058277577
Ga 10.313130411392594 12.882847359721184 5.595042394331136
Ga 3.9179552751723654 8.067357773181183 6.864675795569472
Ga 7.962175068177845 5.54054220341336 7.53699294939319
Ga 10.537795022328952 4.422051024303386 7.684171290110369
Ga 4.741518242771617 10.478739206197238 8.531662397362252
Ga 5.186532645512173 5.717981363417568 8.166875781203489
Ga 9.270618838369916 10.758179583056618 9.733798084057657
Ga 12.66361626181942 11.610411212150872 6.744451723653445
Ga 6.415197170994292 8.18946170846703 7.900367242311845
Ga 9.264929275721743 13.015258126165813 8.119106026658004
Ga 9.85483362188816 6.362348731876236 9.601510775170025
Ga 11.845988364371355 11.808286606759946 9.32488121207662
Ga 12.678362134493955 6.473706121177901 8.93648949056979
Ga 11.630564131527496 8.974116364091547 9.788678198585835
Ga 4.456077134410769 7.985691238057885 10.242867636924146
Ga 8.29525113879083 4.090357678154944 9.928151115615265
Ga 6.959523218845499 12.38405052084068 10.09922592281613
Ga 10.997338703925346 10.525923824111418 12.031801485150138
Ga 6.944441303256031 6.612900042759034 10.262295263997856
Ga 6.885208290241745 9.523901977120195 10.142241352572809
Ga 5.131798985420785 10.758604427891683 11.80092439739121
Ga 9.110490605408112 8.416936456294112 11.295196770099368
Ga 9.752936612582202 13.009150756719974 11.089462704726257
Ga 11.440274565303126 7.053546135941844 11.898375991903274
Ga 11.370104300838012 4.477751508327451 10.655412432556853
Ga 6.694728099324528 8.251908717548067 12.685037597997416
Ga 8.714557201321286 5.754950576498702 12.329127341084853
Ga 8.09879976607572 10.958615952188522 12.480464084580511
Ga 9.819273213670812 8.61103484510944 13.878482427820476
