45
Energy = -118.74308823 eV
Ga 6.864515709526127 9.858073980016924 8.965908000518457
Ga 4.819468474856788 6.758955034730847 4.808901962437303
Ga 10.177952722108376 11.373189275195498 5.661825380660032
Ga 4.240811712173013 6.060617211109776 7.6186998801209445
Ga 9.13287319839123 11.258569826386369 11.168725891130697
Ga 9.995008172024464 6.841984636918573 3.551797030504465
Ga 7.170269547267153 11.615365384541487 4.5327243112584865
Ga 8.956256063347698 9.68457968150655 3.8196551015894635
Ga 8.123848156095821 12.714318143842412 6.81279257296338
Ga 7.5081849776482485 4.436208604378303 11.045677707227261
Ga 3.6971120578675816 8.058690148203382 9.537365940944978
Ga 6.483796260086871 7.186654857328965 9.418055786910147
Ga 10.48229411681557 8.072339995921626 8.200774595712748
Ga 4.45334935334798 10.994658624091526 9.452862906539654
Ga 12.238939193948246 6.836718262785241 6.287404692800707
Ga 7.760569485785634 5.268679092043472 4.435450803806709
Ga 7.738259951437794 9.552380244714099 6.421788419374687
Ga 11.624974944612426 10.053799336684982 9.974572827690338
Ga 5.387962965758427 9.632255503368118 4.674373447885275
Ga 11.428558981613437 7.032067981295568 10.670538041894176
Ga 10.507713969491308 4.81139431609243 5.427640415163721
Ga 11.354470661548257 5.106505651604853 8.391257899683854
Ga 4.724927519662407 8.840249001097824 7.113795513665338
Ga 9.147854264938612 6.55158137995957 12.316765055604847
Ga 9.455708057649003 10.782539245142493 8.326365257983873
Ga 7.134822275320444 7.805692351920864 3.717101882397475
Ga 5.066488433403094 8.98577472966175 11.58574532122401
Ga 8.768069319049975 8.536615624971638 10.140231275926133
Ga 12.108333133891232 10.082787075004267 7.235032151215361
Ga 11.420184791694696 8.907034764080192 4.786835847821989
Ga 6.802508804238873 6.816430309661361 6.785425348000604
Ga 10.464507705912512 9.062092043254182 12.324701579481017
Ga 7.178552535776276 12.589364671786786 9.315416788636895
Ga 10.279853809636506 4.418580518355045 10.882823463882989
Ga 5.5259302865631525 11.499460221724954 6.916614457460505
Ga 6.363383183231581 11.413143073525323 11.590683750891454
Ga 8.843807304087624 6.068547831359129 9.010679205869325
Ga 6.37951295960764 6.666789127581282 12.206002559325702
Ga 5.688738126096231 4.242390050075168 5.972616959498624
Ga 9.229298026347085 7.397413926534424 6.106024025527598
Ga 13.146606937450859 7.78185440635153 8.69438541691906
Ga 8.398809371827875 4.323463608414176 7.010679596120597
Ga 6.18469511176582 4.197577361147234 8.69303422461342
Ga 4.5477314124599095 5.547773178866355 10.493180325562195
Ga 7.774499864924092 9.056853618050804 12.679080286840307
