40
Energy = -104.2750466 eV
Ga 6.311133351061609 12.319850174670997 8.997441703246222
Ga 10.205130017978773 15.119299919109846 11.654873322130207
Ga 8.21421698248372 13.792400405939082 10.061509516989409
Ga 5.012691201391062 10.325010500739435 10.286059927908171
Ga 7.016276214308851 11.754781997896995 11.667145695175197
Ga 10.71669282896004 13.78391331224384 9.046294458619332
Ga 6.457381125688063 10.119718405036458 7.477275642958098
Ga 8.456636245927916 13.482531892140226 13.165761494402584
Ga 8.917797099031954 9.161015443260288 7.16652055983625
Ga 9.018808853331247 11.728727445084091 8.207843650392322
Ga 11.176321294569872 12.380636891218627 6.556993461658906
Ga 11.413232490845504 13.267433373460833 13.567367846899772
Ga 12.475874845889892 13.392069211025031 11.04633101760274
Ga 7.739189882933551 9.63256971670732 9.926315558866376
Ga 7.287259953490618 10.970218644681129 14.280897560747833
Ga 9.905036970498573 11.87654701858419 11.273053054668749
Ga 13.406461672647728 13.406128487869886 8.201474518872168
Ga 5.719181776759249 7.908147450319807 9.006724614054622
Ga 5.8956253555768185 9.20098817509942 12.643295609626103
Ga 10.353983702785811 9.272230042347651 9.919074989357172
Ga 14.308384271993402 12.937716863233735 13.072596549073173
Ga 14.92149280260472 12.687236097166737 10.293449533232188
Ga 13.764866275529531 10.953418740084324 6.820628988781608
Ga 12.109785013767572 11.246162591929586 9.250121403170544
Ga 9.997484772524738 10.975203032793093 13.988849503199418
Ga 8.336921836108392 7.041423920647485 8.815688541507889
Ga 8.669024065260244 9.239456480949663 12.391397503411326
Ga 6.9161225441269165 7.049496001226016 11.378336931617755
Ga 11.446208391896134 9.608823770006861 7.083036476216294
Ga 9.6678030938911 6.840600021080811 11.300743306443199
Ga 10.992995598576119 6.90560253832514 8.661994392568301
Ga 12.815889769058439 9.330600570147032 10.854815007955807
Ga 12.545057229736193 10.849305372838323 13.06716344867515
Ga 15.05578209702236 10.277110152164417 9.07642531933195
Ga 15.184052979296046 10.36225399969505 12.12324589896431
Ga 11.073049747429954 8.417945193676026 13.089281185447346
Ga 13.431843559770437 8.149831095700941 8.287150658750464
Ga 13.696816107957856 8.191161538072258 13.363898684920933
Ga 12.636662296187348 6.591008424431367 10.838131518817436
Ga 15.169763030902178 7.890362438197512 10.529728293704395
