47
Energy = -124.74552617 eV
Ga 8.66311047514549 8.121589821213783 3.478839593679789
Ga 11.022456478825958 7.206987074392179 4.910886533092012
Ga 7.4669934088690635 10.497688585629822 4.438077805925384
Ga 9.261664460108202 11.934758406589744 5.818978984782635
Ga 6.256994291714263 7.654918615713918 4.975187526010628
Ga 5.134841799645404 10.058105489435873 6.020509506389596
Ga 10.940676122549345 9.94441282358718 4.95721572580489
Ga 8.580832993162701 5.910549548024346 5.1764617184861805
Ga 13.219122366547868 7.405126221571716 6.658005559646163
Ga 6.413500570677363 12.566019119625055 6.264178482301619
Ga 6.25649464920901 5.5103331905216075 6.617021707371067
Ga 8.707783793725513 8.692088275381057 6.191293760235762
Ga 10.861154761671926 8.300155395437471 7.658398160996188
Ga 11.041856113382737 5.175132354232541 6.927945754552332
Ga 4.103727670904896 7.605165587152611 6.966004086557444
Ga 8.466368431178717 13.233994672820602 8.151264206249738
Ga 7.557106771978635 10.54698259795533 7.701375428331557
Ga 6.6165349103413345 8.127976328701823 7.874601955714267
Ga 4.544363765097768 10.069569246439656 8.66065729920937
Ga 11.330922042613754 12.569798998683673 7.545036378318764
Ga 12.708548879421528 10.234043695261882 7.09824306247775
Ga 8.578660997279536 4.0055113641306095 7.279070584148514
Ga 8.870514783078011 6.596810987537863 8.080540944261898
Ga 9.982849637877518 10.547176507984469 8.842646276592747
Ga 5.875968023781076 12.352913426955181 9.048772689252576
Ga 10.403102186789335 13.066298684918959 10.156462352516398
Ga 12.325232425693981 6.2094465938628 9.12851308206896
Ga 5.663769816321225 3.342922226477055 8.219162148951748
Ga 12.495082739534503 11.278511125532935 9.9831335896919
Ga 10.209940307775428 4.567396820374403 9.79477726830996
Ga 7.791502790626306 9.952001344225295 10.351937326314014
Ga 4.979933354254574 6.056739847742416 9.172784795715348
Ga 10.040566603848584 8.144396545790944 10.190542352610443
Ga 7.477113210559287 4.545566616334274 9.910467902827465
Ga 13.323527724651413 8.666477464944174 9.292675760052212
Ga 7.490371498524715 7.354277355877873 10.201815483300372
Ga 4.750319467923268 8.265696800158153 10.726992376813524
Ga 10.237375102122645 10.933347192150547 11.839973725385873
Ga 5.43357049137682 10.905138995352251 11.493230630907748
Ga 7.797983965476616 12.631159371314501 11.028873097903489
Ga 11.485726848103065 6.3787519825428 11.78337169445247
Ga 8.768406293989951 5.881853697029366 12.140913496651491
Ga 12.11776773751979 8.98804947045333 11.813626574095471
Ga 5.966869684764322 5.840784526156987 11.902262834380611
Ga 6.769545988881312 8.36891548386413 12.69279270898911
Ga 9.601919364948316 8.406453578165555 13.092461613209146
Ga 7.87354575594744 10.814227500172347 13.208237012885387
