48
Energy = -125.77900584 eV
Ga 9.969514288699097 9.437263029240077 3.1850498321558747
Ga 11.214206164965486 7.587950756543987 5.076399538964712
Ga 11.327242347100935 10.316952295950841 5.387164982442761
Ga 11.797851273592801 12.931732480416251 4.873760456117652
Ga 9.000684191171834 11.773220875542899 4.518360366147709
Ga 8.821322386036453 6.433493463189725 6.116694384712235
Ga 6.059442837436363 7.849434061012417 6.099297984705892
Ga 8.35717589340795 9.119061935048594 5.349031156809307
Ga 10.46608849552677 8.663387931519921 7.474941516304662
Ga 14.207386666016667 11.310083172451186 6.247291775902784
Ga 7.509895311060366 11.498818916355564 6.8025020140515595
Ga 13.4420770694318 8.687667544617183 6.742895187740026
Ga 12.043246599055383 10.995070512559002 7.900615929896332
Ga 12.000565951327417 6.202419483290094 7.33745430914199
Ga 10.068326705046152 12.755205801475574 6.994493881626324
Ga 4.878010508735639 8.298265066009852 9.844095448770341
Ga 9.784448407887279 4.537525417489199 7.867183579401199
Ga 5.302853413374183 9.993975741667233 7.657691122223574
Ga 12.841977411634755 13.67046784408113 7.575903191945095
Ga 9.620122583917674 10.72923950508362 8.871175290561995
Ga 6.871264101781138 6.327058717803685 8.254001536582285
Ga 7.886846871096416 8.774276847561786 8.04269866635667
Ga 5.461287816160705 12.757108027138129 8.398306512545457
Ga 12.569669042436379 8.135472989887994 9.303686966598578
Ga 14.35306129784169 10.352050140346126 9.120869302385238
Ga 8.165858099233986 13.23758603478758 9.122941843651574
Ga 12.07912693160991 10.665847009731294 10.718144848059802
Ga 9.68033069445472 6.984259701177814 9.373681303635435
Ga 11.768479903688682 5.199935847872515 10.240263606901754
Ga 7.103457759081544 10.679573517687256 9.697722560217356
Ga 8.185072659588183 4.507422231813444 10.145109675861585
Ga 11.163891758188354 13.17422727910709 9.583710672870978
Ga 6.647985594355795 12.716028571523243 11.590470366658927
Ga 4.453097187938634 10.939450385176663 10.536643808799916
Ga 5.276211889451592 5.621029118452504 10.24153526818711
Ga 11.612914164030622 7.721762989153036 11.697093266624494
Ga 7.354158525302412 7.390537404108177 10.840486215021082
Ga 9.353412549708223 11.870655522116307 11.375348442910113
Ga 9.239445078298415 9.080509946581465 11.468039016797396
Ga 11.17096529374016 10.177655291907389 13.067955955300963
Ga 9.612955188641436 6.043247106436041 12.086444579251035
Ga 6.505089676464535 9.805381836088944 12.187728411229894
Ga 7.181931492966783 5.234337928256352 12.71547402150201
Ga 5.185983228682002 7.531358218714056 12.731769449241087
Ga 4.507282202678713 4.918108277699202 12.716045656675977
Ga 10.50965709100824 7.798701607129184 14.286538084005105
Ga 7.87915008977872 7.8948120590715956 13.65920811556217
Ga 8.586559122427795 10.74795337518642 13.953663713004149
