46
Energy = -120.98267468 eV
Ga 9.955255872658627 10.457826363922145 4.595667527619368
Ga 7.190916896046935 6.35377605836995 4.250591205269847
Ga 6.897831712036011 11.758770241251945 3.846984115175902
Ga 9.617117108532284 7.703541428810101 4.31763656760626
Ga 4.957476649302438 9.660312802218519 5.059053913333102
Ga 11.31373332302312 11.854709309723953 6.443076546358602
Ga 7.518908535161254 9.229683484929353 4.7783301874483675
Ga 8.438655098852747 12.439612103951744 6.139055680199789
Ga 9.508864387741541 5.017714704487355 5.283547737251963
Ga 12.106837336535886 6.841129960447523 4.428923899022162
Ga 5.106989940165663 7.058129109570979 5.781978518341007
Ga 11.486664097278684 6.159318949084914 6.963782822610079
Ga 7.023420710761866 4.702893761013107 6.699324564685589
Ga 5.808252643236022 11.727311616181048 6.594012980414324
Ga 9.522743662721957 4.726154165045135 8.062447169472607
Ga 11.654816979348832 8.901520108584894 6.2190581803765665
Ga 3.437860981766995 9.401232956944064 7.305358937454141
Ga 6.2383079541873405 9.114735701178873 7.626939804023979
Ga 9.70236304353821 12.65258915880198 8.564742466356734
Ga 8.961096641460351 9.987133239336064 7.367253232079321
Ga 8.279319828014014 7.329831877820489 6.821604921853657
Ga 3.9788255157668058 6.934227744276061 8.210786178460614
Ga 12.164850225476393 10.234152616355102 8.54433689215269
Ga 4.8423219098538555 4.490717416492666 8.65781265723412
Ga 13.238695674603079 7.6670059290110615 8.555991001650424
Ga 4.39462468033139 8.604968260436342 10.323981014056004
Ga 6.694796952486931 6.918806454034839 9.054581825390887
Ga 10.22480434612162 7.976337321799411 8.626957840782605
Ga 9.486400537658824 10.093999228637967 10.038523005733925
Ga 6.870128983810888 9.797872776740926 10.29641064547381
Ga 11.658148658904109 12.172964363451605 10.29428407977781
Ga 4.895077949736057 5.99287721085937 11.076747355330589
Ga 8.889485634244195 6.581382059831028 10.345380520632487
Ga 7.109776951214142 12.237649086766742 8.953664220759958
Ga 11.948930404611842 8.651094804840291 10.913315121558036
Ga 7.328172888480243 4.185719117768238 9.533803443635664
Ga 8.657921612478146 12.517405425686531 11.267832599034408
Ga 4.674305554090716 11.090536093945058 9.081109672285546
Ga 11.606051745187676 5.828372334672436 9.849727101229195
Ga 9.836024403070136 3.801218384219851 10.568400822448627
Ga 7.467083735410125 4.941959990004258 12.22154021076335
Ga 9.700996524537226 8.147523695815956 12.57385955940815
Ga 6.897486495226827 7.675953212547508 12.136016990746155
Ga 10.72990064316839 10.664649672635317 12.391466488483589
Ga 7.8992314051294334 10.218606168279843 12.85297420807708
Ga 10.201083468357396 5.618633831545259 12.603685870268487
