40
Energy = -104.56655083 eV
Ga 13.081341443173404 10.81372189132074 14.364026295848307
Ga 14.823388161703152 9.535007733685724 10.135396778569836
Ga 14.815161256520684 11.45062806107659 12.06307448227825
Ga 13.482847014753462 14.110192097612304 11.46332158301595
Ga 13.56910241020243 13.4259906900953 14.066889610348014
Ga 13.832656182978175 12.203494528506631 9.49607944478871
Ga 13.18359285840144 9.839869047732666 7.929470691226811
Ga 12.720366667110406 7.7157705487385115 9.876983551088296
Ga 13.37024124124722 8.912058228090341 12.501336137795077
Ga 11.1345281646188 7.971392744138682 7.663123935617957
Ga 10.657078277880576 15.074988111300442 11.975191785051543
Ga 9.90993462307161 11.905616783505609 14.939134151571183
Ga 11.987817313254018 10.443716252794555 10.618183674128527
Ga 11.455064074284248 12.351109777729238 12.545813324244667
Ga 11.276609574029422 13.24305313797955 9.893756575530446
Ga 12.13024894834257 12.406118996480458 7.446975324407872
Ga 11.016323973938913 14.306090021416352 14.528055549511924
Ga 11.533609751973563 10.023999892903614 5.827741404535472
Ga 11.328313271188929 7.268176306195561 12.23047871361443
Ga 10.685884937905174 9.7542805433829 13.25364359165928
Ga 9.31137165291478 11.366352704078553 11.1069508297332
Ga 7.967952036321869 10.770342362349243 13.480695951540914
Ga 10.067133538665582 10.576459220661786 8.26702038825059
Ga 10.826301093926675 5.897339947907484 9.603052257738486
Ga 8.278858060949306 13.693448707920174 13.250074860201774
Ga 10.190139075426279 12.42380682049367 5.412181198610445
Ga 9.717493361414899 8.561829528725797 10.15371068314966
Ga 8.404257410210983 8.274191449638408 12.757943297405967
Ga 8.644248772229348 13.985705641430581 10.432875864222714
Ga 9.381186192009451 13.350600761176246 7.943303267281075
Ga 9.025742727926414 8.813567813535947 5.851322647568097
Ga 9.103895965102398 5.898327137212361 11.8362330274884
Ga 6.523651626465083 12.389905666284323 11.634935879545607
Ga 8.691829113448257 6.739834897429222 7.935882916249039
Ga 7.224480563940355 11.887445405290896 9.005043987155549
Ga 7.890706941023679 11.277600863163144 6.4834412557368655
Ga 8.255787771712278 4.574020761825337 9.652896917035834
Ga 7.534117734774124 9.206833108212452 8.311057035807895
Ga 6.910986948009469 9.716607045051108 10.925679678835154
Ga 7.135664100134579 7.168861790171081 10.267392292486274
