46
Energy = -120.71405717 eV
Ga 14.124128198164067 13.474963588374468 9.925524236525378
Ga 14.902438509079483 13.747871391007742 12.55056044210615
Ga 14.768889311664287 11.01757469147972 11.165694887031675
Ga 13.291541167536531 11.02229687163356 8.914534554568048
Ga 13.541513053567375 15.994596470982069 8.301513588012956
Ga 12.82905570727307 13.502560922109504 7.490013831342109
Ga 12.116878305104931 11.101336435522553 6.420713394013966
Ga 12.77234566295507 8.686353867007513 7.5900369252330595
Ga 14.01762931761057 8.393311678857438 10.088533146529072
Ga 11.226690341051032 8.65104117975613 5.21675954725134
Ga 13.949456189782609 8.905447140008402 13.018445290134295
Ga 11.48492065181108 12.742353479558236 10.191374213188421
Ga 13.550477519475448 11.558711416924687 13.640282450754514
Ga 12.58903449139895 15.559652016904415 10.875331817932654
Ga 10.813888969037102 15.154742988040635 8.731152917226831
Ga 10.590319201726768 10.308327924509728 8.69136673703391
Ga 10.315951883338657 5.444366912212443 10.67702353322329
Ga 10.116716015356502 12.815159500795664 7.520260609726246
Ga 12.772069127127821 6.380928872349485 11.367134144746917
Ga 11.980568470105323 10.195728785864233 11.436834365041838
Ga 14.015292647186564 6.317177650611123 13.689272378217796
Ga 9.355705556872113 10.491208270167688 6.021418551750171
Ga 11.952302567114407 6.294300845471714 8.646915856535248
Ga 9.781298672272628 7.823423823008 7.584190426534801
Ga 10.606803762761094 8.162077787297147 10.323184064886393
Ga 11.589591864671933 10.027485519731073 14.381980915677516
Ga 8.218078375470668 14.491079796256791 8.948371762551636
Ga 12.180322869798482 13.95804807632848 12.949750177641777
Ga 8.898344732378812 11.928638704251428 10.337946974625138
Ga 8.074897681978843 6.499674405591196 9.470115378738532
Ga 11.542164829912519 7.446752990150222 13.745484514430549
Ga 8.0386463583436 9.34355397699001 9.266998864452454
Ga 9.9225291018061 14.848064030663433 11.410744051361657
Ga 7.701511984698212 11.525294444427674 7.830475247334643
Ga 10.347318943488764 12.046687390237706 12.717765725209679
Ga 9.360152172338164 9.51662155538064 12.33066592496366
Ga 6.11571083527945 12.883316605370437 9.592025568797403
Ga 9.006953534755157 6.7476432606127315 12.636113219968406
Ga 6.8086029973554 7.896058516787447 11.45978703226793
Ga 9.259342176580287 11.046944098122443 15.419647520421547
Ga 7.438139645109196 13.884359922629903 11.761309658654717
Ga 9.356549498412544 14.256972688319033 14.127285347469574
Ga 6.588340077936769 10.632913287343095 11.20059150725317
Ga 9.366239858495469 8.258701078211745 15.014669109621789
Ga 7.710904281767546 11.842023670024895 13.418368325192931
Ga 6.996771922093634 9.16068051416004 13.888860305862952
