41
Energy = -106.94670163 eV
Ga 13.932623928613529 11.34146847603465 8.427549118873968
Ga 13.77256900910657 9.8826600576178 10.65733138418823
Ga 14.223356111057342 7.534656521779387 11.838998085942855
Ga 14.375851260321038 7.449694984903671 8.85744388974873
Ga 13.328612427761389 8.638393874661082 6.5652483545739315
Ga 11.776746324929745 12.005912881122589 10.095258812770375
Ga 12.29447426726191 13.537461026499617 7.845727491016661
Ga 12.757618383477428 8.67354663564705 13.96410469956364
Ga 11.933734160520155 10.95282886364656 6.535152947581395
Ga 12.25233379053287 11.03925901925234 12.688656830678605
Ga 12.158364698154395 6.180820327041229 9.99136746522488
Ga 11.939148490942607 8.918614129455616 8.850467334642117
Ga 12.43538419298902 5.563393663836291 12.658304345402222
Ga 10.050463878848914 14.26126433738053 10.285427320074913
Ga 11.78705217227186 6.195289010200867 7.298198595724176
Ga 11.454436114711413 8.417576109116299 11.442888312514135
Ga 10.663205782276034 13.129209224874202 5.400888102912019
Ga 9.179030465888273 10.66139139082493 5.970696898241022
Ga 9.5430176180067 14.840386182635974 7.585567037906291
Ga 9.823222227347024 12.222864280649604 8.166927408165174
Ga 10.442019955086092 7.035794553906302 13.87293912734846
Ga 8.782358600418151 8.530276913275513 11.224322953038161
Ga 10.309359795468604 8.404320920757797 6.637783654789712
Ga 9.988957997794543 9.662055239240138 13.470247988508927
Ga 7.780579705099388 12.994425027376929 6.097791026418504
Ga 9.52413461045306 9.877933285124946 8.997238609088567
Ga 9.613757882306246 11.638012240364931 11.558614994195024
Ga 9.805781968929969 5.90498708606258 11.460353384194738
Ga 9.562536060806798 6.885619584495819 8.85432238558286
Ga 7.494195489595397 13.567848670148425 9.010114278542611
Ga 7.011265754821067 10.890618864118926 7.6548274125048135
Ga 7.2623953970163955 10.776567426346332 10.36758291354613
Ga 7.267240359159117 6.13443889502047 10.560440889534835
Ga 7.696779800679266 7.640754774910822 13.636969008652448
Ga 7.246061956917335 8.243473217082325 8.665567179808473
Ga 7.347587431101246 13.220570790776133 11.776696027862567
Ga 7.502345100473988 10.68132468035163 13.231547705959523
Ga 5.160155773465852 12.38256534743372 9.505861663238981
Ga 4.907384235269649 9.550814497497125 9.174335096400998
Ga 6.015869066857461 8.528809033137769 11.54803889076121
Ga 4.951576635940997 11.090466402018569 12.126399844575113
