47
Energy = -123.22451876 eV
Ga 12.171728463615805 12.650372683241802 5.136497200761969
Ga 9.473601822689728 12.392620667079399 6.455775460687379
Ga 8.322394100806182 9.803901575066538 5.945031225197373
Ga 11.253940912603841 10.389113696999255 6.09076612680166
Ga 6.878276371374086 12.272217484501482 7.239255784006359
Ga 13.558393499949087 14.32198472289636 6.880485387417451
Ga 10.459527047275774 8.229420063189925 7.385372611887506
Ga 10.662482381877659 14.87372304035752 6.542062071595889
Ga 14.04452620677957 11.452922721175838 6.9865871090707214
Ga 12.733317435990875 9.498501448140711 8.326483108278572
Ga 7.911786736774117 7.963864737563137 8.132733231642314
Ga 9.632287187173583 5.645467858697138 7.936242422992536
Ga 9.514879491427644 13.832934818910978 9.102824665566004
Ga 6.109348482414687 9.930153351125165 8.221440529586312
Ga 11.681772503086915 12.38993849190631 8.25376472440638
Ga 12.38551872628724 6.796373781510756 8.954699221119807
Ga 9.305950595738027 10.674417346652202 8.64770215169292
Ga 12.00422437074029 11.087885201947381 10.693098538659427
Ga 7.908910345903671 14.762013287063262 7.114594832551024
Ga 11.956908291517635 15.519666868772552 8.893543420023477
Ga 15.000089393980748 10.832162466453244 9.534313246078248
Ga 14.027980180614467 13.401699589652583 9.440042078457816
Ga 7.546470929895019 6.059475635929172 9.9097469137551
Ga 10.519486260823818 8.787387309247645 10.184077073435619
Ga 5.42692737669219 7.913364180360852 9.760079161982882
Ga 7.36930792617164 12.187791585086284 9.866425267641572
Ga 10.217533592296755 5.822188111803958 10.572399342022472
Ga 11.875541109930596 13.97937816205303 11.01403634173968
Ga 13.905846111746401 8.807825816603536 10.825242008310779
Ga 7.580231170661309 9.453954154346965 10.65953963274751
Ga 9.082866720142121 7.722437819073093 12.251780992956068
Ga 6.130744895754646 7.004813615731489 12.227017829429661
Ga 10.10996437105169 10.244337476262823 12.593530807827117
Ga 9.552855967597605 12.673699216215043 11.560663392294622
Ga 14.150044188176125 12.268578872240854 12.017042737496475
Ga 8.074152533541406 5.045458903505475 12.449476915323007
Ga 12.258866901720712 7.083550246339794 11.88281616843438
Ga 7.020439628305234 9.220926734078324 13.462730228417628
Ga 7.294187739591742 11.656098364135417 12.45393383039387
Ga 10.6984727556217 5.4610923612892055 13.353034957300112
Ga 11.645772372550477 12.611254333203448 13.328162367521607
Ga 13.04239109662568 9.91264506026784 13.14486526558249
Ga 9.099711707534151 9.379382440564916 15.13736131905258
Ga 8.421888468991947 6.640310668798803 14.846738022501667
Ga 11.199833516769854 8.047036942922725 14.194090076703455
Ga 8.817785061565084 12.082505891475256 14.620398383064865
Ga 11.505838919783404 10.758156067724288 15.31650168774795
