47
Energy = -169.66846219 eV
Ga 6.7664263639485895 6.0348960534469445 2.931421474972367
Ga 9.319119510235668 9.915128452380705 3.4466688484284536
Ga 11.301048746931947 5.94144844905482 4.93314351472038
Ga 7.796587883363694 3.7904133791977905 4.689446353826981
Ga 5.279965444192611 3.5877502256574263 6.482710245935639
Ga 10.89530999665309 11.969998747781409 4.897598141791435
Ga 12.06505997563102 9.059840632423992 4.638173194070523
Ga 6.682181506124406 12.789763510440139 5.080606605608276
Ga 6.552012724179131 9.779778672625802 4.860007825726044
Ga 5.004197656308624 6.471189390779626 5.513420529095647
Ga 8.423053640745865 6.686446188047327 5.437860412930401
Ga 12.543764610222937 14.875838158136588 7.549037021934625
Ga 9.472095325259355 15.109928374611838 7.369058820799086
Ga 14.404491828825302 9.841541970798172 7.401594307877907
Ga 13.605001549257365 6.414654081617919 8.466314048805321
Ga 8.78084027812072 12.16059130422017 7.228827328770754
Ga 11.629820761511557 8.658580790777854 7.737158587540163
Ga 10.772590409705463 5.269774352368378 7.899647443346232
Ga 2.4616408904050697 7.500015125362593 6.9753583215887085
Ga 4.545512867346133 11.644694978265642 6.8790521629481525
Ga 6.123236436870887 3.7906644627603483 11.369142611995084
Ga 9.445416518677549 2.6049070031092345 8.695300118414325
Ga 12.536291885793448 12.05968316309182 8.716277560028686
Ga 3.549677351192154 5.50828630785976 8.980872444364273
Ga 5.943126264284398 13.1510412111481 8.995712039555999
Ga 14.695112341884483 12.612936831611357 10.887012034699762
Ga 5.034083616426178 8.419392239680102 8.234155458051509
Ga 9.967044443663927 12.67611366004959 10.950437937396172
Ga 12.488684026577435 9.406576610699693 11.671528425070305
Ga 15.261374936350595 9.596625268649685 10.347106928265745
Ga 3.8521158194313108 7.717300738792221 11.0493898454729
Ga 9.217578951056035 3.7663356039954525 11.550948815334412
Ga 7.44818774545609 10.23081854397653 11.553777897805258
Ga 9.508721682365511 6.81550216611572 11.023000141102706
Ga 12.421120986513769 5.4563090430363745 11.122026457894481
Ga 9.152412451013433 15.532446944181105 10.38347466132657
Ga 4.763958217897568 11.612635178219376 11.366380401252435
Ga 7.152309389670898 4.687001014715533 8.594311453565576
Ga 12.210037306812119 15.130847673070868 10.533661677298507
Ga 13.117859341754139 7.144792862565658 13.548100312656034
Ga 9.85884858026341 10.052502860977244 15.13975936344213
Ga 6.3564042687440105 6.650749110745071 12.368907126077154
Ga 13.545057978054233 11.55927296697147 13.512998890936318
Ga 10.091418787502404 7.178486295693376 14.04994374928019
Ga 6.963394563610495 12.856774096452542 13.115133708381084
Ga 6.875117286674731 10.156076097506217 14.538761875134306
Ga 10.754469044441812 12.757431398282778 13.918555066433328
