42
Energy = -109.25359684 eV
Ga 11.41930664009726 14.964662029430519 7.093391423984266
Ga 14.096488445354147 15.189961137758859 8.3673706615208
Ga 13.121219511240689 12.626723174681144 7.712131039955643
Ga 15.491065004582365 12.870970934780757 9.33418934094162
Ga 11.811609601172501 16.3172445537592 9.564192731377721
Ga 11.07294096212214 13.477955129608395 9.401334503539232
Ga 14.624425271796987 10.258476471881828 8.682578889891744
Ga 9.265290925744981 15.540643196034999 8.816964815503859
Ga 14.225910410695969 17.276908007819518 10.346873174431174
Ga 13.436214709056099 14.236313399496241 10.837610220756941
Ga 16.277406624714104 15.332532920754813 10.3235644180788
Ga 12.43344324198025 11.32905513277769 10.050703070404609
Ga 14.921141534988518 11.318726598257317 11.39372874363489
Ga 9.718957699128547 15.191306993179795 11.425566365788836
Ga 12.37158655315383 14.008851681038834 13.283799290434033
Ga 11.536455238518844 7.077603849050317 11.45595377807882
Ga 10.98218983825221 9.750431165636176 11.841338498529034
Ga 15.829502919328062 13.62451089861543 12.376848224269892
Ga 13.609442073929753 8.856919178625885 10.979269390270703
Ga 13.026801814103653 8.042682080811357 13.621395164908494
Ga 9.67782620633356 12.359085582889806 16.273554756200507
Ga 11.978516294539315 16.648634166966097 12.118160401790705
Ga 10.55210099044102 12.458232997782458 11.774166414716579
Ga 16.662048658788517 11.430744177431215 14.166495628922492
Ga 15.192615321286736 9.420633514779462 13.176226007589833
Ga 10.130961336180777 7.996132653436105 13.88318051852049
Ga 14.570360148698482 16.01998267227858 12.80074009867139
Ga 12.72823401980012 11.170921493830619 13.380286144267032
Ga 9.48307304199515 11.02570961842792 13.746979063949208
Ga 12.439667507701099 12.137006730713287 16.187628792223858
Ga 14.206820135244717 9.859320859871422 15.695407576458637
Ga 12.184968586630967 17.026872405551472 14.676551950569273
Ga 9.551399487019944 13.938706375756501 13.85756409561155
Ga 11.237784185783733 9.968279614291728 15.474489765055166
Ga 14.452139674916864 12.94180550619123 14.60293773165059
Ga 11.373789446590449 14.660295429508684 15.67615517925346
Ga 12.519896296861818 7.7268041075625735 16.20632315738423
Ga 14.329061572190533 15.549256736051293 15.323053815819504
Ga 12.355984815637184 16.500625357903864 17.440444324040566
Ga 15.614576638360493 11.91386598249913 16.841374528407364
Ga 14.0378482709271 14.08007631720018 17.4513996398338
Ga 11.366343738160758 13.791944559127918 18.255492056813885
