49
Energy = -129.18951941 eV
Ga 10.168002714091177 6.950652154653448 5.96206864304152
Ga 8.633464824945541 9.312396219510479 6.0932464612244495
Ga 9.45683244015497 5.866511010856376 8.463809363078429
Ga 7.393617333888723 7.497535814452797 7.804636147082665
Ga 7.234108520873291 10.241294068536133 8.268245981722886
Ga 12.590233305755879 8.341971917951538 6.497957634137325
Ga 5.6096695047503795 8.211219038351365 9.784131812513445
Ga 11.104202977196865 10.510860563165007 5.778719455500419
Ga 12.170055610063233 6.004633355122477 8.14624161539157
Ga 10.347744982183896 8.570581469487747 8.320902667679546
Ga 9.15109871492578 11.829941078200566 7.2890319217890385
Ga 7.423881316980122 5.964801728969603 10.483072226234636
Ga 10.164112593052977 6.360204641040516 10.986633810946184
Ga 8.494407578664656 8.680911384173688 10.336897052396589
Ga 7.009185328107089 12.998587502453182 8.889473807324457
Ga 5.893048791191354 10.939954625432819 10.48501552214191
Ga 9.008109358372838 14.558726774340501 7.559120022504464
Ga 13.15354271313784 8.439344836765573 9.1548635386266
Ga 6.475419473790408 8.484792096564579 12.302064926468946
Ga 14.189121656244234 10.407532341168169 7.361661982005785
Ga 11.575012560546156 13.211191860934694 6.651229099377152
Ga 11.17422031468376 8.981973828900792 11.048354646940043
Ga 12.885170854360766 6.374228470815452 10.906561690344493
Ga 11.541914626063093 10.94358208610504 8.596259650883166
Ga 9.164789475066701 11.471596218917188 10.058647596850733
Ga 8.707157165374303 7.184332098809484 13.033756268372052
Ga 16.174861952607433 12.044114394571926 8.238912134785021
Ga 14.86949013864482 10.255778676434453 10.064252151533855
Ga 13.535336237404234 12.918677354702792 8.610612376176897
Ga 8.934540792992587 10.243382748022958 12.585231860453357
Ga 5.952755514512576 10.997014294860174 13.205276410083748
Ga 7.313220949847722 12.858881622780045 11.73857900534409
Ga 8.778591857604574 14.635174550714844 10.380172231895536
Ga 7.461262282307666 9.20367434559168 14.912241723557111
Ga 11.1016731912684 13.790631673172895 9.402320766906092
Ga 10.225216681683271 8.881737857178507 14.820060161912961
Ga 11.699093037162056 7.200699171330837 13.263308738367899
Ga 12.533916017068398 11.430483874300437 11.06579746065092
Ga 14.059910624130943 8.533319220593814 11.990603699456639
Ga 12.122382610512453 10.107230685134729 13.367780948787576
Ga 10.245088951171015 12.689732528398697 12.196408736423301
Ga 15.35816194802564 12.791518604536444 10.835804606851474
Ga 7.954446142585526 12.382130377037742 14.413932091042602
Ga 10.442327499349318 11.592102465089267 14.994505954355391
Ga 13.144101889835678 14.190074614624448 11.193279305276024
Ga 14.728592533277975 11.001258962549658 12.996825270134613
Ga 8.63465396634787 14.890489086379183 13.255248728476117
Ga 11.00626064388246 15.531049499431317 12.052061565369039
Ga 12.543313297704278 13.012221876372065 13.655003808270706
