43
Energy = -111.80723428 eV
Ga 10.736806910031401 8.07037811983234 10.062078018347338
Ga 10.611438944285394 14.365490902572846 9.417592924319713
Ga 15.236544942914684 13.063230190875288 7.7634616219386015
Ga 10.316059510279532 11.629564491483336 8.61833924852799
Ga 12.35976101661239 10.13697374523667 9.227800027496803
Ga 12.183930705131912 16.954415913268427 9.459073094232352
Ga 12.761193119934253 12.867820866702273 8.817969602261492
Ga 8.031864218992522 12.508507760076807 9.595118342041944
Ga 12.212264235238962 14.492149857657306 11.65763849742183
Ga 13.774052645199735 8.193599089811505 10.613485041293961
Ga 11.855843454282864 9.10440101846361 12.408269095511892
Ga 14.178015999909125 14.973880968349581 9.805481892096363
Ga 14.809590386212147 11.088088542482556 9.927435091739943
Ga 10.258864056675089 16.536976293297364 11.379655017899768
Ga 8.025018597123605 15.185246150316683 10.323342353063428
Ga 16.450842308315853 13.36534583442368 10.11169964352434
Ga 12.19451813151673 11.790642052698923 11.432243834926338
Ga 13.03185884852536 17.123565752552775 12.145307584877006
Ga 14.511515074262807 12.901186435266167 12.045960772863149
Ga 14.509941996242256 10.143146701760008 12.410381429240932
Ga 13.690460165028968 15.817804459641795 14.616771789514882
Ga 15.292980731206498 13.702219138683512 14.560273918973294
Ga 9.668207575441539 10.489949942918269 11.10500913763284
Ga 15.373995949069343 15.583429176641287 12.220253158259219
Ga 9.557245901948187 13.261625385962398 11.851348482586587
Ga 8.276967496933352 15.437492965198766 13.12366555283182
Ga 11.094041493956894 15.91738134649415 13.875522834843917
Ga 17.20473809128952 13.620448973367347 12.600126982386147
Ga 12.490072448012707 13.150635813259774 14.045568926136173
Ga 12.651380008919615 10.102566311647301 14.79221075921557
Ga 17.73750896444837 11.990719236747248 14.589998837151665
Ga 10.456748780167072 11.225286033161956 13.540171256363438
Ga 9.58317815315674 13.692749778084682 14.671834340182999
Ga 15.325144421747469 10.686229430381575 14.798575279487451
Ga 11.663350343735791 14.767237225701162 16.290949445166014
Ga 14.458400211914102 14.970805157901973 17.20016315784335
Ga 10.71206724331471 11.773604400857488 16.203902818800238
Ga 17.534173976793852 10.193970430472575 16.565490517222724
Ga 16.286025003280102 12.770710999746898 16.790612659524385
Ga 13.521770370169431 12.274543940636615 16.31041234762621
Ga 14.920969626890416 10.198099060116256 17.56623443929923
Ga 11.783063470724013 13.10837576776195 18.362423269544998
Ga 14.493492743051076 12.595412610372426 18.922055228669027
