47
Energy = -123.4072009 eV
Ga 9.212450183869345 15.107115009622984 11.398119851500763
Ga 14.755527105667015 7.548884636676094 11.182374457485986
Ga 14.777398805968591 8.440328864919008 8.67314407699285
Ga 12.365317958388422 8.602629742503012 10.312919796696539
Ga 10.278589097573876 10.325612888317147 9.640944777023059
Ga 12.550010180513251 16.563160911351808 12.271466626575927
Ga 10.115412829982244 10.676861835720981 14.441123065906673
Ga 8.581200129174958 12.630597685350741 7.537837530360912
Ga 7.233052317585525 11.19876159593865 14.050263023088096
Ga 12.635204252623922 7.145764591443957 13.009299921449081
Ga 11.284193463617381 14.2048488172854 7.129393646125899
Ga 12.199764402403114 11.14046256067549 11.754423988423666
Ga 12.392139834571697 8.984154654746845 7.23436486749589
Ga 12.764391581912607 9.702410546726107 14.03834944338321
Ga 6.000550650262401 8.870512387595253 11.310921131410597
Ga 10.645166411979526 15.196838756500457 13.685294208280014
Ga 14.552413771460094 15.355581687626376 10.673489615218786
Ga 9.474158924485984 12.42469982473625 12.089724701209905
Ga 10.932580244699627 8.049173063195218 15.284506547549146
Ga 8.244714310989508 8.627670867968499 13.968756442094305
Ga 13.236566127992427 13.592474215256678 8.968698314316633
Ga 14.985363093526578 9.971340145654764 12.15638222967505
Ga 7.533453200141633 13.472670190002786 9.888311871781283
Ga 11.996110406782686 13.811925025562198 11.599714508578614
Ga 10.170930628884935 7.635980365510714 8.308200520808677
Ga 9.986370555622567 6.067602378792098 13.557275699273267
Ga 10.578418532861754 8.791813296783808 12.329935687976137
Ga 9.5650445809988 9.938690255257539 6.895178689677715
Ga 8.436077012407058 10.05434168172899 11.55884206508232
Ga 11.81846695104373 12.692403470599885 14.168843681905816
Ga 10.634628993596952 6.4716123840808 10.700376670948394
Ga 8.972352190746996 13.305126229936935 14.707565246904881
Ga 11.826894999378696 11.54471170563004 7.754342996693628
Ga 7.693212898021106 7.88331541530958 9.142368689049377
Ga 13.925939966487098 14.383151321857628 13.547219767225226
Ga 11.506573659186431 15.746600847855406 9.747623479603059
Ga 14.041369476619328 10.866849601139167 9.460957183097257
Ga 10.24551572080951 12.188171033001685 5.4407375015374555
Ga 14.55514852853871 12.654861897880577 11.394273570516983
Ga 10.377124712086083 13.028850931636782 9.611953311539503
Ga 8.993007639456463 15.329470299408792 8.338295621249149
Ga 8.207481697996313 7.143619940549255 11.691384450957916
Ga 7.494404611175488 10.585145943521496 9.045769617383762
Ga 13.186586059474461 5.373020721074328 10.954541040211522
Ga 12.686895851976768 6.464146006099233 8.377963725746119
Ga 14.54976547558275 11.754596439070548 14.154417193415467
Ga 6.29595718134979 11.808413805456121 11.592559407100058
