41
Energy = -107.65419863 eV
Ga 15.515404377846716 10.77500245974737 11.358001020339167
Ga 13.61927254042196 12.309042227362378 12.570505874284365
Ga 13.140556836404135 10.642920573866007 14.760535558436564
Ga 15.46282028174677 10.574328035561258 8.454209772564822
Ga 13.83137569726552 8.986272712746494 12.65810681982644
Ga 13.476733379000455 11.951843234466127 9.796379792498787
Ga 11.089036138776757 12.247189123677975 13.464553395571688
Ga 11.671674861032322 13.594988920678231 11.088198903526333
Ga 10.300392271735674 10.337115538560184 15.332763991233737
Ga 13.716624213156953 8.916363479618822 9.949026184814269
Ga 11.783053632643174 10.483872412794717 11.337784455407405
Ga 11.238242881790011 8.768227891852582 13.38989716095677
Ga 13.341455663671892 11.700998088836135 6.96910782732957
Ga 11.30073358430645 13.116852716147369 8.088669908843706
Ga 8.401695835310772 12.02634994621752 14.526349880001659
Ga 12.054824546753627 7.188429924042122 11.383480925143543
Ga 13.768205247525682 8.741760304638813 7.149282081332757
Ga 8.956697884909872 13.305840728800701 12.145260317674765
Ga 9.5709212263323 14.545475404790194 9.802094887429327
Ga 11.477860034349826 10.202873779061761 8.594130482460818
Ga 9.154185123983346 10.314444724658882 12.226219673123742
Ga 6.207771984822351 13.071939583853217 13.256634166411008
Ga 9.49935155821669 11.719934397804218 9.849237497418581
Ga 9.155669715303578 7.179274663187619 12.187220656931403
Ga 8.340597272499787 8.582023842407638 14.322426750212975
Ga 11.746252532967494 7.358035777781458 8.62635013363426
Ga 11.222601223689944 10.38589042234374 5.747546113030979
Ga 9.665892777388006 8.707896121274151 9.967545467939326
Ga 6.938915194221421 14.39371792162686 10.548831906895991
Ga 11.624469407116939 7.60704829711964 5.8410583707745065
Ga 8.898783128412399 14.35186781407388 7.1722142444611965
Ga 10.074709088130552 5.842169804616599 10.107405319554058
Ga 9.148497298756412 11.515734373078159 6.958370532560493
Ga 6.835081424786488 8.497265702984844 11.293779348011862
Ga 6.416267116577399 10.23375107607465 13.279634075033798
Ga 6.896434794058423 11.496176572023177 10.911782141415456
Ga 9.318382970560892 8.679848838942132 7.195997571688915
Ga 7.191204358145663 12.633361765892545 8.482157955357303
Ga 9.40654748581928 5.982104119282136 7.456274275498894
Ga 7.448445902160566 7.265414121564171 8.968175840682402
Ga 7.327728957231706 9.951663157300365 8.659250051751771
