41
Energy = -106.89757942 eV
Ga 8.262125222049686 11.431485396643911 3.3915136113086217
Ga 7.406113406812524 11.541129943418197 6.017185579221347
Ga 6.7910157198845855 9.065704041197968 4.570808674756622
Ga 11.56753227067186 7.3431460563820785 5.122494642938495
Ga 10.14052452415718 12.542389252600797 5.459508821164907
Ga 9.656941589314295 9.622347445597363 4.947729521735859
Ga 8.651371163616872 6.894876250854297 5.444236708819875
Ga 10.316254278123635 8.260711412916255 7.323052107725815
Ga 12.228146074221115 10.132762190059141 6.308576411764738
Ga 10.817840836014259 5.503794287739258 7.582757473839798
Ga 4.977448010599664 9.881804258668287 7.032228781138878
Ga 6.813829802706249 11.318130250743403 8.632268514700383
Ga 8.659971270531337 13.390814799974155 8.216539382773151
Ga 11.681646035702423 12.713783836125597 8.445863728688133
Ga 8.225565733919098 6.340744671475706 8.264242646191693
Ga 7.635776324438348 8.943451458885482 7.103288353396703
Ga 12.35280348745955 5.3015900649606635 10.13936765091477
Ga 9.70729495964508 10.888464467965429 7.528480631711436
Ga 13.13952474708996 7.517528394039615 7.967833818628572
Ga 5.789074448936301 6.83586989071232 6.906283575662754
Ga 6.092841685569677 8.396332121625194 9.422428438743273
Ga 8.76376320027714 9.172333477918507 9.431709426426924
Ga 11.882324115909158 9.927433525340035 9.17475021853262
Ga 6.389265977284201 5.573744716562782 10.227018093907862
Ga 10.72764654152061 7.423278312795685 9.800624576307621
Ga 4.829459006879284 10.71314659455393 10.544485320375685
Ga 9.441561977131594 4.961518913674094 10.383799277651939
Ga 9.576150018577415 11.470057042139032 10.148700487678555
Ga 7.188114994098227 12.82159624904769 10.978743864611259
Ga 9.965500233886791 14.001923360309497 10.896712693596864
Ga 8.389848461598865 7.4726315153039184 11.303301564201035
Ga 7.374716865788854 10.15396744445351 11.710404760460086
Ga 13.141330628242464 8.167911836792266 11.029757955952647
Ga 5.7848373238447435 7.880174134346601 12.265417233452355
Ga 12.133903160479282 11.787035244194843 11.337274981226654
Ga 10.703144268682411 9.377841551737479 11.91689526676446
Ga 7.938943329714671 5.3864298169969755 12.772393922115358
Ga 10.933810993087285 6.524904386124261 12.442030025780685
Ga 9.404837288969548 11.714100112008934 12.897862362772013
Ga 8.609439117192498 8.770077553509262 13.733125617155222
Ga 9.546918604165162 6.472191418398713 14.817460973997877
