46
Energy = -120.46634543 eV
Ga 9.325383509690472 6.304514502264135 14.219505605051339
Ga 12.197993434111813 6.748946204675781 14.679696189762653
Ga 9.896006573814113 8.830244950748598 15.926121533619266
Ga 10.989380629780296 6.169488694028358 11.906388194451733
Ga 8.26990086840648 7.210581445308458 11.92894395490652
Ga 8.079329364611981 9.231251255804255 13.915618080422037
Ga 12.68031692864967 9.677592329224174 14.967664335692705
Ga 10.699330123259573 8.603735041602357 13.218662431280084
Ga 13.574514473020981 5.830357441755399 11.083836654118466
Ga 13.43389839120305 8.220710990996269 12.577468834190384
Ga 10.223669489438274 11.263065499290073 14.374248865715842
Ga 11.735524405517356 5.35066587069332 9.101207350941436
Ga 9.53594735171207 6.754800303427677 9.444087499948916
Ga 7.123943102407683 8.010227205159685 9.66646997954107
Ga 6.605824463757745 9.851959486955387 11.776947078680317
Ga 9.54837657132792 9.449718424581862 11.109018311869123
Ga 12.074688468522048 8.194267688018819 10.119572689066413
Ga 7.983116830337041 12.096805389143555 12.892590491896366
Ga 12.278169194979599 10.770148628450412 12.513512133002523
Ga 15.032863942816444 7.903799276426037 10.130473850758252
Ga 13.551203637522192 7.078304725347872 7.863728769970212
Ga 8.272553274753042 6.865357313478127 7.149070805738871
Ga 4.93732344363129 9.895722858403001 9.60590630796193
Ga 5.856224498701312 12.579166183385768 10.76123792318802
Ga 10.537712012922306 12.540117462691239 11.785639123388037
Ga 11.165182230703138 8.23229206495929 7.410423672564123
Ga 13.775583743372765 9.758830626515529 7.973421958715881
Ga 8.411088459548553 11.575845827381338 10.183356375478589
Ga 6.1896466969210815 8.762719963254861 7.0557966146953595
Ga 11.205747842301427 10.604506924675734 9.268787040201648
Ga 14.214335677611047 10.349419016819708 10.710075852154857
Ga 9.264024549983397 8.785866913290793 5.533993468278667
Ga 8.761024690862428 9.59447143555075 8.242475537842319
Ga 8.29444678352552 14.422873569219185 11.335205806067624
Ga 10.09514761852187 13.014416426904944 8.660607016290864
Ga 12.92166204783685 12.601000953375861 10.178286949573213
Ga 6.630773301534825 11.508972694641425 8.12127107322109
Ga 7.469315230522087 13.953657088135897 8.712676670707221
Ga 10.962808457883229 14.792708230162498 10.549233152194656
Ga 10.246595024354239 11.21528157651283 6.430965303530689
Ga 12.672035828635364 12.043423874405699 7.31078264554614
Ga 7.543945125114729 10.791976069254394 5.689232148055047
Ga 8.14626099156165 13.457414041130825 6.035534614901237
Ga 9.587646609395131 15.757658924041056 8.378394420574496
Ga 10.866621987951405 13.941837238491766 6.2548355475270805
Ga 12.629950229415977 14.766780177025625 8.310263234931814
