42
Energy = -152.63990116 eV
Ga 15.549284660713598 13.02908945107893 6.4942254043971985
Ga 14.065652848978052 10.472747589106989 7.118672374765944
Ga 10.263344749531772 15.974593907328751 8.499702176049446
Ga 13.306759484196029 14.721130676194614 7.997426269614969
Ga 7.938914715101813 14.015833736606202 8.359260140440833
Ga 12.359550083015419 11.997145369101395 9.17628992900111
Ga 9.350202596946149 11.399469887556391 9.035717339907627
Ga 18.01018366550341 13.1751053565826 8.247476997524416
Ga 15.405040914281557 9.424446259965 9.654410397417761
Ga 11.259895080482616 17.97092109290523 11.235424782393865
Ga 18.272423457493304 10.466164228328958 9.60997481786576
Ga 14.607355505004108 15.405457422828084 10.73890629135622
Ga 11.015881650945232 14.935531095606741 11.222886426520104
Ga 6.4426500469432355 14.567559933967479 10.956736711419996
Ga 12.086933599416112 7.723604316069021 11.716314532532472
Ga 14.89741828395133 11.81552551984044 11.471899371701364
Ga 9.86614348015888 11.604523656542689 12.04998194809573
Ga 14.241211227920894 18.388964210222756 10.82784142632088
Ga 17.635421714859582 15.328118925797053 10.341492389770355
Ga 8.48903372370909 16.162111642643413 12.44108200713025
Ga 17.65451526006652 10.992854480006363 12.561867243609912
Ga 18.60632814818541 13.848889930393156 12.828697643724128
Ga 12.888822670005434 6.275987661110821 14.309226077193948
Ga 13.01501289961616 10.185695600442589 13.293155762469565
Ga 13.173962157554998 18.119820765280366 13.794305137812128
Ga 9.200859866060133 8.623670593136005 12.114478529540346
Ga 15.19160184758393 8.273517319871406 14.289545979460433
Ga 7.387616977202535 12.83803014093529 13.447759607506946
Ga 13.820454391356526 15.14381131517947 14.020757844777199
Ga 16.714859158793566 14.769159389013703 15.06916713608895
Ga 11.09215429707718 7.179706910187026 16.56436540809282
Ga 11.357869886019058 11.513540783588228 16.194958501693964
Ga 8.614468473193636 8.092660993548979 15.037007527590456
Ga 9.986718654051689 14.305320163324655 14.674500602695705
Ga 14.977960199456485 12.199795191364139 15.477215877727964
Ga 10.595921127897427 17.058734848692062 15.813779530912344
Ga 15.379859589303294 9.513214111521805 17.051446186354294
Ga 12.474172075900011 9.415643926901579 18.083897524700703
Ga 7.1002941510532835 10.614487982140053 15.793233372916378
Ga 13.217270629422131 16.1273995616352 16.922484252840267
Ga 13.309339197609354 13.205629231960238 17.828711249458415
Ga 8.734000446664316 12.681748414719078 17.191080861831946
