44
Energy = -115.20940902 eV
Ga 9.12708469591293 6.650606571771766 3.799099172584229
Ga 7.455666117067387 5.322551496368651 5.540891605680925
Ga 10.160776319095868 4.320531173909206 5.470548448764871
Ga 11.449102295494441 7.25663415544646 4.875664711302303
Ga 6.636656242125683 7.7432412276284905 3.55248894389146
Ga 9.233103423074303 9.501133067045785 4.356514873200755
Ga 5.377169087058274 7.095685534488236 5.907768314219345
Ga 11.770024774024957 9.751755931400078 5.697626785452849
Ga 12.449883466301811 8.142776563125782 7.687152210080698
Ga 8.090525259470404 7.914613760215647 6.242288459429436
Ga 10.527113896239374 12.054306529720199 5.435608062362156
Ga 6.450742209982114 9.890542279608557 5.409259144992704
Ga 12.602126013095237 5.573976396915099 6.783204793374746
Ga 9.993832909368642 6.558939004789446 7.199112430831024
Ga 6.231134993118111 12.23996510840904 6.935978740927588
Ga 5.63984760965475 4.9065137341585645 8.074435935710378
Ga 9.862754058234305 8.760414860023467 8.80632824903632
Ga 4.422458549613051 9.64964164950889 7.165441800902554
Ga 7.9518409985406855 12.113195894182992 4.66514695780695
Ga 3.6399656098042303 6.949801804652783 8.106282797914544
Ga 8.779667814335227 10.442564805416266 6.975869567165736
Ga 6.4552173598232345 7.808725946433193 8.346530760443972
Ga 11.362457829805358 10.985081628845526 8.178890941579395
Ga 4.110208217302519 11.479719395062867 9.133408635265727
Ga 6.49264705250413 13.028374276533851 9.858665860416858
Ga 8.554399185800582 6.298050318665966 9.536295953037243
Ga 9.04432715824404 12.230187213721925 9.067355320460276
Ga 4.259810062134589 8.725942885321942 10.015409848566502
Ga 10.89356216888405 4.019937807453061 8.296991765310269
Ga 6.733083994303412 10.398303596210123 8.861021707241273
Ga 12.609816747730635 8.96548393552041 10.370922241253126
Ga 8.306763155734748 4.112303650170516 7.859688571471166
Ga 5.669048313337363 6.328656598842761 10.498011416800093
Ga 7.782397236000648 8.708163871745521 10.589827055526001
Ga 7.255359863218673 3.959133096091255 10.529163033233957
Ga 11.644024574273953 6.313933571037845 9.674882574229315
Ga 10.243014111470982 7.632597209347843 11.58740941541395
Ga 5.342426471736459 10.844630186330573 11.560575958886343
Ga 9.986111274829634 4.692129768405738 11.393916370829942
Ga 10.46181086787446 10.462480500130047 11.072371032960374
Ga 7.981338926487102 11.360505958131448 11.598354074695454
Ga 7.941131848197689 6.359068489027129 12.468159204095457
Ga 5.774212689127608 8.262525519914185 12.418835497695989
Ga 8.230139297486287 9.169457776190635 13.381385502876409
