40
Energy = -104.63577132 eV
Ga 11.38494123459623 6.81611021958857 15.303341499280933
Ga 12.875484695819896 7.857747600510419 13.15181998278723
Ga 11.34807078286561 9.53407691461616 14.653618094334343
Ga 10.255679460281014 6.611240911928535 12.8025941844384
Ga 14.3352336041886 8.457135786769644 10.947221777239863
Ga 8.974526923829455 8.115835286143895 14.98802825338819
Ga 15.935281736745553 8.839708188917934 8.874095551975046
Ga 13.070982984321699 10.571996103221936 12.322420651459801
Ga 11.923677093201443 7.109352685223706 10.644745057345425
Ga 11.428286929768653 11.982987044779895 13.907633580933568
Ga 14.970665562824168 11.359050136365735 10.442501932898752
Ga 10.394173098678477 9.505443615870997 12.034134135345914
Ga 13.413824450720503 7.630510506692519 8.232599381335785
Ga 12.749398523912088 13.452704807738 11.662641034976971
Ga 8.768866697358357 10.797598584301081 14.317790443967361
Ga 11.44299278227151 14.646972939604465 13.756648852731502
Ga 9.086532618309256 7.277853792530586 10.60235399387646
Ga 12.146968901424348 9.890785120542036 9.77358409800188
Ga 7.765666595070294 8.644310786209982 12.646319567267934
Ga 14.024296699504864 10.46146889381126 7.870078142682804
Ga 10.81179239175843 11.526290122357661 7.651877089640728
Ga 9.05798579432692 13.302867833647193 13.28215341995525
Ga 10.458846303177927 12.141293524219533 11.137609764784008
Ga 12.845112696439198 12.569484728925154 9.07882122601151
Ga 10.149088618870469 15.343869901062044 11.464970227769644
Ga 6.554665424464275 9.306577719954756 10.404590470066095
Ga 12.040139248701486 9.24980443375999 6.390286324455874
Ga 7.826990975613181 11.345767852055765 11.803674882404342
Ga 9.202468577575008 10.036630234366351 9.569517122146275
Ga 10.616625170040574 13.97822254135506 9.094922940198
Ga 10.718985448932935 7.922946492321167 8.416801558974946
Ga 7.686057924993235 7.630737337427228 8.376810290005382
Ga 7.994574165270462 13.882549243004764 10.748751867864907
Ga 10.563678102035789 10.875280408861125 4.872152070396449
Ga 6.68754219046447 10.13098886398179 7.825402711999379
Ga 8.374811069003707 12.432444606676212 8.499438704933489
Ga 9.165424735177 9.269115841983846 6.7228772684555835
Ga 5.843874373339038 12.082968286070338 9.928509480396709
Ga 8.143320013670087 11.631482338027647 5.83549595053282
Ga 5.918931191165427 12.674961192469581 7.09816167206444
