44
Energy = -114.44324782 eV
Ga 14.32263981069278 7.322669916335 9.90434987624379
Ga 11.155379214434232 6.269973879521547 11.277560925140785
Ga 11.8516581313143 7.248156131363907 8.880845943226234
Ga 9.730944094189095 6.729906759421262 7.240590614274945
Ga 12.654311904073941 8.615966507343556 11.610579783758842
Ga 13.538463081658767 9.513967350964903 8.376653328308818
Ga 9.960585156755831 5.1580727852475485 13.447819337807749
Ga 15.41956230825296 9.707422413597005 10.445882865253
Ga 11.438828565002526 9.093689176517692 6.871312152110368
Ga 9.297787683361193 8.701586918918085 5.254259252579548
Ga 8.739518581217926 7.510283007298732 12.686994867823609
Ga 11.425803118156509 7.339308433770771 13.811284585985575
Ga 14.769499692570152 10.173227598539826 12.972877940610639
Ga 9.228669133171053 7.826188564242112 10.088042875827423
Ga 10.533190023081259 10.283551022446447 12.355343608534321
Ga 11.998543638237651 11.708443488477702 7.912277475592481
Ga 14.692413872065389 12.037010468135845 8.877446318657471
Ga 8.492548447682397 9.12270511971917 7.88386719851239
Ga 12.319824929060712 9.685319186508698 14.34234255874662
Ga 9.728832184027867 11.186124021012262 6.081433306744054
Ga 10.677633279740023 9.96985712067414 9.576821063852604
Ga 12.804275234413499 11.22734328840496 10.798936588773936
Ga 8.763882437332299 11.747522175837094 8.574315709942896
Ga 6.875351124007386 10.235717934056275 9.709459417197023
Ga 14.133594129411302 11.26506092593766 15.47912435051426
Ga 6.483446744179047 7.818847326180137 11.104388110143399
Ga 12.760043373812447 14.415749570290114 8.329621789432117
Ga 8.881711405998658 11.982323479893074 11.22437156493062
Ga 9.452031746807725 9.462182580325084 14.917525110014326
Ga 13.514887228438962 13.868370728551254 11.024576771724137
Ga 10.090903001878907 13.719641855156837 6.961709421347682
Ga 13.456820781504877 12.567384821117814 13.255874897125603
Ga 7.774309043174973 9.946065829745681 12.54548635899645
Ga 11.441286659112627 12.192778021955784 15.333619231548846
Ga 6.397545748762917 12.901266637003227 10.289384101786206
Ga 5.085110735663394 10.56106263784674 11.751967033198623
Ga 10.466715221067805 15.929535851614718 8.543338170026885
Ga 8.92749253177099 12.23947248713496 14.25598750711825
Ga 11.00205187156099 13.23423162521766 12.715327303194787
Ga 10.87237901404218 13.541732920100744 10.077909868823017
Ga 8.728347050057723 14.58620906458508 12.0416189232417
Ga 6.64179773047 12.550133297030742 13.078974653076658
Ga 8.271609616805003 14.375058643380994 9.185195104226578
Ga 15.370992677949582 14.602100385545615 9.075924090993563
