45
Energy = -117.79314009 eV
Ga 9.117261784648612 4.980520020853836 5.586270639027593
Ga 11.700042161366124 5.487409244755069 6.996826325406494
Ga 12.155641952369416 12.87960564547859 7.90714740286794
Ga 12.01688036072986 8.2558539624661 8.466371789543693
Ga 11.132262836518432 9.869644850334565 11.821189130283722
Ga 12.292606856093993 7.523292948579448 11.451510779095793
Ga 5.538382176900631 13.887328756593817 11.919959036730454
Ga 13.06943003837905 4.9415074240993615 11.24410576436517
Ga 8.321382036691082 9.277386202978258 12.783393418725092
Ga 7.048912626247339 10.166237996394415 5.825558491987016
Ga 8.74223814700641 13.882921582360451 11.698073665610734
Ga 13.29096230896065 10.637979505342999 9.700503865026102
Ga 7.070620018817065 13.025730193297164 6.793869953226734
Ga 11.410331318545833 12.659956791659656 10.912472244083942
Ga 11.043001637547185 7.510097768671505 5.33164308599127
Ga 10.353067747145946 4.398633083102047 11.8327449636197
Ga 9.712377948806761 11.700520489663507 13.39803181320668
Ga 6.665173326447156 5.423946225592364 7.7672893519753705
Ga 13.728438311169558 6.193818036160845 8.81855313566856
Ga 12.097267217063933 3.5265880833158065 8.958812414474986
Ga 6.774928901972972 8.293827802858043 8.022671249555238
Ga 8.911014465360752 11.310751156779636 10.766356428201934
Ga 9.300163505191565 8.43802894761242 9.983701204798795
Ga 8.313082868501581 5.325804304056531 10.291791276347869
Ga 9.198179354816643 6.7094945265484975 7.84392908625879
Ga 7.872647119643231 7.470606332295848 5.496896097171478
Ga 12.217356690165442 10.279618943365698 6.542774537870509
Ga 6.813439659676568 11.591632705125958 12.580628575705111
Ga 9.61849907379605 9.182599688235605 7.0026290069693164
Ga 5.409875474958319 8.986190918681386 12.532371129969379
Ga 8.103795431816673 12.21845299301079 4.24016118033404
Ga 5.235400737055028 10.959855914647955 8.027671901687617
Ga 9.602622596925402 6.924644187985308 12.3882409372623
Ga 9.349595835865705 13.521509876697712 8.783591337913741
Ga 10.943111964193074 5.986764816465548 9.679020087966457
Ga 9.91019183300385 12.038567071341106 6.308038154376077
Ga 9.542573345796455 9.759860044412566 4.307299256674531
Ga 4.436142358564183 11.318378283588315 10.827349952830499
Ga 10.700464515980556 10.731058286307125 8.909610270772001
Ga 9.381966892014608 3.936856099654476 8.257042118595546
Ga 8.071323356610607 10.936763886534187 8.26757244851442
Ga 4.394978522818447 8.515632770843146 9.643528031196054
Ga 6.687185342949508 12.958274507432161 9.640036141361227
Ga 6.759960018564358 7.250587499795023 10.92388396307442
Ga 6.723134225499405 9.903174527220362 10.296793256870089
