46
Energy = -120.21097565 eV
Ga 7.643901113365232 6.013827178572116 10.410189597240779
Ga 10.189243358843628 10.50801673806368 9.763069209002495
Ga 12.754979965336831 11.52733456848072 9.579934136071968
Ga 10.609758320504477 4.194542921602863 7.329284723227864
Ga 7.6741657215396915 9.904354385521561 9.93911111104399
Ga 13.358232212736292 10.700597149209765 6.647065991490284
Ga 9.43258717895885 9.545208333676596 12.319868202855814
Ga 5.648992822161624 11.930866506421097 9.37213688855493
Ga 9.642830411842523 8.751812229764894 7.631492966537709
Ga 4.892891194637462 6.453841954150573 10.254295687036912
Ga 8.198775746109987 3.6266326669816222 8.895149422912988
Ga 5.270326652695668 8.04407556007954 6.276397846851327
Ga 10.501132026078949 13.322816588698403 9.49933564647319
Ga 6.0351565345165055 5.193818201081095 7.693802140709646
Ga 10.276923158552552 14.176762108829571 6.80961403837527
Ga 11.528314595875154 8.999825341261694 5.538309289779583
Ga 10.680668855255128 11.322136336214223 7.328428373972249
Ga 8.23772181373263 12.302940563199298 11.165957282632924
Ga 5.771841498652565 3.877180601734494 10.59811642868676
Ga 7.0787563376258635 10.113194827408487 7.297333277075362
Ga 10.434184600422345 6.44725203477554 5.431142183128045
Ga 11.816194448259491 6.343652533001191 8.44143140581667
Ga 8.107546733317228 12.598673524180624 8.395256161752114
Ga 12.821335376610046 13.285671722414662 7.263118922825446
Ga 8.4155423874075 12.728404152079312 5.615555707536632
Ga 12.602116980213514 8.841893144931886 8.376332960404369
Ga 10.344759042895776 4.853987312567591 10.257724427114168
Ga 6.903024169207722 7.729693351475191 8.472142645034502
Ga 11.81437543958736 6.781719048859566 11.846541606131446
Ga 10.697395260545285 4.7045995309826685 13.044776963186266
Ga 5.962336822055707 10.920796889370495 11.983817369078098
Ga 4.9086225013799325 9.114064579963912 9.631425263054627
Ga 11.319852634914994 11.76623821090567 4.697665118151047
Ga 5.867585923170843 12.496914816225932 6.418225797637672
Ga 6.394415543871097 5.856907829980033 12.962895144778193
Ga 11.049470751674882 11.97275092076335 12.032472566709934
Ga 6.2334523245441 10.222213954597583 4.590464668708823
Ga 9.012107786782087 10.172274033961306 5.204484376195942
Ga 7.909941717990885 7.642703452298583 5.56430526029982
Ga 9.031462068673697 6.8663727816438165 12.715280464546751
Ga 4.2731743949375876 10.467016307794278 7.175926827104302
Ga 9.835012771510913 7.73249124904395 10.117473917690678
Ga 8.31362084433323 3.623464127608191 11.873513651151526
Ga 8.891567361357703 6.114054886455057 7.880808286389356
Ga 12.364660850402407 9.287163097155698 11.024586114522775
Ga 6.6037057246621265 8.273905725760295 11.988403910266687
