44
Energy = -115.61749616 eV
Ga 8.030078330322459 4.8794789559214635 10.01561964509874
Ga 6.345393151936095 7.271752186206519 10.163054820454478
Ga 7.0192789126191135 8.267198329587545 14.007418419899167
Ga 8.859453231861247 4.673473939028142 7.281154200546991
Ga 6.030837798816178 9.371758069510472 11.737140933196127
Ga 7.85914578436252 6.35608355749529 12.303946348562734
Ga 7.004586564314722 11.329997635023924 13.562532380652629
Ga 9.140861032335817 9.942248533626248 14.737154015813092
Ga 6.988942588794263 11.775850195337522 10.810917285265479
Ga 10.983584881632636 5.00864543746886 9.138536650565833
Ga 7.0594298615136735 11.612557290077632 8.070506092600475
Ga 9.913399165945496 7.165036407145255 14.219949988426713
Ga 10.322450142331652 5.293958807665298 11.812511798856507
Ga 7.601481955757444 7.185912426758373 7.720983509784387
Ga 9.48550920233767 7.25521104605324 9.884758324422682
Ga 8.863641258399518 9.066037015427208 12.05777662674424
Ga 9.485001998700008 11.603079294971357 11.921120606039732
Ga 10.419886709379778 7.001810364667238 7.19751659619282
Ga 9.896581402270538 12.61916723251738 14.539456782205159
Ga 7.981263764140489 13.906478508434475 12.623770014616957
Ga 11.395703390876976 7.738788517776918 11.861873867952921
Ga 8.076030884415292 9.47076193466712 9.50668443421838
Ga 12.651598697498851 7.112758008970979 9.288838114718189
Ga 11.053277260448041 9.3540745000015 9.120909238557289
Ga 8.812270294712674 9.400811402539086 6.721531508654641
Ga 8.291380630827858 13.935092552115698 9.763552149768271
Ga 11.466551957901498 10.175331169454552 13.191000291210942
Ga 10.489270994268841 14.150611490636667 11.458976276891
Ga 9.744553313064786 11.581041817215278 8.639539158714072
Ga 11.959235901166629 8.996572751872215 6.555431017164665
Ga 8.987577655783394 13.874521127902016 7.248755640512208
Ga 8.054210716450878 11.92305231568278 5.518700244923837
Ga 14.057898838389551 9.182939154849093 8.221686743714065
Ga 12.222969160355957 12.969135379614231 13.137338620866021
Ga 11.788063872593844 11.544956735015484 10.58968580422325
Ga 10.666227894155863 11.237850860743924 5.7914647629936296
Ga 13.446777261003021 9.309352898423729 11.0819671242125
Ga 11.244527933006829 13.962982624074211 8.881279202199437
Ga 13.286169071053108 13.974188132094385 10.718888779559672
Ga 12.46314757358282 11.540256607442355 7.676629991930998
Ga 11.56109635321223 13.800040051736863 6.040795219296081
Ga 14.546895650624084 11.576909311890832 9.333954248411745
Ga 14.453033873723964 11.670896562208606 12.075209681121015
Ga 13.91690624048174 13.963666890254936 7.921123442620479
