45
Energy = -117.7790498 eV
Ga 6.175337983028201 9.12433295500952 6.8772206902810105
Ga 8.355278316694507 8.773258428458318 10.80423661073734
Ga 11.521330031625112 4.463367398905278 8.986791447786752
Ga 9.776039753895331 10.406150620816405 12.842217628474167
Ga 10.837954808730801 7.215939398452524 8.83347026877851
Ga 7.169755463724574 13.132812042730986 9.056447796262914
Ga 8.44880539295683 5.842774459410412 5.374648573558451
Ga 8.345301560891516 7.778483977729542 7.9539288377243595
Ga 11.049021001009837 8.457628582513975 11.338368136986722
Ga 12.993589314984511 8.70321659033602 6.706267694235563
Ga 12.162460871228308 11.57839938547589 7.417645731603735
Ga 4.239026916784231 11.38092744038216 6.085211888481724
Ga 10.687609938397339 7.289526304046798 5.982506209359649
Ga 7.7268869263562845 10.32084383980302 8.78728865998672
Ga 6.669087234833655 10.416254613754356 4.2420569093801515
Ga 4.633755375272044 13.411906313615617 7.947148891830453
Ga 6.131945728277897 7.224031318824312 4.680219619030239
Ga 13.07832671930589 6.08050446873203 7.432544768122003
Ga 10.423676192037018 5.540441331242093 11.284194991108327
Ga 7.919553660733682 11.82676467113942 11.43612099353086
Ga 5.846608647308998 9.882680483863869 11.18784326387105
Ga 10.370693301876598 10.950223928470555 10.13027517504829
Ga 12.498697337738447 6.653639984244036 12.818777961963258
Ga 7.950300538490683 6.124131802370533 10.274055581605833
Ga 10.877098969771062 4.443125149179011 6.193461683033178
Ga 8.78518136808082 6.936298639418383 12.95987186475581
Ga 7.2309883767027285 9.326122595491396 13.478116421944087
Ga 9.46242572950451 12.497433219268123 7.972238874485919
Ga 9.271908890254181 11.471099319868928 5.4422589564816795
Ga 12.583350831358583 9.585213762820967 9.32831187151445
Ga 6.868193867958815 11.893782493724292 6.632168403745939
Ga 6.126201559198028 7.131485344084672 11.935784702690238
Ga 5.193820326276097 12.620339054469943 10.964276192702258
Ga 6.422169577224692 5.937141740336296 7.420007081155862
Ga 4.074352113107048 7.229569909014755 7.255988890875214
Ga 8.982921121661334 5.04033195050182 8.099831342046269
Ga 8.519414695417446 8.783317150396197 5.326214833723282
Ga 13.333693071289622 7.128443848376909 10.02092205790507
Ga 5.316840279795511 7.907910294302783 9.430790451367663
Ga 10.855583725461083 8.33542143539181 14.115533765871268
Ga 10.188700326597083 9.638008111349258 7.573617929349109
Ga 4.9389292603954535 10.732435827340849 8.78744847680368
Ga 11.381335509273258 9.956737415198418 4.948206872288253
Ga 4.075575908519501 8.859616870877325 5.010376272475075
Ga 13.083463996329849 4.551118048619693 11.20827724539637
