43
Energy = -112.22731379 eV
Ga 7.898883082619933 10.73192551034458 6.094475366712215
Ga 10.005089370350955 6.642058752339634 5.719858236318901
Ga 14.452251292320728 5.729736273576958 6.9275455936430355
Ga 12.736192577996116 7.713067296501546 5.719112252567029
Ga 8.526994537225127 13.23938118914176 6.940546286299832
Ga 8.291268290710676 8.526340961579747 7.794359633455013
Ga 10.15098995770673 9.356323129877898 5.731638421774458
Ga 10.411415008163694 11.34541907451021 7.504849258739351
Ga 5.8511054478068125 9.835982047259193 7.7526699203860705
Ga 11.780459033119328 5.51835176281804 7.424088917320684
Ga 10.390956911799917 13.956814646412166 8.648877399788287
Ga 8.970693249837984 5.843185939962684 8.158051194957931
Ga 7.463436428264858 13.90599814554384 9.390783612899543
Ga 5.772471425720078 12.587171820935927 7.163670392714866
Ga 11.093888848636695 8.053406283335292 8.183819394948932
Ga 8.217558788704606 11.24490113839408 9.0775692677427
Ga 12.881218177762957 10.128014546627917 7.112986656094313
Ga 13.860065111771563 7.821063864760884 8.43801560146018
Ga 13.591786304264605 5.208757193526721 9.547198881792673
Ga 6.751749916570731 8.944308436176888 10.0773336731671
Ga 12.50108061868228 12.18161567045328 9.059158858274362
Ga 10.870739034142977 5.357813532542934 10.05499686921138
Ga 5.653125781574978 11.70215572184777 9.927683825563088
Ga 14.13915773396463 10.106940433219368 9.85620138597743
Ga 10.766859946296178 10.08633007964822 9.927240025908683
Ga 12.453629390195983 7.577585385836397 10.715950409854175
Ga 9.250369566775797 7.820079949607525 10.310081889802063
Ga 12.119343178448602 14.533009149639433 10.636553396205393
Ga 10.314462479614768 12.393844927352047 11.14415297143913
Ga 8.809185801715216 10.02542935092086 11.951221898219579
Ga 9.280460197796396 14.994581233914584 11.190773491830612
Ga 7.252974249391087 7.60738286503634 12.337514133570124
Ga 7.646453597517921 12.504936009472052 11.686954867014375
Ga 9.814093586927042 6.259108452340018 12.451910446341989
Ga 5.96107066282854 10.337155742302805 12.34512748483268
Ga 12.683608208091208 11.006329492905369 11.885496943155566
Ga 11.22727330009502 8.679944890136552 12.661067256301358
Ga 10.789324924071344 10.939481353727919 13.952508600168724
Ga 9.206734536070023 8.479025475056641 14.397347106177598
Ga 12.101348724937035 13.34775988005557 13.230825749264696
Ga 9.395682033470123 13.442431875265743 13.654699847793434
Ga 7.99853413012957 11.212532478855522 14.339050974126286
Ga 6.45324509061022 8.859548570937415 14.663262140885
