49
Energy = -128.42966922 eV
Ga 7.924008632713947 14.668755197967814 9.787346524584914
Ga 12.433310702719506 16.224119803138013 8.990532200556501
Ga 10.271423670398685 15.207395515058463 7.470710357790557
Ga 9.47371960981348 12.685006433034298 8.553624317525953
Ga 12.3708134494029 13.510220125644693 8.525273573477396
Ga 8.50463476678368 12.317832071555049 11.17852012507805
Ga 14.662558042696372 12.093796322596559 7.977505082358856
Ga 14.089364510023215 9.363780233508338 8.967908913829481
Ga 11.668300454105427 10.98493277840976 8.685205354886563
Ga 9.48467070585843 16.997357714133354 9.392631475391992
Ga 11.41475831478265 8.31824088059983 8.759547739655106
Ga 12.76017661571656 15.83337914055999 11.723138340858656
Ga 13.941805999531423 11.765828527350843 10.666111845499692
Ga 10.59615830906735 14.504474909708154 10.439452022772533
Ga 9.299144874667691 9.994742075219165 10.057470745661366
Ga 8.248921728944593 14.829557208703132 12.486978020680265
Ga 17.085486928293953 15.565600129057733 10.265673347428054
Ga 14.962460441969222 9.09180110277432 11.532906234896144
Ga 11.418905097596966 12.256068364205102 11.631399837311344
Ga 12.201784420280397 9.70277192551132 11.08119265963663
Ga 15.675244773451723 11.330282450750431 12.960281571897136
Ga 12.943755794972146 6.863960272789649 10.663487546420374
Ga 14.695673990129611 17.20917184877758 10.211739355141779
Ga 14.628472905936812 14.391470016377744 9.709874510092812
Ga 10.207982065920373 16.793523746752836 11.958257904803986
Ga 16.6204833503708 13.186897159675878 11.443985587563336
Ga 15.16972860409679 8.94225932621569 14.325882568145818
Ga 11.050780935662594 5.844950506068246 12.974203090718737
Ga 15.534624627530125 15.602964965083753 12.510270706235387
Ga 10.073566382247677 7.731697331039975 11.276639325260433
Ga 9.086039549569746 15.195857124980172 15.012150934794501
Ga 13.766786363168725 13.354930314127007 12.768062588757957
Ga 11.208954067334057 16.939818151381445 14.388804735929057
Ga 12.724161487270102 8.082267264350927 13.131565531666798
Ga 11.302263697301226 14.290699818697432 13.505858173268974
Ga 12.875688639410173 8.692343636564924 15.816677833343839
Ga 9.357426083054841 12.463061745187549 13.740497298358832
Ga 14.924732511123555 9.463458863515392 17.365637903476415
Ga 15.919523445241571 13.894138095342935 14.602995702178394
Ga 10.462968972563356 7.857388707334626 14.860619626270344
Ga 13.176667198411751 13.500905642866915 15.451590561972884
Ga 10.203944651443532 9.963457851812704 12.839210616741447
Ga 13.715995795302469 15.978047571462316 14.454933725909292
Ga 15.112162743439878 11.472189055212432 15.653353164505278
Ga 12.805767190899298 10.84548565009652 14.002900513853518
Ga 12.553243996414436 11.335994984200362 16.929463006139724
Ga 10.754864726325843 9.150274485084788 17.584482778220995
Ga 10.291292688229943 10.607981676970011 15.369605387671797
Ga 10.494554923341038 13.248620714075756 16.46359846631104
