43
Energy = -112.37051039 eV
Ga 10.777120239368225 13.365124699411833 7.208147602815537
Ga 12.438763823025917 10.999497259052827 7.285098435690622
Ga 13.453076243916767 13.629245703052257 7.575199736465435
Ga 9.056868678679196 11.138912691332674 7.29601874057777
Ga 14.861262737546511 10.18171018078582 8.247411089137616
Ga 15.795888829904671 12.782630230081418 8.671015776662381
Ga 7.9556034644088385 13.580370725249798 7.013458044142493
Ga 9.186635376802736 13.885873203463206 9.46618782694486
Ga 10.296989419021914 8.984446510591132 7.977621002124924
Ga 12.577031654652584 9.315289913468805 9.60253462593431
Ga 11.794803662034564 14.557552520031706 9.632798137224631
Ga 13.335370658741983 12.053466543255123 9.991728550497642
Ga 10.656766929278119 11.511772328300628 9.565197052175956
Ga 14.42559673881258 15.08868217743241 10.027383926419684
Ga 8.044106783546722 9.485503442009769 9.454831961721611
Ga 15.359896518927945 10.159755393433942 10.97232381384914
Ga 11.691633217313417 6.8361757279777144 8.576890021959398
Ga 14.716942327898908 7.633182206539153 9.851389989755198
Ga 6.898051004343542 11.974111685104841 9.021193516553609
Ga 15.645772860052928 12.940269331477747 11.465959101971936
Ga 7.443280925936776 13.398068395812867 11.351443807779878
Ga 14.127475325431153 11.520456556955635 13.119458075618336
Ga 13.023846426899778 13.873274604536698 12.137837440885777
Ga 8.860461978641343 6.919017259817271 9.447163740307502
Ga 11.527774680458558 11.048992851965886 12.145747270528867
Ga 10.24353048228096 13.704634010198905 11.999071799984582
Ga 13.36489164805854 8.802395736559575 12.336854321720638
Ga 10.471341623491197 4.838532161051469 10.107308420392862
Ga 4.744139296456984 12.625373474628327 10.756131762928039
Ga 8.75886345172442 11.062690566321185 11.616252711804183
Ga 10.312005705385117 8.720099582178118 11.044664029482227
Ga 5.911693262578509 10.159248797932227 11.094519957247627
Ga 12.199919639809929 6.62594759949215 11.332671994701203
Ga 11.562479534362806 12.912991961915083 14.413982727724049
Ga 12.539372410805555 10.099591184679833 14.750360396893926
Ga 7.226634334168977 7.8552700918625105 11.57475489089866
Ga 8.590083428650429 12.901789232229962 14.047126651671212
Ga 9.39559420006724 6.299809198198876 12.238700560866757
Ga 6.032697158115529 12.145263661073816 13.212014486238342
Ga 9.85097320254012 10.449018190729237 14.304546539234098
Ga 11.063084016082753 8.029930780853453 13.697765058234967
Ga 7.360918028451259 9.835751462768046 13.673130913382648
Ga 8.332496237075919 7.478948744355473 14.41767254912286
