47
Energy = -123.77295354 eV
Ga 8.907649927077347 7.0990669540272755 13.096202079272658
Ga 9.993618471340831 6.4407330835154415 10.546615753899843
Ga 7.285298889415171 6.726039040023108 10.76617624979363
Ga 12.708601154044427 7.152435995320432 10.506904289733496
Ga 14.260565468455724 6.3834084316681645 12.706138897730572
Ga 12.968895482875004 7.972090381227105 14.445948239468498
Ga 10.337105752641648 8.555647928312206 15.187180322492548
Ga 11.413570206120678 5.913503504545049 12.876791451001363
Ga 6.323956236333844 8.379357209320663 12.784165278437792
Ga 8.544348985841285 7.6762912939984815 8.571957324245659
Ga 8.75311426273804 9.991139068552435 13.316056526587813
Ga 11.203400979815143 7.626739073878286 8.139944530576352
Ga 8.857897202342635 9.254851131306717 10.767813820716833
Ga 13.770122424609532 8.917654737937385 8.417120975309613
Ga 6.11836190044294 9.092923544566352 9.755367543221933
Ga 15.395980033215988 8.077321838504835 10.35956730642454
Ga 10.10992977241509 11.379856977036171 15.306338896347311
Ga 13.826045073769922 9.36540599047449 12.193735002588564
Ga 11.606578702707454 9.801697584820172 10.108550701343711
Ga 12.530438113283797 10.611137668889231 14.352833100598396
Ga 11.06167628437759 8.774631361311062 12.452304804885785
Ga 6.612212058614953 10.95129381380816 11.730738411425198
Ga 9.54630797972416 8.179378216482077 5.9963103293664375
Ga 12.847856369101674 11.832227368602675 11.75987093435807
Ga 10.290932623778758 12.190420717410298 12.581086121279721
Ga 7.104211701760702 9.54576039369433 7.241330514455884
Ga 7.686316765152555 12.526998319159242 13.726846687973943
Ga 12.330620371828555 9.298019319507357 6.2143128483722005
Ga 9.732802996272545 14.001501199387633 14.944678039274518
Ga 9.927813940291877 10.284131167165476 7.877550462338911
Ga 14.95906632652382 10.932997891295317 10.127892641028687
Ga 7.766983193275778 11.421448709121233 9.217762841755702
Ga 7.794637601586078 10.087832663669985 4.671828240038431
Ga 12.35618101543839 13.284880178423423 14.248917898628514
Ga 10.475796658508287 12.22788091789686 9.931531219907209
Ga 8.229097668354962 13.35110699224821 11.019065806764967
Ga 12.881855432222237 11.53763291348827 8.208008826224876
Ga 10.401590285041026 10.7727709053166 5.118008425913271
Ga 9.682619339748333 15.06751613115004 12.564719201493217
Ga 12.188225555290783 14.410820950500128 11.751123024472216
Ga 8.080905753604267 12.159460131825597 6.557018589117005
Ga 10.84457574314449 12.708978363580897 6.812224998341796
Ga 8.82239309568299 14.062484352651742 8.332911349524897
Ga 14.265061879119799 13.548394999517408 9.909079721678008
Ga 10.068889499190218 15.856181849969554 10.022686376139317
Ga 11.855546602330412 14.143672286866224 8.644191503732626
Ga 13.05530429651087 16.20462021913934 9.915516789322666
