43
Energy = -112.15694166 eV
Ga 15.039183874278956 13.265487818062025 7.873587806760968
Ga 14.602915360794642 10.84059693658104 9.350314490223498
Ga 14.400280371947968 8.357472051593613 10.408077187393435
Ga 13.987907878236374 8.331195181350491 7.755842901660249
Ga 15.404991096643396 13.217994063744243 10.574012069153282
Ga 13.554335759574176 11.162509310471973 6.906853734884511
Ga 14.585936362619094 10.484538047267115 12.069619509429172
Ga 12.592995587593148 6.3771554990696036 10.665896779869007
Ga 12.470613854854152 8.805948787460387 12.466302954076829
Ga 12.465774674455428 9.103546176079556 5.497277464989065
Ga 11.484875766456595 7.293003352142114 8.243027516675955
Ga 14.363405149363732 12.899728316705744 13.125631637409562
Ga 11.159371230608444 12.00181618420996 5.842664545836874
Ga 12.268103250567702 13.507607567096928 7.909173405332431
Ga 10.226971297203516 9.507260179367746 6.922296109711051
Ga 12.527512729810026 12.205326444056613 10.545133865745044
Ga 12.087771303380608 11.402020680765629 13.365226381095958
Ga 11.034810877006386 6.653386372115884 13.488439710413124
Ga 11.936412759686455 9.716537419560593 9.420806349584591
Ga 10.28538257889904 7.9645468856187644 11.042520535195697
Ga 13.159782546866778 14.868974243951023 9.95822361640713
Ga 14.56226408116131 15.458796913790529 12.203448632440386
Ga 10.366645378154631 11.789339434346022 8.502341217325725
Ga 7.935083887215614 10.338994559456292 8.146298040298426
Ga 10.515260374968394 9.177601948290343 14.403942248718296
Ga 12.596346181711642 13.517321174012517 15.1366602424666
Ga 10.36054197456072 10.713221491530856 11.545033270276578
Ga 8.9023389013977 7.822860210729564 8.801868206655943
Ga 8.46224308987251 7.767103044353232 13.018808557686784
Ga 10.344826506278816 14.492090305528958 9.906147120244045
Ga 10.15487340405211 11.666304655942191 15.233920818926764
Ga 7.0424031299743906 7.171428329326896 10.698379583288801
Ga 8.325282082610064 12.378032350996238 9.960133124098876
Ga 8.148259094338181 9.705096345957836 10.847880717327332
Ga 11.83361634879985 14.259365148661876 12.407811883664477
Ga 8.102115922326895 10.400386721799418 13.653014060365601
Ga 9.981319195157617 14.371255408999835 14.715869331378498
Ga 9.340175510621478 13.115862588336666 12.357022390444529
Ga 5.915845957577596 8.997446457617547 12.443956740075063
Ga 6.564735159862345 12.273545903742102 11.852563310915386
Ga 7.6279295951349635 12.968540281941433 14.484160165691502
Ga 5.4119852845909495 11.369997831517598 14.071005144549982
Ga 5.7477506917036445 10.559461015843567 9.876350837476394
