46
Energy = -119.96467115 eV
Ga 16.311324481572544 16.921429618725252 14.383001389781484
Ga 20.070354235047954 15.23023150863554 17.553128927419277
Ga 16.11401102781155 12.765909799609064 17.693700941662748
Ga 17.27255680077145 15.147125968158747 17.769755056548423
Ga 17.07355913723569 19.423964380053462 16.47464846110658
Ga 12.932666902782774 16.894039263731923 18.126227447531114
Ga 16.260603459243665 14.29493617340964 15.31949790844365
Ga 18.93017867089497 13.616877045333117 15.539676231757356
Ga 19.019577030511822 17.621566032206356 13.626802363436209
Ga 15.522947140583746 17.11946336389264 17.115200967739284
Ga 13.608442676230986 16.24462815217812 15.305319933022878
Ga 18.944852883838816 12.760792015482208 18.070066059801587
Ga 20.56370536572708 15.794268143343308 14.915894261533177
Ga 18.429524066551764 17.128980576637883 16.26810558266474
Ga 14.504666119582444 19.72586629383064 17.516006070287336
Ga 17.246988497918135 19.72035874435579 13.706825174070438
Ga 14.98478086135105 10.171373985893407 17.4876086748355
Ga 17.689095027101192 10.463079466306619 18.48494231448062
Ga 17.797170924914383 11.113453230149416 15.698813534010002
Ga 14.583325761683758 15.890033058326935 12.321362128153147
Ga 13.802584015775128 13.78559784133772 14.337034021981054
Ga 9.955508073940683 11.68821337532121 14.884109422396328
Ga 10.617609439349536 17.857783604866427 13.954975644399678
Ga 12.938850960578854 18.408717367418635 12.827555396189133
Ga 9.932101766514496 18.816192196755416 16.330859322414845
Ga 12.611718473109383 11.19912890071765 15.58754090431855
Ga 15.957707011497943 13.237600252689218 12.73433738815348
Ga 17.12897873266057 16.651099933089817 11.686744338271405
Ga 12.600948040293948 18.675940745061297 15.768577721220847
Ga 11.638011593067013 13.754748173934862 16.086283717332435
Ga 13.504776247611955 13.691692939410375 11.294899677084956
Ga 18.231869117612067 14.906974718165163 13.229389832209744
Ga 14.856721282186204 19.20559239590912 14.714519676369548
Ga 15.354083371955872 18.697477768038627 11.864686524063572
Ga 15.19765600848256 11.695356671589328 15.29283813359407
Ga 13.974065094814387 11.219478904334652 12.756448620156656
Ga 11.520561378177181 10.241326503521519 13.180728726037806
Ga 16.566730646926974 10.25862211675507 13.339490923376347
Ga 13.230444779333453 12.143602749629217 18.0650747843729
Ga 11.881054921725488 19.34735406914222 18.36786545215081
Ga 18.19753697684631 19.12764803756738 11.261246804819569
Ga 18.563637103233635 12.268882160344786 13.184727663531925
Ga 11.49541512132272 13.022444882205992 12.995994904750084
Ga 10.864422780975543 16.236668831460154 16.29323023921863
Ga 11.867162041210689 15.573074349605838 13.250592203680684
Ga 14.053803228103831 14.644692969530553 17.737953808280484
