40
Energy = -104.35530797 eV
Ga 9.440433488445535 10.025883509585501 4.384527499344319
Ga 8.081683550216566 7.114225632024232 4.803203307616543
Ga 6.7576565596044 9.695093185906696 5.523781255562983
Ga 13.373001260433918 8.22999516425583 6.197666827634933
Ga 10.942782867977677 7.706723217263244 5.173326225953733
Ga 9.019721874146919 11.779885266271233 6.478880358001184
Ga 6.0432120828316505 12.260219081915977 6.885186407929281
Ga 9.014039820916915 8.721913914459472 6.834505879432712
Ga 11.465824630374204 10.231021418321014 6.675965847379926
Ga 6.452887593673315 7.340599737950139 7.220539127132733
Ga 4.1573344959722425 6.729201676004413 8.664931764819682
Ga 13.795659174279322 11.12709030508196 8.018598458749041
Ga 8.978225289491752 5.749069576286456 7.4934119202953156
Ga 7.13460985234942 10.193265953948778 8.255579175243644
Ga 13.795428839090448 8.136946911754576 8.866676449696753
Ga 6.936502699918916 5.673991099187255 9.642092165194482
Ga 12.484073308102476 5.47006952809732 9.144410248642709
Ga 11.117690487852416 7.672922388125281 8.20150314969718
Ga 11.156070025012427 12.609909488975502 8.180110301277004
Ga 9.627998716258604 10.442807153980361 8.926885352459154
Ga 8.034509996506072 12.846915124845836 9.211816297279574
Ga 6.03185908946295 8.498831943929142 9.90881651475913
Ga 5.284697695370518 11.362812390800771 9.936991636839151
Ga 4.939744491217096 6.680780209977137 11.64194612430901
Ga 3.5096617319765406 9.104642212581778 10.441494250356962
Ga 9.995160969801203 5.938216699735864 10.400574147050085
Ga 10.289639233694219 11.840771801116237 11.396502466636635
Ga 14.427524006665035 9.981563974759299 10.815687986328324
Ga 8.473399742188079 7.9221762154578785 9.28405367870079
Ga 11.976542258547264 10.075357259703711 9.844345196195016
Ga 4.52046071319945 9.506859820886563 7.647217391493027
Ga 12.903794963881571 12.63783768502737 10.606837083323189
Ga 12.351630811051004 7.601964424458098 11.125348052814246
Ga 9.880447030197585 8.928984713379304 11.188080451627181
Ga 7.689982321560433 10.755807884128286 11.127092759366047
Ga 7.591173073893074 7.476785315012959 12.093784033286347
Ga 5.651025191077072 9.598382405196318 12.52560040236975
Ga 8.671611042341564 9.786174306625387 13.560133513332653
Ga 11.865793775543253 9.807554118659224 12.845976381191827
Ga 10.372499381206227 6.972741420652328 13.061914047006658
