45
Energy = -117.73739579 eV
Ga 9.528151496069812 12.671682977967876 8.993135764912845
Ga 8.342154578114506 6.629950726088797 6.336722689437671
Ga 8.574733680901595 8.801069356584776 8.44492505910397
Ga 10.3596125332948 4.8194472511461806 3.2072383146049295
Ga 9.281473103881938 4.007512751307676 5.614992945897042
Ga 5.266360709272067 6.517863110895785 4.043678680880994
Ga 7.772929296375861 10.51412364093589 10.672906312541693
Ga 9.0716848938853 6.314499741320204 9.494725890987075
Ga 4.020650870506328 6.902101289896547 7.908402497146415
Ga 6.857940698044362 4.913796518180598 10.951228161549638
Ga 10.119972144205889 11.305593373772965 6.650191986878938
Ga 5.284999530288993 10.078523567578774 4.204294504421427
Ga 7.611536730276811 10.819565070412846 5.45211182661883
Ga 10.005870686272624 8.709475630782258 6.145036219750384
Ga 10.725793997336316 4.575564530860663 7.9337802308865735
Ga 12.082365061668119 6.87144694810096 12.66343118344024
Ga 9.899844051941324 10.36799316123629 4.022133499411557
Ga 7.327600370078525 7.663026308124685 11.561742915406256
Ga 10.390009020750528 10.40762513570248 10.076515991425271
Ga 11.63473706827267 5.622524457772069 10.31867995638139
Ga 11.233217609523944 7.52463679625425 8.22487156177343
Ga 5.726895415743112 5.214257507430134 6.285791375610018
Ga 3.423887772707571 8.1296470261596 5.409711995903595
Ga 5.477326907460656 9.688605701749866 11.929723507171996
Ga 6.6576161345398335 6.653426547905568 8.667559120683725
Ga 7.3386899332907936 8.412967906462686 3.8771730489116623
Ga 11.177488962954179 6.209344286292768 5.730400079955869
Ga 3.0296387641402376 9.51937530395545 7.655554916835096
Ga 3.8912104171554684 8.336387600575803 2.67357288654405
Ga 12.238013718166048 10.143171603039672 8.071695863977759
Ga 7.635673416460807 5.427505903358918 3.698975529429238
Ga 4.981615693871213 4.378892497102366 8.860267934638594
Ga 9.955432801104806 8.163020368499526 11.352217163638821
Ga 9.822795366045618 7.427814461135558 3.6886425075945377
Ga 3.250338768131006 8.995673873586469 10.350367048373197
Ga 12.52090525942814 8.59942939087281 10.460742518174037
Ga 7.2764047778407654 11.416799662897384 8.11434317085769
Ga 9.257752647340642 5.683937090522349 12.276449027125189
Ga 6.155956662745248 8.285217130546194 6.417029905312879
Ga 4.941900042807827 11.603021958649345 9.726415909947136
Ga 5.80067361922495 9.103961543402885 9.0670070414538
Ga 7.817531445216905 4.199875689697164 7.920635566973089
Ga 9.372987930764664 3.5706746007206367 10.272990037796788
Ga 4.770073925532804 6.770718775691229 10.82257915554476
Ga 5.054281518813731 10.994981257272167 6.716138526539059
