44
Energy = -115.05694691 eV
Ga 13.576118998580348 8.527324935361031 13.312765513456705
Ga 13.813091781389382 7.070446749016357 8.926656812764893
Ga 13.522092782965128 6.506035514023413 11.582127565957101
Ga 14.85507495191068 9.034862291632107 10.790258182828877
Ga 12.209993943344484 7.495609029048471 15.38025318975279
Ga 12.971911308310473 7.272462999663877 6.328957453346168
Ga 10.930153638516448 7.425353567352834 12.78397103236701
Ga 11.217778343432228 7.819053340018849 8.373105542042323
Ga 13.355151386538552 11.009924007632407 12.366581635374104
Ga 9.6114090503961 7.6470691882688655 10.432166616125313
Ga 13.896100705119299 9.560618934602877 7.707999166543461
Ga 12.08766142360031 9.014580110374641 10.668281389641221
Ga 9.885555093796466 8.856559127363706 15.099843927915375
Ga 13.809272641018167 11.271620947541736 9.688977207103887
Ga 12.493207753393952 10.431678245113444 15.20090301563196
Ga 9.14925814717006 8.694208635067783 6.895112844640862
Ga 8.370897751978658 8.587482997186202 12.780987612039752
Ga 11.558038382755498 9.657996081188728 6.150767039578954
Ga 7.814831741229679 6.9717639595664025 8.40924205875877
Ga 10.715284277418405 10.29233015690075 12.806745422495014
Ga 6.843806196565124 8.639299611652664 10.386088930037271
Ga 10.95247334897459 10.705886800170424 8.72897410990697
Ga 12.935676835944593 11.99440639488442 6.962162705007993
Ga 13.055355009510993 13.753212588675385 8.946556724543955
Ga 13.546954594255018 13.525884436173818 11.615472172771657
Ga 9.823644145165343 11.603198769543093 15.197621014920577
Ga 7.345729123165538 10.254121115170996 14.940494097037156
Ga 11.226344074350344 12.091889812853001 4.735666307080976
Ga 12.041182432673983 12.787853429011326 14.002733124150655
Ga 7.428348012170166 10.235198750979322 8.27747168112935
Ga 9.227679763800834 11.372495367666092 6.41388639680729
Ga 6.056106411950135 10.24590012432739 12.416104066285909
Ga 8.284572395636827 11.814616273068326 12.70882733743187
Ga 10.966382225202322 12.42718209769743 10.963237590168752
Ga 10.694507642140797 13.73764710734461 6.907768981450652
Ga 8.964501971726731 10.467551344618725 10.643645899707538
Ga 13.08114486956619 16.017620394134568 10.398623346865152
Ga 8.844601772918908 12.619735333814418 8.825821956899562
Ga 7.37695953944589 12.971890692868264 15.118002981961576
Ga 11.21813563191011 15.01176779556723 12.108160891397189
Ga 9.446071995154151 14.034341348292863 13.741786277426964
Ga 6.524498363350567 12.058222844685558 10.30417724587474
Ga 10.478884306240118 14.833050962084313 9.417973930146347
Ga 8.301500885481643 14.157991437957026 11.060984652789921
