47
Energy = -123.17915289 eV
Ga 7.987442634004031 7.992848304438768 6.982847532132426
Ga 13.670669992166406 11.59234464198613 8.793245629968022
Ga 11.09813419789314 10.321032158370024 9.131738347225914
Ga 8.509634658616221 5.712276342430753 8.30975187786813
Ga 12.441034505331762 7.590554857147548 5.853017312543452
Ga 7.693759979955812 11.822821833029979 12.603346776763859
Ga 11.433642585186803 12.619560043739375 7.422081423572565
Ga 5.368246527543318 7.340290805814838 11.670211238262556
Ga 10.60333051023988 5.764177314218219 10.765876718309082
Ga 8.429223111361235 3.7792487282281404 10.364182141878375
Ga 10.372240311795577 9.200552412737494 6.868413559005866
Ga 7.811593273434251 12.934343873182991 5.912136831022378
Ga 12.58508043880877 10.94012972060742 11.304535479967758
Ga 12.968465123044501 10.377940063927147 6.1511394027521735
Ga 11.212263205581156 13.191113165532114 10.092312949953007
Ga 9.176535244726889 4.878548126426084 12.974492555238978
Ga 5.782738308316876 5.974064409769456 6.972079788760458
Ga 7.119246340127493 6.913526885533254 13.8684753520875
Ga 9.425332534810797 7.588092875292007 4.653641654142356
Ga 6.647399228824407 8.010666112376942 9.196244218629731
Ga 9.924732287842623 10.487023644137027 11.769313012888519
Ga 8.008377664181019 5.335469145711412 5.50127697432856
Ga 4.85635618063096 9.756831823220784 10.37670294092879
Ga 7.464058804133583 10.47560883899019 9.993886731592601
Ga 7.347314972887714 9.234551459152712 12.467815085289358
Ga 10.69705046046966 4.134935474862869 8.514483304851419
Ga 8.536621414613373 13.138351412051664 10.501018139091572
Ga 6.252838265254713 7.717041352982045 4.705355370511762
Ga 12.134686746055268 8.204982746671083 11.021790335139148
Ga 8.97574040917472 11.420341441263748 7.98217083913622
Ga 9.341366198545998 8.300556252278218 9.78533809816095
Ga 11.098223401002572 9.604395578960522 4.125651394643285
Ga 6.2284040336164335 4.554011847601514 12.31246685455079
Ga 6.570021292463524 10.53980766004843 6.965425319221732
Ga 10.177382464655265 11.827219024060234 5.275512142810996
Ga 13.387330394325069 8.813539491848381 8.459795487783017
Ga 7.926016834049975 6.491485449350269 11.114209278342068
Ga 11.422935194478576 6.902714771667003 8.447774280545529
Ga 8.170963592672011 10.004733981804238 4.983734317858764
Ga 9.058749321628584 14.280576602972138 8.083267196858333
Ga 3.916011833560294 7.132867232844098 9.186637360575839
Ga 4.135826382094271 11.12791540819067 8.165813288587914
Ga 4.75835225153589 8.579092935868998 7.000488375798082
Ga 10.743360011309894 5.468628088631782 6.116178417410875
Ga 6.028407058392424 5.159310785883462 9.56251475628676
Ga 9.79246821827405 7.759445371488736 12.679481846677005
Ga 6.4317241655587765 12.725762067846041 8.733460625222273
