48
Energy = -126.38443528 eV
Ga 6.292701508004126 9.052783015066831 3.3657747595166247
Ga 9.014953155577773 8.247150348763109 3.7267647455597595
Ga 6.887894604764163 6.201214114769687 4.1089504119086575
Ga 10.716275277828558 10.511843167713016 4.317878022077702
Ga 11.589366349074083 7.700492775991346 5.042646289886396
Ga 7.975880780977963 11.123095377036782 4.695739216598044
Ga 4.471684046421337 4.781632043809139 6.240788947907854
Ga 7.338552692376862 3.9374473772096144 5.874634482926988
Ga 4.600026976928794 7.58632525524831 5.554799396147646
Ga 9.179969682849062 6.199034586482744 5.914933874529488
Ga 7.1981139486099 8.418660417981059 5.930552436881435
Ga 5.403129053355336 10.475312361744791 5.715009464336841
Ga 9.72092619971814 12.350877928681932 6.897932200310688
Ga 9.549363165138615 9.189988175213328 6.38319111892204
Ga 12.155915566877292 10.086389496122232 6.646352005226884
Ga 6.621876152798418 6.202587497784907 7.198645839660931
Ga 13.133026875939343 7.040958105207211 7.245907506174264
Ga 6.9677335994322345 12.937712719154469 6.769647680733308
Ga 11.283347458020367 4.769538868467554 7.487832654861919
Ga 3.3885601849739078 9.381981931602095 7.460350566471886
Ga 5.7548343469769945 4.077970264681185 8.758581460953646
Ga 12.057950071740507 12.093493327873823 8.646100625353458
Ga 8.532660242848316 4.187702343931519 8.345958989009741
Ga 3.9730219044346646 6.574852524177807 8.335650105275233
Ga 5.033580545325648 11.634671797999248 8.249008977652089
Ga 8.02978776873551 6.8327607066659874 9.362826156317292
Ga 10.447467490261024 7.345773860223748 8.081919209832508
Ga 6.03464658293027 8.569048566312787 8.427108426592786
Ga 7.616914303794446 10.56408885533322 7.763160516355287
Ga 10.079639629487788 10.068738006826662 8.731821924331577
Ga 12.767637869266336 9.194685137929783 9.2456768900144
Ga 5.474173988656409 6.432643673255958 10.618246810143255
Ga 7.490812699591447 4.694930076580168 11.220221095245138
Ga 7.953803302036068 9.435199656957247 10.225491013120584
Ga 3.8637346731546134 8.784083437127462 10.179378480007951
Ga 8.858522288814838 12.360879692535935 9.983480538415275
Ga 12.572175786304376 6.347019764702193 9.86237011529399
Ga 10.157487265281613 5.141687039069889 10.307436579893121
Ga 10.416546566361344 8.088322853426465 10.622114195839993
Ga 11.233955917783856 10.907524826224243 11.0321221447293
Ga 5.506214383117871 11.077661471860967 10.85597163951541
Ga 6.022528984743184 8.646763293017681 12.15698381175133
Ga 7.7588984763371265 10.94356706184524 12.344477718781791
Ga 12.841494279552197 8.583440107692144 12.010043264022642
Ga 8.276307388379793 7.197626067162263 12.246868796292123
Ga 10.052462893884933 11.906850270023137 13.319073232287472
Ga 10.958199679473175 6.282202732154417 12.731749042272325
Ga 10.093312873445644 9.178856502743857 13.105896102444902
