46
Energy = -120.91647245 eV
Ga 6.1169233479934375 8.726099507724095 12.963218128271158
Ga 8.576864963685845 8.390069477204255 13.991389676364271
Ga 7.539160247520331 11.061377627608703 12.923786193427334
Ga 6.043982355535367 10.337725196010663 10.613867643467762
Ga 6.019911113255622 7.895420206790286 8.115588220185314
Ga 6.010493802143601 7.150212259695824 10.760519015028125
Ga 8.229148179067412 6.206805549618723 12.264302257977853
Ga 7.141679741702722 13.135131477714108 11.250470964841856
Ga 5.075662133674681 10.49113102496683 8.094969820468817
Ga 9.93679050203704 10.952682751328895 14.275011446526772
Ga 11.025589877667949 8.223637606946845 15.032287716676944
Ga 9.316526848108861 13.39397924729962 12.825398625613959
Ga 8.315726759552817 8.725913274736115 10.873413894085845
Ga 6.795457858656724 12.622583176615878 8.563282849826187
Ga 9.151976020140665 11.242345088161954 10.562028294793087
Ga 10.56576958016354 9.002514031446168 12.197961543877073
Ga 8.157435765467259 6.2580623731538845 9.261308836007606
Ga 10.51516597449685 6.4457575175254735 10.626121806242574
Ga 8.259857268403826 7.3711311165048015 6.5045684718055385
Ga 11.021135786440325 6.123104346115032 13.240904459679076
Ga 11.653241884272273 13.206298962323489 14.397233352548295
Ga 9.236584487836376 14.179592357756746 9.893990213959256
Ga 7.883256784350853 9.853496982305694 8.325439050468885
Ga 10.030156331278324 8.353942043847297 8.502709685194741
Ga 9.397468226692052 11.990766734017658 7.989489221510487
Ga 12.698543040796995 9.942256200142198 13.922299061821438
Ga 10.357411596333684 5.580201777846584 7.932786397077529
Ga 8.37012560313162 14.478903787628886 7.213270382409145
Ga 11.649910695750435 11.604953054694615 12.058356964379776
Ga 14.249598744546285 12.141419576624198 13.536283304676921
Ga 12.9375522232464 7.645045431433383 11.780716307602027
Ga 11.885975717357427 9.621915034395938 9.890355215778834
Ga 9.754781522781512 9.903455736656092 6.175335589208819
Ga 11.53060148644186 14.365355506391484 11.425147448385585
Ga 11.556481516447397 12.273036517180268 9.500092814723173
Ga 12.46634948899553 6.995476460655519 8.896309624291526
Ga 14.178934688779199 10.23652657574001 11.475562938537104
Ga 10.995366185897867 7.205921166732406 5.808558205212279
Ga 9.921322562887598 12.576415897374417 5.351084108001272
Ga 12.470849308321139 9.062830563179343 7.075028379899139
Ga 13.88540968978396 12.998997665854965 10.914812871831003
Ga 11.069572510971836 14.348753117328503 7.64052921736646
Ga 14.71209962584284 8.45224272457715 9.474873574923455
Ga 14.00694588934548 11.037150991195679 8.67203871305687
Ga 13.790093670420573 13.732227842211536 8.192033867763152
Ga 12.110401185712533 11.750211298052472 6.76122995527028
