46
Energy = -122.40892754 eV
Ga 12.768644733211175 11.715535373769788 13.39763266817174
Ga 14.462004646045447 11.349888418458303 11.042410735077995
Ga 14.12505792230036 9.327602196295418 12.844931534207163
Ga 11.546762513336244 9.090522361599717 14.176938374981912
Ga 12.577611496097065 13.431968512419926 11.066747441419508
Ga 12.898601481613408 6.981283953825456 12.722465929002455
Ga 13.79519826905838 8.171372080000138 10.080766009444146
Ga 10.321709278091939 11.538806978643384 14.830154591646673
Ga 10.94935621994061 13.818227902529431 13.221698991513003
Ga 13.941869132127099 12.915465907158257 8.763663273240148
Ga 10.129053770444864 6.689207671539203 13.038260638034249
Ga 10.241667351600489 11.476049282007086 11.899892147004765
Ga 8.79788988603835 8.635094426119027 14.603562528486295
Ga 8.94905897891719 9.044318804725156 11.69796683764598
Ga 11.638845243696874 9.197240556480548 11.475614974111858
Ga 12.828228885971516 6.4109815765779565 8.211846591370596
Ga 7.783558912946083 11.0775493981482 13.895348623132898
Ga 14.810605731727357 10.173863658238055 8.514333412235372
Ga 11.560264160706259 5.809535552862562 10.646724216490721
Ga 11.507070708277384 13.973104462573813 8.411001371808592
Ga 10.122002722368931 14.617160063488459 10.63472103580933
Ga 8.25110002993856 13.56333413107201 12.948491719122265
Ga 12.05193586322075 10.946155622558296 9.560986405613425
Ga 7.364623391028505 7.003363202286726 12.730845327351528
Ga 6.074035998573987 9.401400170832245 12.640504192176552
Ga 8.755432091633839 6.1296938192051265 10.547785560871656
Ga 12.819590041308945 11.549989915202374 6.6549511464772175
Ga 12.861620544966254 8.885575747126277 7.176188603590216
Ga 10.08355492950986 5.556803666082462 8.243821974626616
Ga 9.452548407255852 12.122654599586031 9.349141961237706
Ga 10.547985486151394 8.137019087893448 9.335761599377776
Ga 8.768778553353636 14.386536715211056 7.9746908461685315
Ga 8.13729231766202 9.669758945266919 9.146374551291453
Ga 10.653249209324466 7.501286573906297 6.370976272806139
Ga 7.384151001634689 14.079898275532054 10.39671817704245
Ga 7.479705380220125 11.433167292520478 11.190744130317466
Ga 10.242269365601098 12.682101407381149 6.2570886953864
Ga 10.316604975275984 10.20727218533919 7.7233835223498515
Ga 6.42710133597163 7.550990916329483 10.119612961165307
Ga 7.86864703168597 7.023532449676959 7.908849812466602
Ga 10.824608266889458 10.11762209977706 5.0183027634211275
Ga 7.842221684532697 11.597447862990117 6.639088406542347
Ga 6.267389716062096 12.244874610832666 8.768526417618801
Ga 8.301370943174499 9.05858317337634 6.002484757888951
Ga 5.971437123212686 9.069096357559664 7.595323719529293
Ga 5.290243821964552 10.118692693771811 10.107233325650292
