41
Energy = -107.02975968 eV
Ga 9.1501163840525 11.381680680758098 14.476863532535988
Ga 7.371475478724683 10.258305262111191 12.742328366728476
Ga 6.472633671272726 7.496695760218649 13.041712322329076
Ga 9.032034493023561 8.340349658060614 14.141119242963988
Ga 8.926083778611575 12.544139667410601 11.695954855840151
Ga 6.069304330181134 12.162298409487862 11.196931561451526
Ga 5.473181264315182 9.03176090988578 11.041315079335003
Ga 11.436492111716154 13.941651661813555 10.701308025534281
Ga 11.476779099702133 12.236661920749635 12.886590834759376
Ga 11.457386960814096 9.841863225758038 14.468771063660125
Ga 8.028000110079608 10.448485500727546 9.898999850914278
Ga 8.787345473173348 5.750485405742162 12.853015421481876
Ga 10.25741940035496 10.027419154974787 11.855460883132709
Ga 8.48723421477035 8.202965991976917 11.310060602315911
Ga 8.01068461800036 13.07424983115491 9.097919985921779
Ga 5.3658142052748 10.690938832359844 8.910722061609356
Ga 11.070147493700512 7.306345325165652 12.455935031489814
Ga 6.118060817416146 12.647295217490646 7.245411661323141
Ga 6.839029218368731 6.054606421778992 10.627366922783866
Ga 10.485562091176897 11.571431034322941 9.339348298956248
Ga 13.024757115191992 9.18031579036943 12.420545432789044
Ga 12.987668337761534 11.475957285717799 10.60823011589749
Ga 10.108804818010373 14.275101494576965 7.540968903467722
Ga 12.664770739431466 13.066143785731764 8.33388577666272
Ga 8.56641299432613 12.211609679468651 6.19398935954507
Ga 7.105801265796372 10.034271293063137 6.876149126495841
Ga 7.37201983525188 8.111183936015498 8.808124521695019
Ga 9.934366883107517 6.483669956546968 9.956520359332782
Ga 11.604210289535446 8.913367974334552 9.666383790569142
Ga 11.20849824431259 11.833652233640384 6.3344674430790855
Ga 14.375866900634376 9.097650147776237 10.098701819349014
Ga 9.769988410274406 9.564328133503937 7.7692173838377805
Ga 13.040832402828563 6.626770384759155 10.623720990663168
Ga 13.427529201462445 10.511513465897353 7.957324657999229
Ga 9.426539902767276 9.867237607484709 5.032223003055566
Ga 8.036034799981802 5.56274241475235 8.060263744857716
Ga 8.259112380284948 7.5671319305064015 6.163554149144983
Ga 10.894485924275916 7.129710249795212 7.578090550044565
Ga 12.17446823863141 9.358619791397544 5.900593571411533
Ga 13.734107532023035 7.709745922486085 7.7416239851498325
Ga 10.737085320825985 7.352583445731257 4.783296108908432
