45
Energy = -117.36349571 eV
Ga 8.408926443806632 4.949990734422812 6.010454626641925
Ga 8.126450795612685 7.2517412338145535 7.494977981295297
Ga 11.628112478470399 9.364071857415711 12.965896033775758
Ga 7.296264572617737 11.943856864921981 5.0568969066466165
Ga 3.6829834436631 7.42237239774002 6.286945078238005
Ga 10.971591784483707 12.527803602300736 8.660775271153662
Ga 7.86733176424731 10.33856603679806 9.496367138388104
Ga 8.13100104229885 4.9091325909911845 9.007150376452097
Ga 9.602004363822127 7.717257159958594 5.171284680380001
Ga 7.843046871714254 9.617416281693838 6.380719213283405
Ga 10.860962183140499 5.385147954987951 10.377296902241955
Ga 6.473254949605933 7.141002881335308 5.133857867268914
Ga 10.644743292668554 6.408055316244262 7.789449542537063
Ga 5.972251953495983 11.350712879319019 7.701218419232792
Ga 5.276710731565656 9.767976447992186 10.234161673553173
Ga 13.301174629998663 10.207832537576408 10.88529068844347
Ga 5.570278271157403 4.867544116463433 10.339535414833296
Ga 8.820365636269441 12.814088809079767 10.472150705646497
Ga 7.746535573826448 9.172151656207603 3.5985424781109296
Ga 6.766228462027304 11.40924690526052 12.046026293437349
Ga 5.707220454029315 5.654074509589726 7.4834567978983975
Ga 14.082962171647056 12.933675719834111 11.525999287336887
Ga 8.669754461441347 12.161856202893404 7.428072164186395
Ga 10.237870027749869 9.422653975212267 7.64732124930014
Ga 5.239260760216839 9.819027453039206 5.252304449655016
Ga 11.401253290924819 12.494864580674465 11.469598250078592
Ga 9.40154349290563 7.76874052914953 9.852140765639179
Ga 10.28055010323867 7.180817793106616 12.37400398887918
Ga 3.9796485871625658 7.240011271255972 9.387076846674983
Ga 13.542094692447677 12.301860894382099 8.958119156121064
Ga 10.37622262526837 3.6524536711705853 8.07405312311744
Ga 9.475365212937614 10.964308905067744 12.70789799654501
Ga 7.96237467133105 5.818817373761679 11.784734541078443
Ga 12.34573431433737 8.05106387827062 6.295410029246889
Ga 3.489892848546542 9.93622480637917 7.920059523210235
Ga 10.08852476548784 10.61766024997649 5.112339343525346
Ga 5.2522464840534395 7.499598911160324 12.114717382708793
Ga 7.806448343967007 8.805004373776052 12.038168978031733
Ga 6.787284236531933 7.352694075934393 9.796236122195284
Ga 10.565454790586253 10.179685797698385 10.23212382133512
Ga 11.362569030255274 5.561124863141494 5.281213279208691
Ga 12.332225207802587 7.752014767739568 10.175107211067028
Ga 12.94000100051539 9.832765060076005 8.206437164509495
Ga 13.28029627891504 11.300399380625956 13.517279727414177
Ga 5.831840329044916 8.561490117396744 7.6859889353141035
