43
Energy = -112.15967339 eV
Ga 11.83462031063253 13.59107185178937 7.746720641062474
Ga 14.457796927169824 12.6938996600306 7.9903473460150725
Ga 10.277275879884916 11.747061904488694 9.08088405597087
Ga 10.604444384469874 17.318069068845205 10.948659156755491
Ga 12.227611458509257 16.06719988823881 8.964787032069829
Ga 10.425650274290573 14.416906986985905 10.20522281169317
Ga 12.964060623016422 13.194246632733229 10.34729575714569
Ga 8.81954173633275 10.35161108585717 11.120968321208743
Ga 14.792629724408384 15.051373316687318 9.406532893510722
Ga 14.88656788436487 7.49584993327198 12.342080128685293
Ga 13.06614859094721 9.54876717275843 12.01765254032163
Ga 12.025049260907661 7.056855505954716 11.965802844851888
Ga 13.005167301962112 10.646875629417112 9.471471874145994
Ga 8.976988019910422 13.001084552135252 11.788804250237378
Ga 10.850880550613379 8.946990935182622 10.147648072913391
Ga 15.311446154537132 9.420097978066785 10.383497842245287
Ga 13.768868556656946 17.61145569263042 10.811188710125206
Ga 15.457000740633612 15.908171869217494 12.107786011355023
Ga 15.639751252096316 12.073515904682385 10.411178333931433
Ga 12.607308747652866 15.325598238031784 11.790725434996718
Ga 9.939529764197754 15.489069532664452 12.815827578829644
Ga 11.39505845925693 11.644635467578697 11.772884994660096
Ga 16.969640490242213 12.941382217911785 12.536829940019018
Ga 15.522429701489108 10.653775869670405 13.15051593860338
Ga 12.18786884141837 17.6166477852092 13.260244380200795
Ga 10.365298086696116 9.269687709703636 13.082234628550799
Ga 16.30680814403439 14.744239691249613 14.474420452604607
Ga 7.752727395006812 13.608124961758726 14.082335057140837
Ga 7.5625755664235434 11.009875095666633 13.359962897668149
Ga 14.284021065422568 13.29437174799988 12.805312989250238
Ga 12.860942587265104 11.312011155666653 14.043255139929798
Ga 11.844175910123932 13.876111331908353 13.946355174793819
Ga 16.695503550203295 12.053273649726012 15.39857691322251
Ga 14.265728957556393 8.650228874651207 14.628336715673031
Ga 13.819972698187177 15.868392103268423 14.51648668953186
Ga 11.839902154424914 7.552491197341201 14.563209599607942
Ga 9.997764459683614 11.76560318136271 14.404914534786425
Ga 14.25026620619585 13.424597236004145 15.721020990130594
Ga 9.72786096733776 14.493036405285228 15.567271327323136
Ga 14.145580208807912 10.733426981142765 16.387051162866456
Ga 11.705840007574738 12.407953955187498 16.6165517939612
Ga 11.305411545971273 9.794068243843093 15.954807158576331
Ga 12.09723881470259 15.17124575941491 16.703293844048233
