41
Energy = -106.25805978 eV
Ga 14.651828524160523 15.393370305851406 7.420078032907561
Ga 13.823766101995304 12.711020988889263 7.815281450040498
Ga 11.026332213144018 12.629369526223247 7.241795932533266
Ga 12.335767061847838 14.578470361096748 8.951665628858713
Ga 12.18150281120502 10.800151610520711 8.993506637718768
Ga 15.771194740129665 13.74241373514108 9.364575633197065
Ga 15.082445030191124 10.411504917094947 8.661099765516221
Ga 16.129909747954493 11.651371023386266 10.794965559434791
Ga 13.028021072186467 16.466835915993947 12.531714560593832
Ga 11.603355922322594 14.596203742204244 11.526894144735389
Ga 10.45670290156627 12.79076046810888 9.879358845570831
Ga 11.485548012601651 10.697363847732168 11.933795225067566
Ga 13.851786038706479 9.724561378914547 11.172614932989573
Ga 14.515595904277193 16.051725144347255 10.022580573374182
Ga 15.454564419046838 14.258386638396995 12.21603082344731
Ga 9.421377409381053 10.399261650751615 13.708143716302757
Ga 13.455457585198785 12.604910947263383 10.739072643892506
Ga 9.512709729671899 12.801304042274344 12.398922997093871
Ga 15.859307167941102 17.040709014846968 12.101539541701026
Ga 16.75857844445273 11.595706042836648 13.212611777547119
Ga 13.240905231072766 13.956894275966308 13.76292118252971
Ga 14.744893000729567 16.653108645764636 14.588960593684963
Ga 13.99562655019467 11.385908824694361 13.338791905097688
Ga 11.49263403025195 11.977237013710807 14.413034768043596
Ga 15.918356935126898 13.442482515559014 14.853921474906818
Ga 17.487055314104506 15.702691722134624 13.88035833234293
Ga 16.011710359603995 10.523321717779305 15.450238465112916
Ga 10.527782956500882 14.753184676256177 13.967833704464368
Ga 12.080952341813619 16.35854439161971 15.381356355470157
Ga 13.89250678848701 14.378809875143808 16.290760282916505
Ga 10.906272153474118 10.93919217751294 16.97694785622407
Ga 11.16061340739392 13.716694440142412 16.427893740267265
Ga 14.137457307941972 17.38248857070721 17.145037208346018
Ga 15.839720753016469 12.465896754524408 17.44726229117236
Ga 16.412161873047673 15.624509115134074 16.485934013142494
Ga 13.507503850513299 11.226086861161711 16.104606254342034
Ga 15.096059514063557 14.893642879088212 18.74191240854672
Ga 12.177638215260322 15.598782113499452 18.080462942603425
Ga 10.721945340689588 13.092374149438745 19.115240648304585
Ga 13.309550613154391 12.532847863357128 18.377340406338302
Ga 12.882832454583285 14.399829943935941 20.432866572625393
