49
Energy = -129.22926936 eV
Ga 12.184327222034646 7.602220910125824 4.826210032839455
Ga 10.055472503190629 9.725418838640053 4.35970125977423
Ga 9.512993867733906 7.0375874272842225 4.851515234336804
Ga 7.307815115168361 8.751599621352998 4.894557219393353
Ga 7.386491521432282 5.904483318717149 6.022802014155988
Ga 7.977427001970777 11.698112466607213 4.642724170265371
Ga 12.59072589178049 10.697523125172369 5.021493754156607
Ga 11.895097564907648 6.2919227850163315 7.38436261699912
Ga 10.509070634868724 12.041402649586894 6.354145156798445
Ga 7.679100916372123 3.835976237190881 8.240676858153014
Ga 4.888803908531995 7.926192696034366 6.0975151078268555
Ga 5.841798946090137 10.800716327549013 6.168326257182943
Ga 11.148579570391863 9.020411138510212 6.869041452539216
Ga 8.666093037227668 10.035094145209957 6.972482049375222
Ga 6.535918628072911 8.91968171028906 8.10950143994325
Ga 13.411194510218891 8.262387187729068 8.491243014073886
Ga 5.097983354215624 5.3453931605933365 7.289056679541946
Ga 7.775423682883247 12.862807265910037 7.210004969056676
Ga 12.373023800122272 13.527265187655301 8.281134359846266
Ga 9.851690515262135 4.691721968428299 6.453273251843429
Ga 3.7817295704150045 9.962593071064761 7.897390402799115
Ga 9.883536601832457 12.732107904337584 9.055177777000537
Ga 9.227480627296126 7.309927735978262 7.62412465402365
Ga 14.603468023868825 10.516886044358357 9.954548134599442
Ga 4.289565876888879 7.420791436452564 9.107687468528932
Ga 5.396150223991715 12.039331409655693 8.856361140264134
Ga 7.061697308817074 6.495650021006626 8.894052468603665
Ga 7.849884625068973 10.848497108102356 9.359921415104406
Ga 12.706007814093901 8.892466714938873 11.184169895345493
Ga 5.14731093852675 4.823293198481645 10.178238842615576
Ga 7.371965058655174 13.641613914927666 10.004279495466543
Ga 10.337986152796073 4.5640055196420475 9.256706923926693
Ga 11.95541045117808 11.67394648444964 10.542584497017689
Ga 5.166863416713579 9.738270414135357 10.47848050694269
Ga 9.343941379511758 7.119142421402271 10.23261285803752
Ga 10.435896240296834 9.528801463575835 9.543120236219087
Ga 8.126248580847548 9.191318268310466 11.329745545360627
Ga 12.040863918919571 6.4211215837500335 10.27141797567869
Ga 12.589728968441591 10.848228971292556 7.968686313927169
Ga 7.950864355440021 4.773812550167002 10.917717340572933
Ga 9.157609204580373 11.926329972458916 11.671086505041385
Ga 5.953835322203936 7.293304972114007 11.343400158158863
Ga 6.422425633258588 11.685746002716833 11.853306823067465
Ga 10.373393602091955 5.230466574916349 12.252067465400813
Ga 11.129109979550174 10.545595411906648 12.843432961748421
Ga 10.52443848129089 7.966235316247139 12.663057492295708
Ga 5.9653450520051745 9.220808476394781 13.401259562730965
Ga 7.985911704974066 6.779329869615275 13.071670597541996
Ga 8.655356854204538 9.955517160234232 13.826985804114043
