40
Energy = -104.25538448 eV
Ga 9.85228121884938 7.0374790251995805 3.856542634249216
Ga 7.2868818295276645 8.618461954625776 3.45091905684443
Ga 9.47546871437998 10.039829076451129 4.5093134520267215
Ga 7.789108744953065 5.011637293592657 4.920169998530908
Ga 11.00681075166054 8.049211628420046 6.050746770153083
Ga 8.148896028505817 7.6149739036551 5.908444331698864
Ga 10.044233644345438 5.359471440584538 6.6052677001809075
Ga 6.5157913126553515 10.150247580103079 5.759282698761211
Ga 5.44663224240368 7.260904178558424 5.748752466202785
Ga 11.293489601149288 11.208001476913923 6.418626493810657
Ga 8.373890018600939 12.365675240576765 6.443523793407376
Ga 8.939182811011062 9.810645616219412 7.160958620082695
Ga 7.092258525651672 5.562749989157589 7.739657316704069
Ga 11.894163834325505 6.30672160999893 8.458186254814056
Ga 9.233169656333576 7.362785063120784 8.272195833481849
Ga 10.47682031329375 13.884529648196985 7.901619193082393
Ga 6.385270405922815 8.338290079132651 8.162948127423823
Ga 11.720118769187254 9.21953624495906 8.4556851823822
Ga 6.373917856105573 11.109522392202836 8.347488171660624
Ga 9.903925611775188 11.488266753060989 8.954035446014492
Ga 7.9887918134650135 13.411314610152465 9.303665888245623
Ga 8.408601763938199 9.505323644447214 9.686687296669344
Ga 10.37815202295603 7.708512093596909 10.571931489108797
Ga 11.609682025119758 5.41508883890776 11.4117980362885
Ga 10.704964260434336 13.121595454107519 11.06292975067615
Ga 7.222633183828258 6.765054673861513 10.339632885815684
Ga 11.319366612767531 10.336914191943688 11.012087099960818
Ga 8.256413624035956 11.732871063024223 11.406023506807406
Ga 6.0440024752682096 9.628722394602601 11.088273486645067
Ga 5.607739821424786 12.399396967232006 10.600985292573034
Ga 12.722705064327544 11.862826468508711 8.931206578919367
Ga 13.170776070711941 7.954745339563574 10.609416046566178
Ga 9.375337798549257 4.927347733051759 9.577982639147738
Ga 8.657864926520391 8.966785653376983 12.14265913870773
Ga 10.12909769730073 11.105027095938748 13.52257185280271
Ga 6.305041690740688 7.3819102053555685 12.857144137741486
Ga 7.1899948550824275 10.575579189975723 13.77203620191599
Ga 11.217514011281684 8.369848082834707 13.157038276468585
Ga 9.059698540061435 6.180726320979304 12.470932248890843
Ga 8.663304831174264 8.135464763435571 14.634629584161413
