47
Energy = -124.42971318 eV
Ga 6.910636144705363 9.694976850781195 4.453100208809083
Ga 9.611361480013125 9.045616219414915 3.8815623760195974
Ga 11.05106565327094 10.97158271597616 5.391006462990911
Ga 5.745748930577934 11.539006747087742 6.404995901598951
Ga 7.708255569487844 6.976021248730148 4.640965574236399
Ga 8.46760457050822 11.772941432494164 5.466234844885659
Ga 11.962570875259761 8.366356407866439 5.3693023074368496
Ga 10.225074137209948 6.274332894367004 5.1487263967766115
Ga 9.141783379593505 9.139799702759216 6.5325155858894215
Ga 4.332583575799252 8.602185246654367 5.581036965186292
Ga 10.507609387873513 13.013841430268505 7.149067185572171
Ga 8.077722006032028 4.370365687419635 6.425088742698012
Ga 12.812457701009855 10.125706403728703 7.524151090881633
Ga 7.777566928079975 13.127850168095277 7.862511595202145
Ga 6.605196918056172 8.620445191777161 7.043948504204325
Ga 10.835379565399718 7.740689793671281 7.914056919346226
Ga 5.722760678822921 6.052121325742343 6.212036336940099
Ga 8.376107622418493 6.684635274569685 7.692239878656369
Ga 13.063861684552583 6.324949035949209 7.035382214885974
Ga 4.280313836745901 10.00491159335392 8.25419123183252
Ga 10.681439680662415 4.775569740917206 7.364985871901933
Ga 4.286268087522949 7.1614120066477565 8.303477829085859
Ga 11.985522514761898 12.105764060002349 9.271864609496614
Ga 9.536594662512421 10.952994763719662 8.450196791005165
Ga 8.888188929934795 4.273184981385292 9.402048747700501
Ga 7.004964599942403 10.512527715187554 8.81346184875985
Ga 6.8412855326649495 7.836595440226885 9.661106660976463
Ga 6.333428974393551 4.831613688934911 8.699506588884988
Ga 11.9384236585473 5.55324802878024 9.681205115241822
Ga 10.352200189622364 12.035214511014901 11.404954537428864
Ga 13.312864871723914 8.09164895417695 9.361562736832948
Ga 4.392922424379499 8.845628164946964 10.763519823753295
Ga 5.2379834192798915 12.585161917152096 9.214257150476904
Ga 4.998574831265042 6.155360955685365 10.799094920374873
Ga 7.913232272389589 12.703965821205376 10.568513956873746
Ga 9.410362682046772 7.17621861350719 10.179814945325905
Ga 10.997281672089807 9.456172650921664 9.969596709714018
Ga 7.47538762002872 5.532862262997185 11.696136966081074
Ga 8.481070700197304 9.65034622441839 10.825063119515812
Ga 10.240737107714239 5.12430149770629 11.76224015407093
Ga 11.955770425852807 7.492458632724816 11.860744703745096
Ga 5.893915635869683 11.00214345117971 11.510940159343978
Ga 6.496742957001686 8.26555405845356 12.651742060781253
Ga 13.085545620781915 10.289822202742958 11.466501179432314
Ga 9.140821434249958 7.374465308220821 13.102680925726945
Ga 10.595473517439476 9.698341893846118 12.84887300493354
Ga 8.094660896356485 10.856412647239791 13.17111412313478
