47
Energy = -123.99271082 eV
Ga 6.902877463146408 6.918969495813426 11.989719386699775
Ga 9.163501536023162 5.644672301486091 10.128339742097463
Ga 9.261356436711388 5.6961233440623 13.053216933659618
Ga 7.273147130389147 7.637294937557097 9.388573643762184
Ga 8.37059338020291 8.376865125731255 13.983952590867696
Ga 5.64292939887892 9.805083532170288 8.95335516206487
Ga 6.553491811945593 9.698211920080626 11.642032633504918
Ga 11.652447008369696 6.018523990844481 11.618538592855343
Ga 11.654482035846227 5.97275306972581 8.876363960884913
Ga 9.49679398179131 8.222898454702671 11.365471855815482
Ga 9.88759727322109 8.130030385041442 8.499903850619843
Ga 11.076499780963402 7.646549566280482 13.747458710215346
Ga 7.683855944393792 9.160408793008887 7.0193809220804955
Ga 10.339560393636534 9.955359927533523 15.038590183735396
Ga 11.978046647985044 8.663526965992217 10.31185386260613
Ga 6.383875419915714 12.328215056188608 9.655704711960214
Ga 13.544934713763336 7.6842089765953485 12.558749953993397
Ga 8.514147674262382 10.325219848599733 9.69138854708842
Ga 6.508066737574023 12.405644917323919 12.358284644672812
Ga 8.918127747449125 10.800218022629933 12.523297880823502
Ga 14.153580201363626 6.808260701393691 9.974222935843873
Ga 12.697301436166102 8.126558564288603 7.527261481904319
Ga 10.087833292729725 8.243917493560357 5.716190206417451
Ga 13.171424220429591 9.229528172921974 14.713515392368668
Ga 11.189567939386402 10.568912949816665 8.574463752770155
Ga 9.200752639900841 12.556071666407554 8.444548675438144
Ga 14.694290610933896 9.416870545858165 9.176138514698595
Ga 12.592311246068983 11.598307803504389 16.0084429894503
Ga 8.927771610149735 13.524863605668177 12.895707824084381
Ga 10.506776808221794 12.301052957508249 10.827588949446241
Ga 6.9832776759809345 11.843664069216857 7.011129059538723
Ga 9.501577156854657 10.991133027494637 6.1238947024233275
Ga 11.5852764273899 10.186878852524044 12.47274488261386
Ga 12.09067421489664 10.328458402624339 5.925098421243938
Ga 15.03752514480017 9.801923521632157 11.843538567092896
Ga 7.300529850524257 14.794605561218566 7.844595275911529
Ga 11.078209929338104 12.589639191291573 14.035165270072255
Ga 13.863885131902354 11.704543958493677 13.384990878083757
Ga 8.14532099835521 14.18930288853495 10.440368934962818
Ga 13.823679571022389 11.54645223750535 7.77295300853853
Ga 12.603944257350706 13.840461031066866 9.206843923928425
Ga 10.278663502058958 15.027316685346406 8.390802818514269
Ga 8.9930089927944 13.763047982228684 5.817905491791974
Ga 12.832447970502772 13.743788489590324 12.0180818485653
Ga 10.648818107385763 15.119828042286946 11.280246302235797
Ga 11.491412187111175 12.934358739765766 6.785809601120225
Ga 13.088657329512305 11.399254485606685 10.519000826086831
