48
Energy = -126.56282746 eV
Ga 11.633957006821388 15.449377742170704 6.545303954977982
Ga 10.321846438687519 13.363717490490096 7.679777306494242
Ga 11.442734355673707 10.70299848034807 7.606029803087171
Ga 10.011236950114368 8.724673972589189 8.673385000945899
Ga 13.109197544059429 12.72926052678662 7.059922886560005
Ga 8.896903001137515 11.321339214631706 8.731812766097296
Ga 10.510987980691679 15.778917498696524 9.130261971389995
Ga 12.498310049467369 8.937551990541994 9.946480263522842
Ga 13.354548819453242 15.015658260341127 8.64177761902617
Ga 15.326462906104554 12.925028380558661 8.802007481392637
Ga 7.509002709444089 11.894260141541228 10.99702531162486
Ga 14.134742491183893 10.443938116691774 8.477372195884563
Ga 8.305627559873045 9.316948346677446 10.763519581832796
Ga 10.665165411793136 10.706348619833374 11.048650968583223
Ga 12.35373405471736 12.457436920894805 9.800072218360931
Ga 9.673176087731761 15.925416435272469 11.697756794352964
Ga 9.862533941621946 13.370232514153091 10.37771196529219
Ga 14.982323940038489 14.40421831279787 11.097199079327707
Ga 12.359490952152626 15.178996629354769 11.136437058626893
Ga 12.247944956314779 8.107918620870814 12.649006972768461
Ga 16.98399037777834 12.501702393632668 10.989253429817225
Ga 10.258725205468807 7.1287777049556125 10.869398538879565
Ga 14.288977789908893 11.528219622793442 11.22574513440088
Ga 16.32290652345566 9.889254736144382 10.020833732300815
Ga 13.71239937771092 10.506247364241787 13.474521146059041
Ga 14.716361309589201 8.536201765928269 11.724376626648578
Ga 16.685632920141177 10.51641519638155 12.934393961744748
Ga 7.488944792435822 14.41903389500333 11.942653034205929
Ga 14.401871952578631 15.655389221297744 13.322963324660986
Ga 12.814682463839526 13.03021613835038 13.056172268368647
Ga 11.623941035818298 16.01145825870581 13.540886141505178
Ga 10.139503745486762 13.281333392483587 12.988832115065884
Ga 15.451050826287075 8.689280098817047 14.754641943132768
Ga 8.229203535074648 10.801121886277823 13.355388944280273
Ga 9.142363823156645 8.331431056701872 13.136337568817163
Ga 15.788057571120017 13.088812259390133 13.442036306590463
Ga 8.992281500398574 15.494269045957195 14.480843349330636
Ga 10.806990053850976 7.307652180334656 14.818593101548544
Ga 11.029205486490643 10.444345281115536 13.646352824505609
Ga 15.3581258874635 11.303772520362548 15.65776947255351
Ga 13.16989548108925 16.4133810935912 15.725036918021958
Ga 11.335600591862406 14.161603187315087 15.547171036475639
Ga 10.23761125352866 9.636663131639965 16.249230935108283
Ga 14.09811798181467 13.785903909627653 15.50067195824673
Ga 7.525721320507838 13.113882512442704 14.343698298320637
Ga 9.674540616746338 12.138197983044838 15.672912357653079
Ga 12.888112953526715 8.828358143244053 15.535821879835318
Ga 12.485788534678282 11.553369873867112 16.032484520664024
