46
Energy = -120.58646838 eV
Ga 4.99688624067339 13.07028809981025 6.0113155591196845
Ga 5.548185472625607 6.4277366239966 11.390900993018986
Ga 9.529650864785046 3.088317316260963 8.625490579230846
Ga 9.347912024223488 7.625058697474743 3.897086461619779
Ga 6.820351545203927 11.544187376871637 10.908124490361262
Ga 8.053124581451879 5.704936332346366 12.790118951026454
Ga 10.695573018747622 7.148774185845754 6.367819243271289
Ga 3.9096607378891144 8.037780341324854 4.999285126224604
Ga 11.679048523960208 5.430811234857878 12.809822902544582
Ga 5.133155258692188 11.267905573238238 8.539799079225627
Ga 7.885416969685055 10.29088556395917 8.56229094524703
Ga 12.509467121099352 4.019173561910436 10.50237785079629
Ga 7.816390840197608 13.041920032619423 4.662917123372654
Ga 9.461729616048276 12.476777910500157 9.522833628511762
Ga 10.26142784649157 7.6948446485684 12.188494939552355
Ga 5.747734673520855 11.264063965152628 3.5952293371350375
Ga 7.233715428412855 8.759431057194927 12.737387384955237
Ga 9.755405233254857 4.460279530911018 5.8000431511973005
Ga 8.693042595994077 8.918656201652503 6.478186159851721
Ga 11.564707038765462 5.239880628839063 8.174804742339404
Ga 6.533768169905837 8.620651008235887 4.256295161816771
Ga 4.733411529948455 4.447181209681096 9.247659114079305
Ga 5.392558731675603 6.083872838566138 3.836113382413645
Ga 8.604799464799498 10.41882154264177 4.054831374187606
Ga 6.468837745298335 6.502949523333297 8.658868709999197
Ga 8.919441110293329 5.817656806145766 8.217320423719414
Ga 10.193530474813452 7.946481629503493 9.03634224906075
Ga 5.9390456564069725 8.562780004588557 7.165034106025794
Ga 4.817179775629712 5.791938067296296 6.621495677260047
Ga 9.169529726524036 9.865484480280804 10.877723867627694
Ga 7.552628124083923 6.400981738036181 5.850912373770698
Ga 5.928208140432672 8.923435606849663 10.088127294447974
Ga 11.118346849597003 9.779373749448272 5.188686134895864
Ga 8.148586960023211 7.2382317797208025 10.491718529525997
Ga 6.997708475166627 3.987425086463571 7.260710646617776
Ga 3.984723285067695 10.30959759496481 6.327462643874384
Ga 12.796683985775072 8.11796263049004 7.926093777023486
Ga 12.331672419620189 6.822109889463697 10.369969452961431
Ga 6.721901916514344 10.904854237976041 6.1524951378239665
Ga 3.814285168443443 7.371789786124725 9.039364766778247
Ga 7.2400185454842125 13.10889578794933 7.970827168384546
Ga 9.878412634038161 5.001607041845883 10.731971350496664
Ga 7.340094794061072 4.289968298667871 10.348202801617688
Ga 9.36293147593166 11.800982635733703 6.545299049487113
Ga 12.041146357393702 9.592038440901634 10.619864262543574
Ga 10.947470105736292 10.400726956142828 8.1717891493454
