44
Energy = -115.40973881 eV
Ga 7.840375035069217 8.841564617402172 5.977834235750087
Ga 6.371435032251389 6.369325946590792 6.658152166177106
Ga 9.388715876045254 6.667175550988419 6.6030886409603395
Ga 10.700894984073472 8.895293554592644 5.513212357590902
Ga 5.70296925380856 9.004278244020567 7.6514952251099935
Ga 9.050686634127267 11.206136797299726 5.609565301430477
Ga 10.909417539625819 11.441477667431162 7.477131169071689
Ga 6.335508860879562 11.405683331461129 6.2602747493026145
Ga 12.847757427065156 9.361050722634404 6.994617389813953
Ga 7.967437524801252 7.869231148202246 8.645038328211655
Ga 10.236179980831356 6.226153897141789 9.365053827408877
Ga 11.496419259811345 13.82961468228098 8.786618804921034
Ga 9.111225645905204 13.539823257345759 7.201783221228162
Ga 5.642005153007775 6.674716647557192 9.464545238492246
Ga 13.315870712218118 11.481783634463557 8.724175628833883
Ga 7.981569751172265 4.939816637025467 8.668382111209441
Ga 6.556258582500565 13.514363720483502 8.439235446437046
Ga 10.306235144634933 8.928792175205883 8.273388735271354
Ga 5.269124318373375 11.145693965716283 9.12450460144359
Ga 11.136013245112157 11.667766890667384 10.545188945929
Ga 14.877249962408152 8.974944268588317 8.861796500685667
Ga 8.13521095234977 10.902822633413907 8.357123512928103
Ga 15.182823065226774 11.545933460224957 10.601658084512959
Ga 12.816298848675038 9.430697758243873 10.620078950033133
Ga 7.913307616753364 6.58729284143604 11.064115248204391
Ga 15.559406348317207 9.159827089687157 11.808501089560824
Ga 13.298556511094526 13.462898913268676 11.04300517504318
Ga 9.00972918548013 13.462106760731515 10.058881504527672
Ga 12.503838364511356 7.382979771233324 8.98939773173177
Ga 9.001081321089456 9.722450849231514 10.63412002516296
Ga 10.907128202418042 14.66809766079216 11.72855199909857
Ga 6.239239965222334 9.058813661287838 10.703246669097208
Ga 6.983337750372898 11.935309091124225 10.926160661273123
Ga 10.944261375847791 9.962070440890908 12.60635267668312
Ga 13.55573895197275 11.086498114386655 12.721148726101406
Ga 11.532937739545577 12.67401126691157 13.567510922063175
Ga 11.091309882313162 7.28892722562883 11.649984296247641
Ga 9.134638705452517 12.183930063600641 12.498168125589356
Ga 13.285839291957382 8.214501998685291 13.147525119933835
Ga 8.715602503517747 8.215749159622739 12.953300573269505
Ga 6.9661137454740985 10.339825703874483 13.148550116930343
Ga 9.345432872498506 10.68239448985208 14.814805796102036
Ga 12.216910577479975 10.421836791506857 15.18744654493976
Ga 10.868139331631044 7.8765699301889 14.575516858609866
