48
Energy = -125.89471091 eV
Ga 7.951501278071609 7.762247527476469 4.974603701214254
Ga 6.129202806935126 9.795680946132011 4.532107062397039
Ga 10.65208325253961 6.7909030430867015 5.0157919462836364
Ga 3.608118556292183 8.69557030436977 5.938743255105983
Ga 10.261305156159825 9.496516695289014 5.250928584349648
Ga 8.578518396472091 11.31819171787933 4.312572493435093
Ga 5.350162279275299 6.902438160853364 4.826036591998669
Ga 14.55414169805413 9.366071488000113 7.83725634035059
Ga 5.1551345464755185 11.083218903438265 6.667681832960842
Ga 6.222508746401373 8.414395263059735 7.245574326894571
Ga 12.237247806873764 11.217528486828032 7.639304890423473
Ga 12.048711901379447 8.452343572400979 7.016579621127989
Ga 9.08755122951802 4.398919302219371 7.350948998548904
Ga 4.343169687957751 6.582841045324037 8.018399894112674
Ga 11.565801023592346 5.669439638907892 7.369246766520346
Ga 7.423760879678146 12.962021486265659 7.712921087903487
Ga 9.877177923201298 12.229942752471862 6.66121719281262
Ga 9.06973425666763 7.493068620947505 7.429157543089219
Ga 7.916307032244577 10.282442617818884 6.7464963055935625
Ga 3.8429835642340957 9.480876491217165 8.49963155425479
Ga 9.906841820650618 10.008612835391034 8.703784531155796
Ga 6.73204929556993 5.74761212908388 6.956002086051048
Ga 4.856698544052683 12.811560819430488 8.858455482445285
Ga 12.526583733075851 9.36915918142365 9.755156688751699
Ga 14.043460693240101 11.690990400810271 9.773150775225433
Ga 10.792728084349095 7.30227092231577 9.464180793684362
Ga 8.335099703186032 5.636396938330047 9.682473468255298
Ga 6.824370164727812 10.488291874699927 9.156426076528788
Ga 11.493850819277847 4.68610532862973 10.049923750826279
Ga 8.362036682768334 8.288688980872971 10.323749583346666
Ga 5.663042462390603 7.822632445341556 10.004137436721031
Ga 7.005458647829464 12.70563061910083 10.930070299022782
Ga 13.589949601854105 6.84977377193606 8.871651302537051
Ga 14.973758679584238 8.693608048212099 10.77138154572268
Ga 11.497573693016223 11.66320559028078 10.968649717426574
Ga 8.879271929064066 10.783861136888609 11.169747079421867
Ga 4.501431621209073 10.834315530395239 10.734894587972663
Ga 10.780801809044773 8.916551391659429 11.618928943630488
Ga 12.80605733910989 6.957909946971633 11.618368984846423
Ga 9.521346504668868 12.898158592129823 9.541720710235309
Ga 7.024117956274399 6.539529087704209 12.153927386578854
Ga 9.939493840056402 6.176440123311265 12.044688784034667
Ga 13.21436558201564 10.020396182262477 12.627988283598581
Ga 6.331593776272708 9.587829920873828 12.191325458970566
Ga 8.606410099002757 8.520836447281573 13.310853444794246
Ga 10.476905584327056 10.799804420417242 13.600373711154239
Ga 7.736696409161666 11.594681715619771 13.53065764573514
Ga 11.294039164876281 7.801643817319465 14.133287714627835
