49
Energy = -129.37105896 eV
Ga 15.097898652430066 10.011866718962043 11.323487524018004
Ga 14.31055499138129 10.605435002006212 8.519135491495042
Ga 14.677900406143136 12.69359558735762 10.168710021010398
Ga 13.988139832433976 7.31702052139138 12.052196396752409
Ga 12.224910305713331 11.242048535732268 6.714644260247507
Ga 13.615128267891535 8.100657846044545 9.478634159215664
Ga 13.247801561840069 13.622049046309387 7.976499243458741
Ga 13.511515685042522 12.142385945173814 12.637338398624534
Ga 13.535222374603768 9.553673680133922 13.79669686621391
Ga 11.793644010911887 5.9626329726311456 10.55189778418186
Ga 12.261004472950702 9.719487332815104 11.318767502416993
Ga 13.531594988393344 8.72729937254928 6.653490406808864
Ga 12.446838264438876 14.217791813494166 10.738919250745367
Ga 11.38785711845577 7.477989523075739 12.868269564881999
Ga 11.99420843630578 11.633251875505126 9.556666392366663
Ga 11.690711049770492 7.144537581726104 7.984877954484064
Ga 11.18372440103227 13.73160655034618 5.745610837596374
Ga 11.217643903873839 4.397432192041356 8.177180004902977
Ga 11.863103633263414 14.259411188284055 13.452647322714615
Ga 11.47869643623595 11.634364896983115 14.594496087100511
Ga 11.061460970732389 8.880778162514607 15.137646810371987
Ga 10.754894048121095 12.105014938857428 11.96695586856083
Ga 9.700133877447849 9.750180022577196 12.35383631544906
Ga 10.697236061475836 14.524671588952573 8.606656360010597
Ga 8.774023151411942 7.724397914574525 14.116205346540998
Ga 9.338625229999979 12.466487067596093 9.873980767441914
Ga 9.991810599418887 10.461222997849031 8.200561129286655
Ga 10.32891667221147 8.446484440816457 9.956175547772165
Ga 9.112500331469771 6.495604664037916 11.722026951182771
Ga 8.869194005066065 13.065743223887601 7.260984827893755
Ga 10.651905228100578 8.805898654594786 6.172857280446793
Ga 8.776016218524253 10.542740521340557 14.786523511181292
Ga 9.538265944388021 11.142408155690566 5.461956960316561
Ga 9.608680898501289 6.080929822910893 6.356762960939924
Ga 9.743468156947282 14.912079307141978 11.441895171853654
Ga 6.565038309818044 11.76593863890805 13.64417279367473
Ga 8.106509040052327 10.17081178596328 10.136174114582543
Ga 9.179444167036896 6.031305029109217 9.159204157522911
Ga 9.148230004217528 13.27335627877402 13.828860702589497
Ga 7.317679227433156 10.540749581906677 6.921178977612933
Ga 6.945726983544791 9.226122761101134 12.49466971711973
Ga 7.900064201503291 14.980951043985035 9.257220079634953
Ga 6.525604019427788 6.476899644606456 12.84181863143716
Ga 5.640288674931717 11.204290114592562 11.005683403878177
Ga 6.596565203637174 12.470527813679851 8.782270574621258
Ga 7.401527491768548 13.30755915572991 11.546889108545127
Ga 8.155717123347902 8.130340978496355 7.6970530497619984
Ga 6.9241107480452 7.4464151625794495 10.20282000201561
Ga 5.675817335447239 9.463105061803342 8.844346125658198
