46
Energy = -120.7442328 eV
Ga 6.3713341386454525 11.231133899592493 7.957668518830498
Ga 8.01293928432587 5.219454063257102 9.963939119981948
Ga 9.840018406435425 7.555774052288015 10.414472675096768
Ga 12.336164655751606 6.801322911155144 8.796840286883524
Ga 5.271030775704037 5.701062355620827 9.722987265524694
Ga 9.554427517591732 5.699599402506289 5.336866358643014
Ga 10.656157865558768 9.562225044822373 8.715229353140398
Ga 12.879055523904078 11.563642637639973 9.989936446493589
Ga 13.203113878367699 9.36817942152741 7.568117422681492
Ga 12.686870735784549 8.848012845156187 10.367557843670497
Ga 11.895830038802318 6.613730493423871 12.03898247213616
Ga 7.215831695931494 6.457562331678311 3.9837632109993373
Ga 11.379022915455488 7.688439837584356 6.195861354033611
Ga 11.699771993975094 11.960785315194459 7.4960955065676105
Ga 3.7316491187838916 9.270336942362755 7.679512189595881
Ga 6.094839067392083 8.14929270548114 6.073533200819634
Ga 3.5512403696158836 8.18060065339098 5.016661684215485
Ga 3.9783186032676014 6.527763224120928 7.57251972002904
Ga 5.200754586367878 5.398477494796225 5.494316950271302
Ga 10.900781963362132 9.553673804153977 12.272542046133745
Ga 6.023957847119766 9.948562653246368 11.501301169847224
Ga 8.961444508573186 11.961810575990382 8.109602601337835
Ga 8.35031231102369 11.183028879737806 12.514573963560817
Ga 3.805330972863595 7.997989121582652 10.335859251626799
Ga 5.926230274297679 3.7466991372932466 7.961876704567283
Ga 9.645809806332851 6.509325828817825 8.067675103550828
Ga 11.647657089868085 4.879797873246814 6.962663173871591
Ga 6.72194805871263 7.255424873682525 11.319510278848131
Ga 10.523416618517683 10.185137737025746 5.8273113160795225
Ga 7.200059924857569 12.603903694026883 10.250935921784915
Ga 7.512290668387619 3.7816503143851317 5.261030846287806
Ga 9.748213650083649 12.79951508943973 5.663650228617815
Ga 9.120178098381476 5.910946775682168 12.483391001265096
Ga 8.286005648755467 9.813705558412229 9.971060221053062
Ga 7.732827910525123 10.854506034893939 5.447909085056039
Ga 7.219504090326835 6.0779257731806 7.290005208173358
Ga 4.929247653101983 10.704814524353857 5.676322635015733
Ga 4.289804633483345 10.994394097010233 9.717208153687254
Ga 8.393841356245234 8.831902271298869 7.296219140625279
Ga 8.4725449054915 8.475022512312625 12.948110481167111
Ga 6.125416858823227 8.499005161511155 8.874306238113927
Ga 9.044473993716608 3.7350444906323834 7.75464691225988
Ga 6.293045789460348 9.258845881457077 3.580927725008812
Ga 8.958769282618231 8.484049805237989 4.395550049375692
Ga 10.191095958687633 11.889908495472572 10.54363851268397
Ga 10.850145597641353 4.698740047236201 10.020037093703419
