43
Energy = -111.86606892 eV
Ga 12.858455725239708 11.820929709481936 6.994600111054406
Ga 11.118020919014883 9.775595479683306 7.740371040945937
Ga 11.260272504132976 12.174163034658909 9.259805926488704
Ga 13.741230786320628 10.200899714113767 9.017121610512554
Ga 15.38240479701416 17.61970105448166 9.235893391085217
Ga 8.864651454600251 10.802544757959051 9.472907394158133
Ga 15.69751273195735 12.361548279875151 8.153492545686646
Ga 15.551429541690837 14.955227738565771 9.031294519239326
Ga 13.135045978827703 14.181996947073614 8.128538564601865
Ga 12.954288377896754 16.519320237789586 9.570523574835006
Ga 16.25079246720822 10.552604439933157 10.285980633536042
Ga 9.412803839754304 10.144643252001346 12.058369103018993
Ga 11.40900628729138 9.436465907262857 10.457332852456577
Ga 15.035451841533364 16.313410823260096 11.564357060226047
Ga 13.921012566026949 12.635606042305648 10.271431358424815
Ga 13.8155665881785 9.9126609910678 11.696667025763999
Ga 9.226673403166897 13.087574804538272 11.157572079918735
Ga 12.425942413271077 16.40032582486734 12.60011525576891
Ga 16.462903249025587 13.458544718015403 11.034404865265337
Ga 11.672782661382138 14.513703992944345 10.727093044122002
Ga 11.784354142233475 11.906004380758182 11.941381852281427
Ga 16.457431341944922 14.95995458224848 13.226145815077034
Ga 7.674707306281405 11.853208102248017 13.294129821996803
Ga 13.89168730181487 13.984819541146104 12.616906767300335
Ga 15.774842484780145 11.661025392934636 12.952365145913857
Ga 9.962579465407469 15.113638811019236 12.837572543450735
Ga 9.126472239769466 9.917173412679572 14.680806948369053
Ga 10.005029079228201 14.933986954361425 15.64709506273808
Ga 13.221865926681742 11.930148051512395 14.26924815851849
Ga 10.40544737983236 12.55913415753232 14.103210853108923
Ga 14.429989928380888 9.005924594588773 14.07932415583583
Ga 15.54839612306048 13.589769585735844 15.215742728025608
Ga 7.638471943154376 14.463888349103069 14.18036113976452
Ga 15.944573561331785 10.85121222504143 15.461750611309867
Ga 12.44621455781018 14.771017563026474 14.77281381493558
Ga 13.44694154978909 10.184756479542902 16.39896881942035
Ga 11.716080262982004 9.509871439541831 13.779301991742056
Ga 15.506345376894991 12.048434738482156 17.873500476087447
Ga 8.481682644427083 12.351932460238972 16.05661829245147
Ga 13.356847679668432 13.306295058869335 16.72296350290583
Ga 10.860517924143172 10.791333763780305 16.418862043955993
Ga 10.732280749958834 13.196107906272198 17.559154869489582
Ga 12.59301266791052 11.444914470476796 18.655922399231343
