44
Energy = -115.24235279 eV
Ga 9.72508630753442 7.372749814594978 3.311255068006778
Ga 7.1083561328268825 11.490123253807768 4.196751938827683
Ga 10.217951800164789 5.346379507649921 5.135191339448151
Ga 7.468115144950621 5.674185182722391 3.4055097743524776
Ga 6.866490740561342 8.533314038816181 3.4387647898605764
Ga 11.038767227320507 7.925984145591754 5.632945606599671
Ga 9.25046069466474 9.757494002655445 4.680881540428852
Ga 4.4785687431751 9.87480056698159 4.6631498207400695
Ga 8.909644176357512 11.35470804133434 7.389362306530402
Ga 12.369464934525807 6.0005075121437415 7.025014123348563
Ga 8.0144941976078 7.154297543724006 5.672128803995941
Ga 5.234018296371248 7.393134683288459 5.516103071444684
Ga 6.270408954247291 12.439000624713026 6.793681683973031
Ga 11.263614462358053 10.497874666408899 6.413408850612703
Ga 5.261699177501268 4.333994187862086 9.426909264596858
Ga 5.874560436715156 5.3044385708407455 7.018973192230289
Ga 7.908385688284441 4.174603521234708 5.76469407678244
Ga 6.796758534197102 9.630251049317623 6.213941087763964
Ga 13.135552388468954 8.767903284284998 7.396710681036921
Ga 4.0949926635434934 10.198556401381461 7.424102339277048
Ga 10.712900234015875 3.6259628607012933 7.433670818696867
Ga 9.456163965675323 6.06427607100808 7.772271363790026
Ga 5.126012523932373 7.684881838456652 8.425007851928777
Ga 10.637722802190664 8.50434127245926 8.410375511012372
Ga 8.134716639799414 8.373022920538677 8.083322874724686
Ga 7.8682906721009775 3.565071596583747 8.446486133836197
Ga 6.573075103639045 10.36168081291926 8.797362189068021
Ga 11.487235864237647 11.134166699018335 9.128266299682915
Ga 4.692007120349754 12.249213117011745 9.360422962101344
Ga 7.3427656510733 6.129877976227917 9.43564431015822
Ga 11.86097045305325 6.299589600385751 9.738708105746989
Ga 7.784057786287869 12.809975660437374 9.475169380144463
Ga 7.306377515677166 3.871443244489622 11.440170587860946
Ga 9.664129650444774 4.950892875147601 10.3711760300473
Ga 4.305919996408896 9.566813449666679 10.41534658875623
Ga 5.079492924894483 6.427299211735135 11.161513017561346
Ga 9.12711948655745 10.579834952934341 10.408638396055707
Ga 7.112843374250761 8.51313174360849 10.591353179292625
Ga 9.899889687561865 7.9632182545668035 11.092349348357258
Ga 12.696496044265288 8.80381388872541 10.272055362748244
Ga 6.5503279592549015 11.167018196040612 11.551308836374021
Ga 7.853665179972891 6.49801850330825 12.285572518982004
Ga 5.546112006586904 8.62763391526228 12.830221317190771
Ga 8.350214152554749 9.4604182355751 13.010005152187077
