46
Energy = -120.56852066 eV
Ga 9.753977947338464 10.141495417479446 4.226456803294625
Ga 8.180034494850464 7.848465541836246 4.964065817926396
Ga 7.26801141775838 10.922167292367925 5.429484299153159
Ga 11.368685376081258 7.57986873291923 5.889899175885486
Ga 6.506163861643872 6.393922093052178 6.931278324358899
Ga 9.293477571651888 5.308798725934982 5.5141906270924705
Ga 9.793331932964765 12.202578042735727 5.9454591398540915
Ga 12.076467593700404 10.618069308316338 6.645076363566369
Ga 9.219008563665737 9.454930496934855 6.975550069982907
Ga 7.048502224168057 13.17353481735316 6.964054757087502
Ga 5.781950223244516 9.030651643434894 6.666120316182837
Ga 13.869199189700911 8.81160665746939 7.993962240218806
Ga 7.867057494954497 4.030650646835777 7.638494595495409
Ga 12.549797387595861 6.5108542333592245 8.989289694399282
Ga 9.23176892129732 6.821414671439719 7.774916439976637
Ga 4.965527030544713 11.455923982506608 7.575509388581925
Ga 7.555470002994492 10.92681073869884 8.410198184735334
Ga 4.6689609746500125 7.605006342682526 8.857307936579463
Ga 12.072347368499823 13.047990305463356 8.229423943641372
Ga 11.232387565144576 8.89579841493742 8.60432445542307
Ga 11.098582251905357 4.72132020308036 7.4930371155829265
Ga 10.03736424870344 11.402112929746226 8.836329181302629
Ga 9.576786463622573 14.04016508312443 7.788458172293212
Ga 7.387302254066212 8.346513478024015 8.982950395953239
Ga 13.097935410919327 10.924444585183316 9.74761943193162
Ga 12.316649048478736 3.7783453105286355 9.84027220899475
Ga 6.846908802138373 5.737401074081631 9.654459491693022
Ga 8.085674691054095 11.4972382538156 11.21485012754003
Ga 7.227459738539888 15.285223255223018 8.818688160825818
Ga 6.0891133731797495 12.874629278899775 9.976757676456002
Ga 11.263559273610799 12.588363609632855 11.210362442794672
Ga 9.475602673576876 4.603068115739589 9.901515423441104
Ga 5.546541718796845 10.052060456103098 10.183532469121218
Ga 10.418642207003057 9.942686248940136 10.979220586590488
Ga 9.843596530037553 7.386647684732736 10.270559262380512
Ga 12.80795646275046 8.392624928924882 11.00699695127513
Ga 8.048472984070262 8.808994169157103 11.522509685004238
Ga 12.37551394835812 10.415461916875334 12.788555252571884
Ga 11.520544750322184 5.723016093343943 11.688585680529904
Ga 9.028725680425119 13.981459033972312 10.511433227717326
Ga 9.42821477159605 10.529162549400121 13.61856033634549
Ga 5.7082241609313265 7.241942709478436 11.623121211976528
Ga 5.927541499708543 9.6554234952871 13.062507880364574
Ga 8.381574689460516 5.8883924886096075 12.080923490466642
Ga 10.511332699856052 7.878399942800603 13.060421911209161
Ga 7.810860931888976 7.687173406988063 14.07551805965279
