40
Energy = -104.70289201 eV
Ga 6.589604239613517 8.73709502245723 11.684290333390207
Ga 8.404473062477663 6.698569841813909 12.111457661055615
Ga 6.4061009130655755 6.752795377326484 9.729423047108805
Ga 7.494078583594407 8.677852680711004 6.838856766843871
Ga 7.886403086507163 9.523041206366905 13.959316836911412
Ga 7.582061614902669 11.29881943397369 11.700641256183461
Ga 7.0189161738126815 10.008212482767886 9.323598230044142
Ga 7.685201152024838 11.622872836655295 6.95330081640085
Ga 11.104589867274768 6.885290747951758 11.389475676047507
Ga 6.628605772665352 13.22293982594546 9.587756525439833
Ga 9.124186930696146 5.030039333452445 10.144613761177222
Ga 8.941836643505818 7.939850601335712 9.646470098477057
Ga 8.244474894590644 6.022010683250339 7.646334649890558
Ga 9.670118737355423 10.0724827865411 5.3187300967322635
Ga 8.917230828135276 11.915512559838332 14.140058276622186
Ga 8.763030337976431 14.18020403091599 7.739111754852793
Ga 8.507167567072395 13.797143596921396 11.771511091772089
Ga 9.835841032201936 9.530624518148718 11.72964549114835
Ga 10.040038699074788 7.767947078467986 13.955077314169852
Ga 9.66538413610676 10.009171724602478 8.157240766589142
Ga 10.703375042683325 12.221901362007433 6.977811785439773
Ga 10.280224200929487 7.6509358334761375 6.8100289061598085
Ga 11.618941096885429 8.831711852906125 9.427333875940931
Ga 9.214680093884487 12.1547358041861 9.541001883347816
Ga 11.137329942784875 5.866134872441077 8.665785378657448
Ga 12.70449857457476 8.077344085379393 13.294515212811394
Ga 9.533650160429078 15.473416658322883 10.033126109661344
Ga 11.279768092427705 10.401912794842262 13.90966681324571
Ga 10.509366225956652 13.953048451614592 13.605907394709662
Ga 10.902003858317348 12.072696038463102 11.446084919086784
Ga 12.176733426213215 9.683281007954152 6.81184243283052
Ga 12.865842972177141 11.42438737586568 8.842109462460805
Ga 13.279021659225256 7.166207310380258 7.7210705395760515
Ga 11.977938683548926 14.860544938231394 11.59790387109044
Ga 11.517049259780329 13.766329069472791 9.03641859387706
Ga 13.67756277787239 7.662371832942733 10.717984840793767
Ga 12.945016903299999 12.457653816309339 13.371852182742066
Ga 12.893487912258099 10.233620724272544 11.450088557905396
Ga 13.83161267004505 13.082144688222186 10.68759918126423
Ga 14.685733654669122 9.36928528243906 8.535870110340259
