41
Energy = -107.2060698 eV
Ga 15.23615849650225 8.658561112061005 11.663003527163873
Ga 12.963143904956581 9.606434095914041 12.979422410218154
Ga 15.41006085658201 11.267148132643186 12.49136662802959
Ga 13.786002451337298 11.922111064276748 14.572606940702135
Ga 11.379889672452178 10.642727393010924 14.968150563998377
Ga 14.090459014077402 6.690263759985364 9.959438198246474
Ga 11.96920236668872 8.253859993835048 10.778906505227315
Ga 10.610103985593897 8.43481628914623 13.104413080612153
Ga 15.939067382652956 11.649616393206701 9.828542345841164
Ga 15.398622807741592 9.154903453579289 9.046250446351578
Ga 11.662789412757746 6.1320301928899426 8.9206331597157
Ga 11.55723081819481 13.530128327661037 14.478920639775447
Ga 8.925579790365731 9.565558345561545 14.934429452914788
Ga 13.26279785819777 10.639439077024358 10.393534111498232
Ga 9.794994053437021 6.462362103627377 11.003555136034585
Ga 10.353696681453352 11.104276233969184 12.368082764056616
Ga 12.661673750394959 12.499524360270595 12.149374995566294
Ga 7.985127411442434 7.448331481465226 13.144489801859349
Ga 13.021555049227523 8.519521178463423 8.058985399742378
Ga 9.036395805216648 12.392624935802784 14.4537962541479
Ga 7.64062294792261 10.425666972062606 12.716804441935553
Ga 13.995291267107365 11.363417593598827 7.871288601660383
Ga 11.057986223633456 10.363649431044564 8.982502485304568
Ga 9.227422490470657 9.192891867485509 10.647845392047625
Ga 7.74776482537976 6.986644637395636 9.339622542446952
Ga 10.287422829658698 13.968864061791 12.118856009694213
Ga 6.395686310758133 8.51289607123283 11.096829484804235
Ga 9.858049116420842 8.004133736893708 7.850437066475749
Ga 7.660229570802253 13.093466084483541 12.274350872467718
Ga 11.555542705238413 9.735546876563753 6.199316014710677
Ga 11.607178361330298 13.063131266206064 9.74464781173561
Ga 8.938503102719606 11.869791961013028 10.000944348532629
Ga 5.991596605525913 11.127771365806357 10.506267463957107
Ga 11.713040164854881 12.356564336823347 7.062113737227167
Ga 9.155230742338484 10.670466612136865 6.958065341014906
Ga 7.17700332168681 9.543433749959744 8.519559401329047
Ga 9.08329171493114 14.746675287797604 9.97125999827124
Ga 6.334527069466536 13.776001471957526 10.082715429685143
Ga 9.43754013666425 13.519314307563752 7.412010322384504
Ga 7.029959726951383 12.15607657313529 7.894136347424025
Ga 7.297772823850176 15.034186527992984 7.838592255065306
