42
Energy = -106.50758192 eV
Ga 19.090279254890568 20.954346314141393 20.664079235751863
Ga 17.558783044760247 13.385384366995105 16.152392996683943
Ga 15.847693522003356 18.659248605508953 15.418056871212778
Ga 17.21716584392938 19.359654348026453 19.80175421522735
Ga 14.433782509675684 15.012475026926568 12.46835984720355
Ga 20.60018716105618 19.168354652750917 15.83542262904975
Ga 19.00956066074738 12.467723764146037 13.924943371754216
Ga 18.982786000059544 18.497497465905578 22.036666359297133
Ga 16.857576705676475 16.954760276222377 21.63687886539388
Ga 15.364723617981086 19.002575285410487 17.922589739128753
Ga 16.50038136165548 16.453184807878255 13.480046776590044
Ga 8.511191077367407 17.78964414636664 16.65593984398331
Ga 17.02371766200246 16.257831795378223 16.289197117980137
Ga 6.260397963727539 17.596582813421623 15.195230283469154
Ga 21.18974892271999 14.443830175292373 18.00287693479953
Ga 22.632051670443108 19.501935030585912 17.9703421916038
Ga 12.986344443178632 15.622887028331705 14.713979756170676
Ga 12.982104532933922 17.832000612610344 18.782446003546823
Ga 21.099199563000642 18.54922700882466 20.29736731893423
Ga 18.409533708338948 14.836678554038796 18.268568936274328
Ga 10.643849294670847 16.14251620994535 15.528797288394129
Ga 14.097858161539294 17.864455889647445 13.456742347710907
Ga 14.821305744832259 18.23566169732619 20.581715122292593
Ga 18.018242636591907 18.646909276038713 17.095588048069416
Ga 18.987006597435197 17.213077709233144 19.479070741347655
Ga 21.700388261132787 21.21736350514655 19.954648797999603
Ga 8.25039098655217 15.891787617769834 14.844718167920103
Ga 10.772511844929682 17.934428113197736 17.5346493436128
Ga 12.822366647644929 18.275518449694193 15.84672161365232
Ga 19.469969520488334 12.222726999366552 17.71124699064675
Ga 16.6981875340066 13.655730333741472 13.158802706065886
Ga 16.31586074519221 19.192078244710938 12.718834682632977
Ga 21.581685616357795 17.0703533009338 18.146127725602692
Ga 14.475719490572432 16.309206127009933 17.132536989611268
Ga 18.53189870847294 18.224868084801994 14.269509372860748
Ga 20.496624980321513 13.96108484674989 15.501857094252768
Ga 19.752093368781306 20.150946395764752 18.22257659276778
Ga 15.23947758080618 14.422557168500079 15.339862520550973
Ga 18.720166757726243 15.285985475657375 14.074685167936378
Ga 16.324338338640093 16.291719029148847 19.09042876271883
Ga 19.787669026128345 16.47055021859712 16.255030943131825
Ga 20.9892384791448 -4.228799062634741 22.649039843179068
