46
Energy = -118.53438898 eV
Ga 21.865691742091492 15.750481318890401 14.69821350920171
Ga 17.906812924886683 15.315075507497799 20.92517199979217
Ga 21.1855187420756 -6.503754403752539 14.727827190997168
Ga 14.614285812753275 -3.610265192470344 13.812647228274301
Ga 19.57055499297732 20.17359190610559 21.415498878144064
Ga 17.273322182138998 13.198166758336457 16.846588033129247
Ga 19.499792358901296 20.859631771767134 14.808161402798754
Ga 18.527978395623972 19.658889702829548 19.112134601515873
Ga 14.524115296584638 18.628471805885912 14.251224997896895
Ga 16.91169532766202 19.873033657178084 13.987424756057084
Ga 16.695501448497396 17.068663489329484 13.29110637501115
Ga 20.119013288313774 12.538251487509843 17.86665770751107
Ga 20.56457631335512 -5.189124202855317 17.060309325506033
Ga 19.28820616030725 16.13815477863009 13.760725675575303
Ga 14.001088816813935 16.140626607125466 17.731990068440904
Ga 16.832126814687076 -2.4400988566341146 15.167579365125652
Ga 18.441961506955803 18.131461137695904 15.573922419440485
Ga 15.946369587144167 18.021187391169903 16.634229882121854
Ga 13.273737738648965 18.781576359312286 17.145632186171103
Ga 20.240345239366842 17.13195972354072 20.617123115714257
Ga 17.96293560312477 19.368360347287943 -1.3131090743311555
Ga 17.553037093204996 18.277676797579346 21.06159970830331
Ga 17.99645174685662 13.303377980658857 19.37688523388911
Ga 21.366337016067263 19.657977600570852 19.55795579747253
Ga 12.49498720171247 14.666715967768138 15.879878017566423
Ga 17.09085812493984 15.698859255271927 15.834964375577215
Ga 14.973838606843875 20.632590087270916 16.464277707856194
Ga 14.830255147365934 13.714924320442213 16.323582321425835
Ga 20.08647028412836 15.135626543269874 19.00691264381383
Ga 12.180102142140687 17.371678862549278 14.556150945238194
Ga 12.366651432453692 -4.752705610419459 14.95800144712778
Ga 19.44217248383977 14.471869494020458 15.875512176104165
Ga 14.63625005643262 16.035512161362853 14.7518480501208
Ga 11.479246438408882 16.870344527828923 17.46315524677655
Ga 16.257746909171274 15.27045809949474 18.54054962914511
Ga 18.117992492855056 17.104531668118817 18.445003821079634
Ga 22.896647119989964 17.87243056536443 21.39873201943302
Ga 20.457845166956346 20.558038211699525 -0.9442452368788606
Ga 19.126435367732917 18.742913780689282 12.690664714748342
Ga 21.909071883385355 14.637146142420265 17.12651802214246
Ga 17.566168310149248 20.48512693672486 16.907939999723386
Ga 20.424257454827437 16.973637548741948 17.005690944935303
Ga 20.629624528282136 18.04095561591891 -1.9801796920111856
Ga 10.099033889275331 15.795417853388866 15.236462294291075
Ga -2.7427887759761833 -4.484067295797639 21.979337313171136
Ga 18.313579329966686 16.663590176014985 23.117730535242828
