45
Energy = -163.52936006 eV
Ga 14.688921921688395 14.500378369077191 12.036979720899394
Ga 15.407249590379324 10.572539667082404 14.993477321483613
Ga 16.316702569790777 12.448293000497086 10.487461052762013
Ga 13.31660870844831 12.058268406586285 13.434566467568372
Ga 11.990757392861266 15.538075187968492 10.885384735304802
Ga 13.767579351608369 11.953823764195224 8.913301831265981
Ga 15.12841228476708 9.979083337126891 12.009133309023015
Ga 14.322668844085378 10.118000227146778 6.5624501588541815
Ga 9.452784571157554 15.569819125245168 14.158621799061853
Ga 13.31260510978892 6.395861745668968 12.27915703934205
Ga 12.798614809608939 8.630406207532115 15.387243884636932
Ga 10.80186669665464 14.823764325725177 8.15837446719664
Ga 11.60749603274202 8.952417612925826 12.536809349911564
Ga 14.225453614175974 8.010062913713604 8.802070547440069
Ga 10.253968786264979 13.380193801185074 12.148450395725375
Ga 10.57986232843983 12.230685816202328 15.775143997683623
Ga 7.56806774902971 14.747713160089628 11.87811672038849
Ga 13.273727240701493 13.940975132169596 6.642519242190835
Ga 11.612297723875287 11.428113131239948 5.825927325553441
Ga 8.063346762858162 13.792475002479467 16.201104161273868
Ga 11.98390840272183 5.607030246683215 14.936150474827564
Ga 11.424598341029588 6.532440129084696 6.3025312312039
Ga 10.128028849632942 11.8119687132877 8.526330443124614
Ga 11.171847057983792 8.06957871990998 8.950166920374699
Ga 11.481469220869197 5.2300894244600284 10.108726258154947
Ga 13.633282232624374 5.10230462043756 7.929229983350679
Ga 8.510353990531081 10.748595515485478 13.832810075818752
Ga 10.552291950709057 9.56622350127913 17.293158772726155
Ga 9.906931109404676 8.891288559671668 4.321106686705578
Ga 6.168591247043672 12.758902093016944 13.768930905026652
Ga 8.259659795124529 9.64435506110231 10.839171616045245
Ga 9.56736661013966 6.874818854691269 13.609407069153791
Ga 7.34169078742327 12.81439934796813 7.775120496243432
Ga 7.858014818640512 10.86043660811572 3.096972118254572
Ga 7.964762553530523 8.855385008988874 6.9178916383420095
Ga 7.064117035576753 13.260212629725906 4.734624233125671
Ga 7.962510882739225 6.378187031827778 8.903581723532556
Ga 8.862628461802338 4.8410545173556185 6.386719466151983
Ga 5.731611556936083 11.244614921911964 10.888942992307644
Ga 8.13128848007907 8.41816165140058 15.819850618476204
Ga 5.283259549559951 10.50042221054744 7.503744476992582
Ga 5.606630660711325 8.251096992830071 11.538498899307964
Ga 7.5305218174819775 6.977497308501208 4.581379058935558
Ga 5.149049631507309 10.91400908247447 4.386285564966484
Ga 5.1392291216629165 7.445395256113957 8.641352798981389
