46
Energy = -109.83774092 eV
Ga 16.24760324286374 16.931485972578084 16.11978268581476
Ga 16.050475679265055 17.295569486899687 13.082841390612467
Ga 19.337130840378975 15.917066780634743 15.103683125130502
Ga 14.468842589101815 19.390271960070592 13.361718982535894
Ga 19.68788714415789 20.031681154167742 21.123417980091713
Ga 17.62682219685032 19.46779665256829 12.327520447090865
Ga 20.80331013324271 16.480122926113314 17.265047695033232
Ga 23.282107434220865 15.61660954208373 16.87205476484925
Ga 13.812021041689976 18.062022241789716 15.69822521185358
Ga -0.19988027875741088 12.317744753452082 20.219507951976365
Ga 18.166040484235037 15.813745939570223 12.723689447947509
Ga 10.047162387882077 19.47509556497776 21.552764965068206
Ga 19.1381132665925 15.440747853226911 19.50725689379132
Ga 16.732886361336554 19.367265223145633 14.951009928422726
Ga 18.979967333158445 17.291760495475437 21.28380770900145
Ga 22.980024409759082 14.095588855183552 21.17202432879251
Ga 17.834518470132775 19.387026358006967 19.347922430094936
Ga 16.127042285569637 21.366418030950747 19.083106137325665
Ga -0.7835363294307637 14.205929334582855 18.707022764533953
Ga 16.73646418090126 14.608430845645616 14.727011842550857
Ga 15.203645460682669 21.36833438572602 15.871541887881493
Ga 17.90325561441076 21.052186502126773 16.758107818623206
Ga 15.62569118815657 19.067018534212142 17.597276021962102
Ga 14.267186673843083 15.785401356619248 14.40173125069155
Ga 17.96119982848839 15.372428866823304 17.300313172187565
Ga 12.750173667420343 19.32388226547949 21.89919178588199
Ga 14.150009049637209 20.088490308000143 19.99356317306832
Ga 11.514037840798046 19.791430842433098 19.530201369399638
Ga 14.108045416911727 7.562736564392469 21.942855050671298
Ga 21.577165682734275 14.563519043527144 18.949225830488434
Ga 12.64633476492941 20.72710464886986 15.04695116196087
Ga 21.10808253853917 15.742420551368193 21.473573402519136
Ga 16.735665995461662 23.38458130559012 17.376934170686354
Ga 11.05963641762902 18.19466131032047 23.609843274223902
Ga 21.332697103506845 18.2561954897889 -2.5985226594290363
Ga -0.5710943484999503 12.62302701128311 22.868683297955233
Ga 18.819104031219926 17.545895522480137 10.723643108594514
Ga 16.182267546363942 21.56669145367817 13.14301428463164
Ga 13.503311233045496 21.96675247197668 12.848416430320004
Ga 20.667589876624653 17.06533912975785 12.752839908632135
Ga 18.54763311140648 18.25572859986485 16.941936778223674
Ga 15.565492548067526 9.668758673681717 22.98814631796993
Ga 20.367524132099504 18.2002464744858 19.089909363483972
Ga 22.02125247322927 16.06033072106391 14.717983116438623
Ga 12.94457261514878 19.87436570550788 17.449513286267326
Ga 19.171530425177203 18.599212443707444 14.315223186035293
