43
Energy = -112.06696607 eV
Ga 12.520311317794617 11.791635861783488 15.656179798580379
Ga 9.858289303123248 12.971095339068627 16.369299980906654
Ga 10.969903591816452 13.50736504894028 13.966203848912325
Ga 8.809703363208428 14.473337904047794 12.654854923722745
Ga 10.133456314959048 10.692301620777254 14.794076991002152
Ga 7.919145431115719 12.480096016971084 14.368442765035335
Ga 12.38039704861581 9.561523551028426 13.877434020658354
Ga 11.162671292867264 13.284113874928488 11.374842668859745
Ga 13.189662176515737 12.246914491383333 12.974868464227686
Ga 5.494680289184748 11.05318450313236 13.590093522110095
Ga 6.735114899534338 12.667622889355712 11.753908631096538
Ga 14.338892089189137 8.844469273165783 12.391553766579436
Ga 8.884366558922293 13.778533904858875 9.971847949105141
Ga 7.664410009837775 9.612735259624555 14.14798183257684
Ga 9.85168736139593 8.403512350301524 13.334332159465307
Ga 11.692463869952379 14.36077222175689 8.964748570733025
Ga 6.207186985718967 13.219892410000208 9.13612740451358
Ga 12.369050269691277 10.402140404427339 11.10712073064256
Ga 13.61483994493265 12.910419463436853 10.156046047078213
Ga 6.746225062881808 9.698112992344612 11.445017564933156
Ga 15.438926030335423 11.541296242533637 11.751278344184511
Ga 9.304000547169354 11.360009484516786 12.202717712655206
Ga 11.978864519905269 7.380794620553567 11.971137049143366
Ga 7.326180203850273 7.2589357074692895 12.537146991951353
Ga 9.500391834572955 6.587961720769024 11.120123601582879
Ga 9.373232369666352 15.263392825301207 7.7001457479068165
Ga 16.418809359232668 9.211232780718577 10.668217097008107
Ga 10.684522657110815 11.758028925587881 8.959403560623006
Ga 7.991681003889004 11.038845752990099 9.664096178907768
Ga 14.493055900307127 10.471843068583656 9.237816723080531
Ga 13.718611259836406 7.758247262169536 9.98175995198684
Ga 10.789201160827748 6.987157155103707 8.897723961029605
Ga 13.23417444040565 12.304782677277933 7.430324458665284
Ga 8.267528285477074 12.433074324177449 7.382720128266225
Ga 10.755673799683432 13.258331599969335 6.541552939759314
Ga 9.905663104539961 9.322869876380006 10.575615489908177
Ga 7.730970921465706 8.08024093094531 9.217110419562905
Ga 13.054318700450867 7.020365477591864 7.455759648502511
Ga 15.69670772673736 8.08108750373247 8.016290737901846
Ga 11.282395825426834 10.589767952717196 5.98330891441024
Ga 9.070599019245494 9.754184034601677 7.45623668278038
Ga 13.868772390706276 9.795118693411787 6.6500307917481205
Ga 11.921997542266483 9.434416416029267 8.551700241828204
