47
Energy = -123.6011038 eV
Ga 14.978013995501206 12.434529987629388 8.832763021354724
Ga 14.127152990488288 10.205478210865198 7.41617375108726
Ga 14.748926641450511 12.062631529383555 11.53793388216266
Ga 12.834006017982224 12.659020651385495 6.8449135655080084
Ga 14.93775232212707 9.855264689280842 9.992237898893759
Ga 14.695475152809838 7.613412984273201 8.527758253296701
Ga 13.022046177590498 13.922885960363946 10.373545493653683
Ga 13.868333225454249 14.914932054825796 7.963983046088656
Ga 12.124904975850491 10.413191278640028 5.339730097811862
Ga 14.848719320920521 12.040163647391132 14.237369591203421
Ga 12.827830842250174 7.89004478566603 6.546918362104671
Ga 14.669472678417577 9.600578154591098 12.982557736982347
Ga 12.443212118669274 12.930385137008559 12.929645958373746
Ga 13.877721278435306 7.53148405749197 11.569763416543596
Ga 12.341637634767032 9.984143448395951 11.64280814227401
Ga 12.357283212624633 11.476981562006236 9.410117975671975
Ga 13.263152815205379 5.545839982816134 9.791103880000653
Ga 12.205310955021256 8.524978187030325 9.264760673651251
Ga 10.363489698320143 13.077636850696225 10.94413089360072
Ga 10.434453455626652 11.37767842097869 7.238336224375809
Ga 12.495107360732488 10.681884844756926 14.587310176447717
Ga 11.029289674575455 14.166491728737208 8.476496978215595
Ga 10.250868858968774 8.637768010598299 7.090142117871278
Ga 8.786749376819298 15.255820777531902 9.75245419490658
Ga 10.105809532967227 13.625506678326545 13.851234138184891
Ga 11.065182942096328 6.1201981844471245 8.141252308473373
Ga 9.98561076998195 10.06441242934672 9.77325809281257
Ga 10.133922219559956 10.914632267288788 12.814901120807079
Ga 10.04499182621302 11.509103314696905 15.617147781566615
Ga 11.167212224863695 6.849303101075401 11.145371299589849
Ga 8.531066697454769 12.652573875780194 8.587117649988775
Ga 11.438979904360504 8.19462196258059 13.5890203288146
Ga 10.983868116798572 8.918576125430828 16.224721856096384
Ga 8.02455164131359 9.9520887277528 7.6592832261564086
Ga 7.976037139099512 13.971294483439458 12.249680872780381
Ga 9.016615480964584 7.2893166829634 9.371474462187239
Ga 7.969764599456256 11.274800136999193 11.025562575131618
Ga 9.159538923378376 8.40537188931457 11.99615910874151
Ga 7.713091143810515 11.780866594953556 14.197088362194338
Ga 6.464863751788003 13.711215363801829 9.936639556900072
Ga 8.751556465849484 9.096210209348037 14.676926429529582
Ga 6.0344208947065745 11.00079177254782 9.020808673258092
Ga 7.038059915021117 8.69096279505167 10.220488007534884
Ga 5.832555180695839 12.162506173056896 12.363561395034225
Ga 6.726672409585133 9.389145193479454 12.978227793853007
Ga 4.0480617797351455 12.326583851468413 10.286346302346255
Ga 4.640443720040121 9.698627176846795 11.249124664105196
