42
Energy = -109.96068288 eV
Ga 13.435539293401746 9.437751420152557 8.246117032491693
Ga 12.851261122612621 7.959551320685599 10.721430838891273
Ga 13.94027852091393 11.948964602374195 7.239976844242347
Ga 13.215618058695782 10.689473407326208 10.733628740941823
Ga 13.407962349042176 6.732796552583404 8.155542530869553
Ga 14.169581962071003 12.96208872540039 11.994400753854082
Ga 11.737958669534866 5.598903106833232 9.852924664193015
Ga 11.819203766365234 7.736716994218422 6.169116569868848
Ga 15.181266518524374 12.48450471375861 9.574184531285816
Ga 10.862368404778945 8.124850509777838 8.939738208694031
Ga 10.348580341528063 6.459341846286206 11.965308964108491
Ga 12.415006230286155 11.556292819656496 13.55764537294844
Ga 12.12049234049316 10.350139879481311 5.857290568121737
Ga 11.650734931027975 9.146891423296777 12.65058926393563
Ga 12.696619575381654 14.428516210699456 13.847781262838426
Ga 10.402950614807379 5.698951710643186 7.401810736232079
Ga 12.363175048203662 13.110408282153074 9.162242501747674
Ga 11.249124266859148 12.834013189674105 6.544532009839698
Ga 8.95131336436635 5.189446009940453 9.883798039154598
Ga 11.009271047193236 10.797610763881426 8.63484079892111
Ga 11.89296777625836 9.357027365218007 15.367235761713477
Ga 9.58406123908172 9.328502728031825 6.727809738440841
Ga 9.356749370249219 8.902528035830363 11.057695599554288
Ga 11.520845141209243 14.120371703054978 11.390592309450481
Ga 9.735368661979113 10.592602435788677 14.442639103551823
Ga 10.00754193281375 14.260028595912345 8.59199909864731
Ga 10.504885330647502 11.395718731807525 11.336610124440524
Ga 10.154879429412057 13.299846244678529 13.76297718047438
Ga 8.815079916074362 11.897028655734289 7.424729728298335
Ga 9.688663584901214 7.7319896086859705 14.213709131132147
Ga 7.554682142900049 6.843918511708033 11.91521996525799
Ga 8.352995518152953 7.514597084934936 8.550753257978448
Ga 8.172992724947555 11.158700134636984 9.967135273592461
Ga 8.875001932780897 13.78927307286636 11.092503480756424
Ga 7.5983144582075015 9.228511779855285 13.339136017171748
Ga 7.998686432989396 11.927059794664117 12.990999219984259
Ga 7.2754896109547404 13.844938801769874 8.734676492445733
Ga 7.0165718681662055 9.756473415456082 7.453887075649648
Ga 6.6080726804982755 8.80803731941281 10.086895109315114
Ga 6.251243681741029 13.038497526361734 11.305865032052061
Ga 5.733038353766465 10.477557761259932 11.943007452233608
Ga 5.352524332024868 11.358539749353614 9.049986160523098
