47
Energy = -123.05753037 eV
Ga 6.391689330882406 14.601950211320565 8.790161365876843
Ga 6.6503570693919904 11.378666700222636 6.593900797142429
Ga 5.348758314491778 12.04294390038616 9.089454039165894
Ga 8.242731060927985 13.601010354767775 7.045447248655144
Ga 6.249841114484802 13.504599864079456 11.480664937709614
Ga 8.556598585622995 14.80962408699781 10.33529153161043
Ga 6.430285155066036 9.52987795149565 8.921752767965359
Ga 10.06168528931408 11.736715596865587 6.10878967570552
Ga 8.013622676582045 12.105100952566069 9.36440952003873
Ga 5.675562949608252 10.654040041673555 11.449345483871541
Ga 8.636208118522099 9.606630780158051 7.169461670473164
Ga 10.41381524121835 13.764834393586346 8.569406823673107
Ga 6.441856016392659 11.922429588392626 13.976953341532159
Ga 6.533596367481007 7.955139558561874 11.154608413790253
Ga 8.347237730513081 10.459025358482682 11.39225520256123
Ga 12.354239016879035 11.845900294952038 7.831417731879553
Ga 11.392941277756238 9.326621293163205 7.269211215507383
Ga 8.759000094689219 13.035756788971335 12.423619021779542
Ga 10.209817798957216 10.583210928131589 9.35864749848522
Ga 13.022625572101 14.581546346856658 9.059991065158782
Ga 8.721654500709313 8.06367711362283 9.39132695993097
Ga 7.380278243697472 9.196591779132271 13.659684376320511
Ga 11.008454048995098 14.835088872027821 11.454494640861544
Ga 9.205271309971472 7.761066202738846 12.129553851075368
Ga 9.183812574054958 11.227510357885121 14.403528904622766
Ga 11.65249804096005 12.321319828816584 10.543895333611186
Ga 10.316246410703487 6.636405266310045 7.677759467511043
Ga 13.518503410486277 13.89067602309416 11.861668090853781
Ga 11.281111769928788 12.757744341703845 13.329476731503332
Ga 14.523075978027796 12.302575126114238 9.388723094798836
Ga 13.75236619426742 9.53747460738092 8.771670195148676
Ga 10.928882493704577 10.10890795100017 12.300103315406208
Ga 12.969685238882283 7.010391817682541 7.6993945590059685
Ga 10.168487521368244 5.818296222270682 10.435065039498223
Ga 11.693180783544276 11.001933021386414 15.56726889726233
Ga 11.502647317931238 8.279059332972034 10.041907640392273
Ga 13.466991298082446 10.728796154130011 11.344932874849937
Ga 10.33278326443427 8.431245820961694 14.600924079413664
Ga 13.890195171547834 11.914604442767248 13.919297833261087
Ga 15.938471112219267 12.505361734991833 11.8979237361871
Ga 12.853165969634166 5.760744156468301 10.22075291333691
Ga 16.18585936485482 9.990145609672116 10.091006637762534
Ga 15.38191992242997 7.0708244412923715 8.949672261305817
Ga 11.834179292093754 6.806637937674659 12.763970809380504
Ga 13.013398212221034 9.139594099505183 13.907975756046273
Ga 14.000926992348258 8.0554032726681 11.278455619796896
Ga 15.474614684697288 9.81977457866912 12.912157803126135
