42
Energy = -109.81761376 eV
Ga 14.954045233582184 12.825486956689138 12.406458272481014
Ga 12.738984557244498 14.198536380673403 11.950142834438825
Ga 7.880352112721437 13.192338067146418 12.387909292469034
Ga 12.108626478267835 11.975698255412905 13.383059071418815
Ga 14.92992429525974 12.462160871185844 9.659019331480653
Ga 10.221652299537794 13.942221040271061 11.310588426320459
Ga 7.904152178377469 10.551605510284082 13.887660648874428
Ga 12.802527846370907 14.448571960748552 9.272146668767304
Ga 10.4417265461985 10.58596496019629 14.922744581892054
Ga 8.18959991680907 12.7609797656121 9.75758735597763
Ga 14.309559988086754 10.27486104312492 12.127599158083312
Ga 6.427320395505351 10.859117749297091 11.205946129678711
Ga 10.271418703073888 13.811002839883372 8.409426818387022
Ga 12.165468061253133 11.747306774736293 10.573292078029061
Ga 12.271992996530205 9.044480809480538 13.384758569320157
Ga 5.75639491639705 12.081337016428431 13.564099938788805
Ga 9.850705735392973 11.25045823011955 12.022309374112249
Ga 9.651910871114167 8.605470228908441 13.061970861122616
Ga 12.419542340230915 14.388667743637876 6.526013291275412
Ga 12.934068333077928 11.958890941401375 7.8954777938574345
Ga 13.9876463602738 7.63608219652628 11.210786204462256
Ga 11.049496332919373 12.038202418018399 5.921640327328552
Ga 6.919199698166349 8.328578592172693 12.5920763524239
Ga 10.306696853732234 11.028059872414177 8.742851144181927
Ga 14.047025385665398 9.938584494567955 9.383318250142525
Ga 8.325909010843489 12.487338035443864 6.950604742303919
Ga 11.64959977849212 6.6985578982135365 12.253346611700819
Ga 7.28396699787263 10.555110882602303 8.618856598660965
Ga 12.016183058650412 9.552784216582333 6.800346736581049
Ga 8.79128321901546 6.333899808249304 11.881415445923098
Ga 11.41416426927685 9.069135928279373 10.623231139494214
Ga 12.812013339158721 7.63910772571814 8.571731136295018
Ga 5.631462991280699 8.73812531337336 9.697884279332275
Ga 9.29168547225065 9.923627193373134 6.287815385425707
Ga 10.484497303574031 4.3246187600647135 11.43902164155183
Ga 6.184023837015254 6.370050149144955 10.91325014600868
Ga 6.564239968536934 10.591391041090993 5.955086225700894
Ga 10.059349495013466 8.311707590473935 8.290797198704382
Ga 10.95521155273961 6.078759411418404 9.503889160913047
Ga 7.329260001176558 8.109409043252306 7.234008624267945
Ga 8.568254267657341 9.022320928144477 10.453027178900964
Ga 8.234474230427804 6.395008584407927 9.102422201691638
