5
Energy = -9.32922825 eV
Ga 7.271920920740339 9.84436767577618 9.97217915480881
Ga 8.271896615526206 9.822347935504384 7.724884787565853
Ga 9.734394851221728 8.104251522772744 8.97267554371832
Ga 10.444252185801403 8.53001203180216 6.541202076024348
Ga 8.718902975691666 8.140388383126114 11.230425986864006
