52
Energy = -136.89915316 eV
Ga 12.035677776902055 12.71950823313099 7.163289847945588
Ga 9.966563745594677 11.728961228521005 5.638476606769631
Ga 10.16790299241984 14.741491660072764 6.96719508996717
Ga 10.286279544429691 8.932066749386545 6.054314997176687
Ga 7.55765268650615 8.939268483246659 6.061103475504527
Ga 12.018483491108077 6.472387351508386 6.850420689612472
Ga 12.605968323046094 10.208781399479646 6.562372872959773
Ga 9.312945931433672 6.7566317317108 7.449969567729117
Ga 7.481817540951783 11.668472462358078 6.755621142290369
Ga 14.848441714216845 10.868835400268264 8.30802101404119
Ga 12.612734489473324 15.384246079723354 7.996452038538999
Ga 7.312922943147232 14.037295152960823 8.221618593250707
Ga 6.889417089373304 7.400966472337726 8.584863505920042
Ga 14.216786314908463 8.228129500577595 7.564419917617727
Ga 11.390027408009047 13.54372182092402 9.971406421043818
Ga 11.316534388535135 6.032222385255343 9.550032802762
Ga 9.562120872658939 12.322147983806797 8.578430783300444
Ga 9.337958932812775 15.411324994882072 9.483804960504893
Ga 5.628390910291757 9.853341527226767 7.997093767510953
Ga 14.243556587752947 13.477384159867547 8.677864067889512
Ga 8.74406451582216 9.762981809449682 8.45822642453401
Ga 11.270095279575798 8.648275776463466 8.528980021657198
Ga 13.268883669242568 7.996204250552537 10.105968800482986
Ga 9.323077349042322 7.841261360384373 10.301786029101446
Ga 6.36188441317506 11.91361395648699 9.575422155138648
Ga 12.180670335134911 10.92008195022762 9.396096222295416
Ga 6.790109433831118 9.422493478323311 10.506097436154988
Ga 11.560255314735034 16.765944451761065 10.230972763527646
Ga 8.167590927219406 13.510097254980723 10.913448745803391
Ga 15.170696319420133 9.915614110498762 10.823352048641352
Ga 10.304029214812445 15.1145490662948 12.334066028099699
Ga 13.426570109112207 14.889980094587628 11.195140629021001
Ga 9.580939815570868 5.5496982512078255 11.749117102050159
Ga 9.480933201396327 10.733514671580156 11.110936381163421
Ga 14.065515284261878 12.253526344503282 11.077516955984423
Ga 6.921663539440898 6.72654365010771 11.298370473420457
Ga 11.97395191165632 9.949055758321707 11.876764109461563
Ga 12.12087157401899 6.629461126860064 12.185020398992446
Ga 12.037328474931423 12.734556129525119 12.757035213874635
Ga 9.547949837328137 8.518362318144185 12.950659613097418
Ga 6.493553927875516 8.834870960256497 13.05544730555068
Ga 6.983535619436711 11.457327696965624 12.325052550599324
Ga 14.266655373981706 8.293171366893688 12.693078783742163
Ga 9.398902995783923 12.702024137426807 13.144283985630302
Ga 14.040245733674272 10.987793690756982 13.750401615855326
Ga 8.006689243920967 6.332141993319369 13.934008210765507
Ga 11.236014839995699 10.955546506117843 14.638593874477339
Ga 8.478929631197875 10.642568351338433 14.552424866795214
Ga 10.666209140709238 6.013134306444153 14.423556532631824
Ga 7.23866822756805 8.437189189290802 15.576790553852474
Ga 12.194506731230028 8.428446397469385 14.286977932150593
Ga 10.055486318548928 8.541446803436756 15.95629606033419
