50
Energy = -131.9639344 eV
Ga 7.3439928148553095 9.471887355435511 5.1590690511180535
Ga 9.895618784676259 9.398243628632539 3.930143234393603
Ga 11.656863212067893 7.717604212257608 5.46417201372219
Ga 9.079310937568456 7.150994311862021 5.743317508227679
Ga 10.550153016950702 5.549882925038573 7.639270536529401
Ga 8.786157241511788 12.172052063436443 5.254016595493457
Ga 11.522753837509628 11.398324482641868 5.255294346389549
Ga 4.956513697564128 9.161114526570287 6.635338073575571
Ga 10.559710385758882 13.289937977767366 7.434978855588303
Ga 6.331647883440373 11.681258286247026 6.659117853341277
Ga 9.77096087938101 9.77403581604246 6.644314216300031
Ga 11.140852800882103 8.114373800571054 8.225570490753995
Ga 13.232995234465921 6.3755216771594805 7.429233738424813
Ga 13.442622343383219 9.50060058786149 6.8149611976551165
Ga 6.672822211870621 6.762470747412457 6.851450036650336
Ga 8.201092217777642 4.9111988343806745 8.781935441625722
Ga 7.761905411777817 13.918046004596462 7.591973284778003
Ga 8.691100946545417 11.464947816330126 8.44065321536416
Ga 13.404788997950499 12.378014863688437 7.199071583518579
Ga 12.306923382578857 6.1018165001519575 10.144960358385152
Ga 5.160623082754748 7.736065726093623 8.998133717582153
Ga 5.26369364259513 10.60876762855913 9.028065961450991
Ga 6.762570103482897 12.895513819960218 9.866992237238867
Ga 7.43806180121065 9.169082536882254 7.909934139665362
Ga 8.191270050766946 4.566882823690849 6.014510205306779
Ga 8.84169688695419 7.508539635408903 9.275418430586187
Ga 13.684651777209226 8.43102018867999 9.345917812661185
Ga 9.369848442998299 14.122981316774641 10.180600469355051
Ga 13.910518522807081 11.115312637370135 9.717877521592257
Ga 6.944581163038595 5.948272320715013 10.93019444857637
Ga 11.464889637889401 10.72813595398354 8.480090049816349
Ga 12.069279223349321 13.237771087041507 10.037108381153041
Ga 9.691338727432756 5.2248515460125695 10.965978780857707
Ga 7.8245272341416054 9.829703334148926 10.520383002578406
Ga 11.024334091512904 8.689473665171953 10.84764358881858
Ga 4.242507639617679 6.312305575521347 11.136504168046358
Ga 5.401122248414001 4.842444566634972 8.563573883367189
Ga 10.159840601096285 11.214870975453175 10.672842756053004
Ga 5.601427859202032 8.637005410245708 11.595424146384882
Ga 5.3722645560235796 11.380238261719768 11.78725768957612
Ga 8.737346078245578 7.676570216389202 12.02929772283543
Ga 13.643756952594874 8.23867091553417 12.099043892125954
Ga 8.15849164677204 12.213705215366454 12.198047007473374
Ga 12.541771290638634 10.833775543459229 12.131215814490995
Ga 10.753660547535194 13.075834179160093 12.547969184439284
Ga 6.5404153025598255 6.933891014033348 13.698480024849781
Ga 7.380046692303803 9.798572780565596 13.391818310391784
Ga 11.212635986125983 6.702040342534006 12.783721555790382
Ga 10.218600988333082 10.185528067487622 13.384204999427462
Ga 9.20352994452048 7.967935257961299 14.680997426317072
