52
Energy = -137.05515405 eV
Ga 10.709928101611577 10.496556322329688 5.0718386559404
Ga 8.796420834140559 8.53525501637657 5.684680346530788
Ga 8.148736746929034 11.310717309918271 6.15817464181744
Ga 12.854460341294029 10.455251780794931 6.859248235694132
Ga 10.605878211551087 12.793381131901661 6.387786324082095
Ga 11.69212337927881 7.945807411639618 5.605452326992868
Ga 8.036555291402655 6.647861078918409 7.468683089284987
Ga 8.281841993833494 14.179776449642628 6.288654173267048
Ga 14.820956856858194 11.798963871402606 8.245071974904395
Ga 10.513187259693135 9.322396564254115 7.833046360313281
Ga 7.759525670109114 9.508941298434314 8.120097224547806
Ga 7.024899596396767 12.31462795764813 8.443668558317036
Ga 12.422156547922812 13.00905537654954 8.28736137646486
Ga 13.12657627618248 7.95846594644897 8.071959849282425
Ga 10.760839629141607 6.304398475964049 7.546798766624643
Ga 10.05578307542149 14.319840492575695 8.723823977725347
Ga 9.811570252007803 7.6915889102636745 9.763745083583094
Ga 9.170110417763613 4.993847829664954 9.74398488691169
Ga 6.760143911195203 7.396317317791267 9.68253246825284
Ga 9.669634518601681 11.620332896405493 8.95626654818534
Ga 5.609846452987493 10.024141242538743 9.70222292871381
Ga 12.130878403321898 5.498882600642627 9.67719354403468
Ga 7.460208672450975 15.056783047089004 8.713961475120325
Ga 13.962376672344044 12.243081827101248 10.85631793228827
Ga 12.125398721748054 10.446392595828167 9.762272121539626
Ga 14.93647107472185 9.502116054889626 9.861405830966724
Ga 8.33702806778701 13.118499653035071 10.874090342160166
Ga 14.834147087495076 6.5085985025490105 9.589235052461792
Ga 11.68869921166377 13.827818165177584 10.838247137843085
Ga 9.505987477411637 15.830155466012478 11.067412557862701
Ga 8.335138959013515 9.720022834529246 10.920135626261212
Ga 5.952081416884382 7.999387142622623 12.312532275513734
Ga 6.1979963541786685 15.415669749036821 10.990466901020683
Ga 12.664461226026434 7.974027003411126 10.837131218563657
Ga 10.433425635235416 11.380860062611298 11.771786693023033
Ga 5.542246199631595 12.825361214408758 10.715744460937076
Ga 10.572022591596205 8.784214856216934 12.155971226045402
Ga 10.895921168952592 5.815019098277981 12.140045620690922
Ga 7.743625883755574 14.928833666630796 13.071976782317702
Ga 15.291575096270002 7.878038686828492 12.186063398327759
Ga 13.877122728105917 5.4087866057292535 12.020481068744147
Ga 13.809510252427872 10.07062872795346 12.471310153089897
Ga 8.406810952413274 6.8802036300026135 12.080445387390297
Ga 6.140337166486301 10.658952135352408 12.242800156301918
Ga 10.260461629258167 13.961542448558667 13.247114379174127
Ga 12.605544058850072 12.451969406527978 13.281011190253336
Ga 7.6849350191097 12.331962574590179 13.49130462662685
Ga 12.709495273141 7.422567164195901 13.620311948971818
Ga 8.177508325317495 9.429529920043734 13.797021333388518
Ga 10.03490041879622 7.390700130324028 14.62903163628258
Ga 11.924042651915533 9.880133384295588 14.368829302696144
Ga 10.014853066951327 11.618123791646795 14.649637650248977
