54
Energy = -135.87745224 eV
Ga 11.999251050357875 10.047739234135237 14.417366725059583
Ga 16.50432145979198 15.386259948556614 9.504174126078265
Ga 18.036455220514796 15.29552372782915 14.231742887772228
Ga 18.633896699171537 17.0493301553886 10.574893765303633
Ga 16.068936981252246 15.559992734765252 12.124671856846637
Ga 16.869646137371465 17.821436411906404 8.373646963620114
Ga 11.763558133079803 7.955167886850144 12.620433576709722
Ga 11.803501610179966 16.808005014373595 14.703177348132037
Ga 17.232239601936488 19.11074317398395 15.043075180512616
Ga 14.378482103952127 11.182555295060844 14.844904520757034
Ga 10.228291061093653 12.526212205942683 16.01516240828955
Ga 18.797209727109237 14.62663164010993 11.548931683789645
Ga 16.116217115897953 14.767255376140016 16.29793617846065
Ga 13.506468796076595 19.220421746611713 11.374372238665444
Ga 15.888987996113691 18.029990832586027 10.818126307206901
Ga 9.431861066095399 10.575580298292403 14.71357944321843
Ga 14.29728640592672 15.469182519621562 14.255903801704418
Ga 13.281218835713064 15.336180473409442 16.95473617744509
Ga 10.516291376288404 12.498624337550426 12.931673219265607
Ga 16.334572388489885 13.073195310725398 10.86621411589554
Ga 12.90104146923366 16.79735018251491 12.140344253460718
Ga 13.949013180626627 12.027422598895923 11.981975253706127
Ga 16.70827404481583 11.733302741953239 15.854478890635828
Ga 16.801556572910588 13.12588027930293 18.379665658020823
Ga 9.713356273567275 14.811919637474341 16.82151649481762
Ga 12.332199898419598 11.164723961778533 16.884295030487387
Ga 11.476573597107764 19.136143613104906 18.72240190974739
Ga 14.812860889538449 20.197427337844196 15.560958533838662
Ga 18.73067857351922 14.910543611060536 17.711059368709904
Ga 14.036809144437212 9.398912694549665 12.677144332038823
Ga 18.61312096025716 12.582832051021015 13.27762426645965
Ga 8.986139144492995 10.343077977911886 11.616937872647732
Ga 15.327266164495303 17.26202890889294 15.906062079626054
Ga 11.612908797092993 10.525935048619399 11.540082736769833
Ga 21.5463459706511 8.125932990670018 22.87500915070921
Ga 15.212065837386373 18.044079932865444 13.348079954693933
Ga 10.27430226901863 14.840861542499583 13.842825858029842
Ga 14.408991462699412 12.833657891465688 17.1394988468495
Ga 9.085644881193247 16.836123728601788 15.34286083265786
Ga 18.256922063149414 11.098239568491161 11.15928516464167
Ga 17.895153695613875 16.95265927106068 16.438593120993357
Ga 12.736863133927384 14.249873968743689 12.374283414510893
Ga 16.406405559327553 10.465963815463857 12.990006974293363
Ga 12.78436258774698 19.35222302896996 13.988207138948509
Ga 23.253865480740316 7.266181411485137 20.892129637642043
Ga 11.204875672023471 16.665435385878535 17.815971875417482
Ga 18.9647646936256 13.157958006891686 15.744544309077877
Ga 12.24955047703788 21.1599838268313 17.00151370537531
Ga 12.596853122630565 13.368312792654505 14.92629655779361
Ga 17.93734191714357 17.680451621135894 12.966389134186944
Ga 15.900464096060409 13.393209434406186 13.746814970586293
Ga 10.5537908297895 18.922357163221232 16.014950035828804
Ga 9.244730340810394 8.349929758363178 13.4601536886394
Ga 13.20703500310933 18.324044656880666 16.75548900814364
