53
Energy = -139.69197742 eV
Ga 12.350138049493506 5.822631329703056 11.684195069786668
Ga 9.870551335947484 6.0080169220119 10.372387795471269
Ga 9.954805071588728 5.847271404301158 13.342479704882125
Ga 12.055909574558434 7.878736081796269 9.710286784985247
Ga 13.8569155173447 7.919560204933195 12.044674184031253
Ga 12.21736804938844 7.171916712467078 14.306356025908762
Ga 13.906349325244305 9.228715086900522 14.53110151473646
Ga 10.759746050290198 8.353919288251653 12.019289974377735
Ga 15.447320429764867 10.090370239295625 11.96462137105061
Ga 13.3600044855395 8.56171721278401 7.335919974220111
Ga 14.880978244967432 8.584887384181636 9.589343653353707
Ga 9.19371519603497 8.392215756202912 9.433685015670868
Ga 7.90097100444876 7.620719000110197 12.025946468978114
Ga 16.15716829770826 10.747624523674618 14.685307287766094
Ga 13.176278006437082 11.281141508216853 6.3602090362627814
Ga 13.183368527697533 10.725452939889385 9.144482042198794
Ga 14.913489121316392 12.476353621089444 10.395624859622679
Ga 9.39181618809312 8.234598954541923 14.468449929573428
Ga 17.07648591837243 12.316826831722283 12.35136308832939
Ga 12.426960655975387 10.438306221099303 11.68099161802839
Ga 11.388191099840757 10.29176519257111 14.306647334560784
Ga 10.814568222631378 9.470010352163722 7.487363473032127
Ga 13.724378889728369 11.592165821979352 15.914115019625763
Ga 13.953248584459407 12.063154460174598 13.118183557717048
Ga 8.390518542962058 10.620662794751077 7.932868039015667
Ga 7.294515026722859 10.070252181225449 10.643094432757929
Ga 9.070699824824093 10.424448922644515 15.979311704802942
Ga 10.129799409540212 10.94163161305052 10.202343985773558
Ga 15.810381300308432 13.475721616810143 14.950575364597139
Ga 11.005951425032611 12.214797951184433 7.572412017296381
Ga 11.917654850227063 13.112430030084106 10.375713141309657
Ga 8.790304482079039 10.305326131176937 12.91218342523611
Ga 11.112674044725983 12.38637289752894 16.092507213661182
Ga 13.09854996772372 14.01597906559251 14.715825257828417
Ga 15.174253753122132 14.37900360442354 12.253744607082808
Ga 10.977928318276298 12.820491284478331 12.95118526435067
Ga 13.692638828855477 13.341653614383235 8.10024175366668
Ga 6.5197645407491285 12.331177154274652 9.273312066237533
Ga 12.398250021107078 15.14374221374179 12.318853727462425
Ga 8.549454685152526 12.566305804933513 14.53008544989246
Ga 9.018518704614078 13.33547592582717 8.925137664970231
Ga 8.27626368710064 12.570346233932844 11.537345453258544
Ga 13.929928704652085 15.324719876366917 9.856767457613543
Ga 9.84617694669492 14.912438053388296 10.948821298058055
Ga 15.121866494604216 16.077180022740205 14.454028046495884
Ga 10.45495166475349 14.809605838109198 15.07433185820617
Ga 11.324664615011939 15.01508347250421 8.160417109553947
Ga 8.308859081601476 14.766235194715984 13.194517670333772
Ga 11.53992105415412 16.908337781544777 10.246253037517913
Ga 12.409480472002658 16.673763376738595 14.684171436308716
Ga 14.587969430908183 17.03237892716179 11.824222079638403
Ga 9.860146575859574 16.923188076044852 13.009222790428735
Ga 12.184507483958585 18.26567076591829 12.510395131549181
