51
Energy = -134.58805342 eV
Ga 7.557015633008562 9.7270039592355 14.798558224495798
Ga 6.854808998598021 11.964715365024663 13.453032391434247
Ga 10.280273408333073 9.331571198886476 14.99397030525685
Ga 6.784230950840896 13.900457475247666 11.60433570333469
Ga 6.603179760834338 8.538576522661009 12.367588715379672
Ga 9.341369804915745 11.969763892516644 14.955424011702059
Ga 5.741995174460547 12.962593034008425 9.364209219401957
Ga 13.182263020651684 9.00737865480642 14.712152596846291
Ga 6.273395100380364 10.83941142768827 10.930829924639509
Ga 11.243008799005064 14.049117820490617 14.822443070186557
Ga 9.131187708825568 13.792861396786064 12.856336057507669
Ga 9.296482848287944 7.445975907650558 12.449628029982353
Ga 11.300128721915554 6.993605104089858 14.202367520289537
Ga 9.082633483570035 10.494732103406177 12.486435105504704
Ga 12.193479859826896 11.467717384641354 14.709763193425978
Ga 9.409834280327592 16.082249051607246 11.335024184283926
Ga 8.805062356972327 12.125578406805378 10.283922297991673
Ga 13.954353027522181 6.655566074318776 13.30220146369475
Ga 5.714218851642911 8.591009326825228 9.38862347281741
Ga 11.5396435641234 9.427162888320163 12.337047511900304
Ga 8.247423170993269 14.670392458938494 9.349081434288706
Ga 11.870870440118114 15.134463672196267 12.267450377757816
Ga 11.283487941890105 12.288026292360184 12.224149811013007
Ga 7.260030547646112 13.37554010987111 7.146981225411611
Ga 7.584222434665949 6.82795510758656 10.414628992496128
Ga 13.908779297777624 13.621599916602978 13.579273807575344
Ga 8.65871453575469 9.32195009973149 10.189455766460345
Ga 11.777886167844319 11.41988789502908 9.747201804609732
Ga 11.054122253487439 14.171655316524019 9.890516314469323
Ga 14.20442058176428 8.74555207283382 11.508223124723067
Ga 13.840915869684055 11.119248597442613 12.451794435551207
Ga 7.248385018272797 10.65877003261833 8.137034904287123
Ga 11.95699678153744 8.740555938201199 9.66915095010603
Ga 10.028661539268947 12.948899342554288 7.828414860333254
Ga 11.822122022517748 6.676481283149237 11.407087598814453
Ga 8.071421053225386 7.915370755243215 7.731039096568397
Ga 10.031449561228307 6.513091099267102 9.413693229002652
Ga 13.704805125198913 13.397054032361238 10.671968436946424
Ga 10.093048034684402 10.17625828755386 8.002532403134976
Ga 8.603141043982317 11.589018064976194 5.759847370364156
Ga 14.542515835330349 8.279874816964469 8.726837308621505
Ga 14.640086314774116 11.032399977088007 9.62033652155682
Ga 10.961331741271431 7.721725953056572 7.209043990122787
Ga 13.06281321162951 13.13445882171559 7.763363292498374
Ga 14.47551023003932 6.129004734351961 10.62847998886483
Ga 9.191476928206054 9.004612985413647 5.489957232214283
Ga 11.405586090006219 11.888606886358273 5.769150405616306
Ga 11.926737854404719 9.351406355544219 5.049404198984533
Ga 12.65590417700904 5.969668916819345 8.49206971459497
Ga 13.160044013533076 10.283245786487704 7.451091696299194
Ga 13.58131889389796 7.622850195549346 6.300583209710671
