50
Energy = -131.85909313 eV
Ga 10.022430861224727 6.964421599540845 7.9478238530353345
Ga 8.829314137274915 8.816036762613152 6.267036495572293
Ga 11.437980988244346 8.593540769441448 5.759920064817462
Ga 8.583919752403512 5.679295765940258 9.88976709047954
Ga 6.068740106628093 9.240073103075853 6.708535511286794
Ga 11.500248044970624 5.628619885933167 9.859632415213458
Ga 7.218076710122019 7.376503998487274 8.268707631435081
Ga 7.475920596403735 11.37926365994613 5.303247321733008
Ga 12.672355698111364 7.578409027800607 7.949561763353607
Ga 13.755197331005807 7.355034570797222 10.433864660924952
Ga 10.193899587427177 11.519548156815311 6.1825227046074565
Ga 10.649801018348866 9.829248631611826 8.31925273408096
Ga 8.72987636468791 8.589377667122417 10.423496072873043
Ga 14.804610801128332 9.222988264734887 8.114567420900661
Ga 8.00560298689137 10.573654674693552 8.261802931970893
Ga 9.93603693953975 6.358860472300241 12.230524072615548
Ga 5.2727727457560105 11.64972426122239 7.87134754193477
Ga 12.99208792696347 10.653760491378112 6.693425862711876
Ga 12.855253030544583 5.431187065001415 12.323577846369561
Ga 6.426018554150103 7.183690122252153 11.108088152165122
Ga 15.154379540934702 9.715192278901494 10.70140093291751
Ga 5.982646994714809 9.612761484131703 9.864732617322154
Ga 11.373060647107415 8.517619065434658 10.484337271580989
Ga 7.401594512174102 13.201815413542839 7.396059517055055
Ga 14.71597974176734 8.008562202433666 13.011291747996017
Ga 12.870291632534212 10.78256428456773 9.512599494082952
Ga 12.156672647180757 12.955894520975681 7.76737867792756
Ga 9.607092620781035 12.534321656504105 8.981605428466079
Ga 12.051966985474337 7.831256982453312 13.490897611952455
Ga 9.912965873367783 14.411031712738694 6.758228660645736
Ga 8.724388546416742 11.286744332508412 11.230872049074941
Ga 9.938430421846547 9.504360541007804 12.663495468574476
Ga 6.5742330360143795 12.66240359952004 10.234721371371215
Ga 7.8455316183064125 7.661096999971147 13.410429901554778
Ga 6.572946909752445 9.854826411821712 12.495692436228696
Ga 11.237995796355133 12.184994827325331 11.118377530208239
Ga 15.252706794570845 10.7284033903946 13.485679664193981
Ga 8.005821020560765 15.086174165001278 9.252309212781947
Ga 9.8302105842001 8.213655346687759 15.19574946878406
Ga 14.763685299590929 12.323289850519151 11.367015171811756
Ga 12.791640446062683 10.13877842527057 12.28575897043836
Ga 10.75302008307249 14.98840165448879 9.56521631128902
Ga 13.170665648452143 13.913939882259307 10.020976949214603
Ga 8.80493411907127 14.243377755457047 11.652830103561685
Ga 6.900922214747829 12.544377758762643 13.062369399580227
Ga 11.469452916500044 10.635806359848129 14.742564886097655
Ga 8.312724383940251 10.60765344020293 14.679788962520933
Ga 11.477795503742527 14.688378218364758 12.275130571751312
Ga 12.918464273845263 12.759128785999298 13.480163603301342
Ga 9.81099685873291 12.740494331940296 13.7170765916562
