54
Energy = -141.74004233 eV
Ga 7.494255361524117 3.6550770090514204 9.279386190125331
Ga 7.30230601585087 12.021077316017514 10.9617011351133
Ga 6.8699858329205945 7.71324042097111 11.692368482305833
Ga 4.012423406031112 7.850968863356814 10.921773746513155
Ga 12.300202696189903 12.054450787128475 9.139594778016123
Ga 10.07570926625661 5.832464521371465 10.532143546074865
Ga 12.4247073382525 4.3276221469622795 10.890416884299745
Ga 3.556572161869875 9.476225684803529 8.252883707593044
Ga 12.443997132055232 6.514243486600606 9.237002440174816
Ga 11.816437350438527 10.503836079685234 6.790609481903669
Ga 12.448021380137819 13.029716914089935 6.1843182037428965
Ga 5.34123645561612 10.127672682283489 10.098601704413737
Ga 8.839970997711099 14.185304911017935 10.371551588742994
Ga 9.268944704609963 7.330438318942279 12.921855220994962
Ga 7.824327256218693 4.510391410691216 6.828290436337163
Ga 4.74964362846421 8.553930156690004 6.067448449568134
Ga 6.0130364718935985 10.211407035199354 12.765374672581528
Ga 9.852261000222807 3.024898292660973 10.84634063251793
Ga 10.207240504844366 11.661863493629136 4.818761256649546
Ga 10.146628553905765 8.841842037779113 4.963750529025718
Ga 7.844994641442929 9.379734692665826 9.431940939482168
Ga 5.21606920424041 10.976579144317844 4.984090962800683
Ga 7.692900446746038 12.646178915789497 5.680712325506344
Ga 6.108768544761947 8.22452131921866 3.6412748576702607
Ga 10.095698945919352 13.165555950812323 7.4887778865141925
Ga 7.913423704522935 4.9145566323594725 11.935502179446448
Ga 7.616330533941515 8.390045817768666 6.5218401073393215
Ga 12.67625824165642 9.214970695822917 9.194492876427754
Ga 5.967609589252873 6.200185181238809 5.953868172693528
Ga 12.598297086925884 7.817132094437489 6.623750938803108
Ga 10.504071052366017 4.766928480411109 13.089576703580088
Ga 5.957665724709797 3.1009570347946056 11.342274084606808
Ga 5.154137957941882 12.972842240520544 9.119902832174748
Ga 9.81090335205626 6.462255116116037 6.8611950254622505
Ga 12.194001437968298 5.058666509514685 6.8754083151067205
Ga 5.157856857442189 13.472876767083596 6.355930665704283
Ga 8.796875643917248 10.00254081450887 12.249856909306182
Ga 10.219109011712787 8.452444266209627 10.543508013428998
Ga 6.092125716983165 10.829157529934701 7.5935332651176415
Ga 7.891595280022422 10.224393377307482 4.347585950472496
Ga 11.374365632850521 6.4654124833971105 4.300343912445785
Ga 5.4755489690492825 5.561047128032321 10.525084294722596
Ga 5.652169997201936 7.501854291153588 8.537652713916312
Ga 8.419574449027753 6.455942395085949 4.432392678734317
Ga 12.129646563194463 7.17681590090251 12.095063946902755
Ga 10.232599701438446 3.9872140156787013 8.414934768208113
Ga 10.20438672258253 8.642947237104474 8.002309081133886
Ga 10.081800741259148 4.146929015482106 5.337950975739351
Ga 8.837742762216415 10.744074891206573 7.226997172901518
Ga 8.066993954146573 6.489950207573504 9.077398489814938
Ga 11.883380522114537 10.492303490358081 11.686673358061995
Ga 9.720137302281577 11.43769792577963 9.827138688704958
Ga 7.554391121986843 13.600675966745335 8.139988827606189
Ga 4.600210334543508 12.327490165173549 11.726424256206643
