55
Energy = -144.39780199 eV
Ga 12.868565626116478 11.948877769763383 10.036245191184461
Ga 15.084895292819837 15.791488891395218 8.262109005307487
Ga 12.785766751922235 14.510836551749664 9.431659258507374
Ga 15.505072672079137 13.596089819211526 9.837058884953164
Ga 10.862614817457157 16.459229356554157 10.241546111148791
Ga 13.635776342883368 16.95570907967242 10.29996690586575
Ga 10.169490819417161 13.559288957060797 10.483469442550327
Ga 15.333468326732973 10.85358800535058 10.251721172753358
Ga 16.311009448983604 16.55649192559361 10.674430246846192
Ga 13.70493871264451 10.229576455878203 12.474392372643436
Ga 19.285716675964903 13.70200731137166 12.035149736041676
Ga 16.688834264627463 17.18680489053127 14.574645368875306
Ga 15.06471296898108 18.500485058928852 12.364328555241812
Ga 18.32221271331253 16.469226323361855 12.38391438423213
Ga 12.204002224038337 14.739960309745705 12.157548560221386
Ga 17.463401810909662 11.729266489254512 11.922038228363819
Ga 11.369248829407226 11.930480385075377 12.335308007360855
Ga 9.684162832426539 15.763274565149896 12.60278881781853
Ga 14.482747346119814 15.755002873127907 12.99045557371353
Ga 14.205050728151896 13.061805544250348 12.233401210326656
Ga 11.467943174748942 9.331735574880458 13.683173095447541
Ga 16.612423826992334 14.325754225766072 12.243818769564506
Ga 11.184732810268258 17.286985142270403 14.869247173606604
Ga 12.40454669797339 17.617360043563657 12.534757551154504
Ga 16.309243835038096 9.301629910695041 12.493537395871348
Ga 20.986379760875057 15.962111045383192 12.584661475661212
Ga 15.336629324001175 11.621227479243066 14.087291089512386
Ga 8.967200305343336 15.73420731714881 15.095260126110052
Ga 14.102918168450998 17.922927696837725 14.858601960740597
Ga 15.523488463760877 14.640448018235057 15.147662208168795
Ga 11.360885118192064 14.361105055681822 14.68307288877816
Ga 19.839216672637463 14.596940774030982 14.628721419882893
Ga 11.013661686531172 11.698953531841735 14.93520640153251
Ga 8.906395634554348 13.14861980448736 13.732346220681517
Ga 17.534918982017086 13.101832257870097 14.415999068925164
Ga 13.262971920958732 10.081808313417211 15.61048291297214
Ga 13.42008187308854 12.952738556999439 15.52758386042228
Ga 19.372489976456414 17.333910814920923 14.788689103063506
Ga 17.551031881383846 10.365274995362109 15.170318339678145
Ga 6.872735176336421 13.855529415023309 15.579002966623007
Ga 15.631367619139539 16.98187784541152 17.216129651361356
Ga 8.307248459903995 15.164754798129911 17.6053482376985
Ga 13.262007946470092 15.497132197866422 16.536828257793776
Ga 19.60770751866689 12.365060826116533 15.957012363519926
Ga 10.695960044121769 16.43524873550296 17.46262032967099
Ga 11.231808091274392 11.009472313510019 17.61857659041185
Ga 12.911141265988437 18.182970093826093 17.267998315946446
Ga 15.390959226148691 11.002171454714583 16.8659770719401
Ga 15.31620169909932 14.383731015522237 18.019683288139735
Ga 11.373154287051172 13.869334908896322 17.67524968269549
Ga 17.862019291765144 15.344316394986691 16.435459077861232
Ga 9.235023804760816 12.717642334024594 16.55338744130336
Ga 13.429644911304774 12.34541204820014 18.3946139778604
Ga 17.463299122442116 12.794224409146684 17.363896043685028
Ga 15.872767566797542 12.017955437000184 19.417503957297942
