52
Energy = -137.26895728 eV
Ga 5.193122271731261 10.002920089901224 7.6107491904618945
Ga 7.755560439831612 10.514028997010021 8.832732847001845
Ga 11.74271183560908 13.308281932656154 7.871280604477266
Ga 11.446546777879309 5.821349421407868 7.729801114191022
Ga 4.958777787080454 9.730561134257368 12.589500608843798
Ga 6.095536876073993 7.899130744681057 5.7307856683269005
Ga 8.904531580891106 7.602065947027752 10.36839569496378
Ga 13.595873172655836 9.463110966661432 9.898033721679413
Ga 10.436447816098445 8.46428955099568 4.17969835150022
Ga 6.835046425363229 12.204612485094108 12.782669203124355
Ga 12.80325847783621 7.695742863550456 11.792366776576166
Ga 9.660127156807647 12.391756361947596 11.679075896030241
Ga 5.4451042905232665 8.579209986416283 10.054334142422658
Ga 7.578939988788139 13.098594179900985 10.141442992515584
Ga 5.404122133654127 11.285075083552472 10.423527491215772
Ga 7.779162985385599 8.355787946028759 3.67093006161143
Ga 6.365644235652067 5.8520533298231765 9.973786748695881
Ga 8.580987750309433 5.1378406785213215 11.874354392836926
Ga 11.168537252479803 5.948656874063733 13.306141549816353
Ga 9.112563451240245 7.785984820667753 13.06190635368911
Ga 6.547885870091034 7.2808761869898 12.241242917657182
Ga 6.827671604758808 5.144998823288481 7.132572842843367
Ga 8.391583615730477 9.387708604817606 6.326283511903893
Ga 9.065561986731495 10.860312765339557 13.735811062027992
Ga 12.744792191271166 10.842019342119512 7.732902073705536
Ga 7.464166966297018 7.840172703448522 8.241952863882982
Ga 8.98125699878466 5.08602673789357 8.874227555351323
Ga 10.846175097621137 8.737688788918726 6.961548843141555
Ga 9.060167626419963 6.670090120869575 6.229372443434466
Ga 12.781321234846745 9.747364887030896 5.127954596180833
Ga 11.236567904290194 8.06892799553151 9.33720629794472
Ga 11.692495550155133 8.942352621127046 13.839795968239764
Ga 10.683840551711393 9.747204188486263 11.32501340047853
Ga 7.709715640075139 9.8565211275483 11.531407010361917
Ga 4.757243661847115 7.032786161927625 7.946201097451983
Ga 10.434676051565008 11.357570514140019 6.199864731458777
Ga 11.755007471289224 11.621074732987186 13.216561487871365
Ga 9.595514801936107 8.95134871412523 15.537568175506571
Ga 10.220385950400265 11.242928105455887 9.125383991284393
Ga 13.569645207897283 8.187924881376203 7.390995564604424
Ga 9.266863232616394 13.628270372681515 5.103080801865036
Ga 13.623758132066799 6.445960354488322 9.541326051341676
Ga 12.304780502996367 6.828736443253333 5.338833722688764
Ga 7.232922568246936 11.814482294310544 6.336199290943693
Ga 8.936067890632668 13.484127097667784 7.857823081903866
Ga 8.54156285360437 10.99936072058373 4.079731854558589
Ga 5.611185816344043 12.853626451799546 8.208257554540928
Ga 11.165450292784499 5.501715124887996 10.53698732217402
Ga 12.553580398331716 12.228586757020173 10.36175785555174
Ga 6.942263774319546 9.235091620213424 14.56328909351943
Ga 10.34834959708371 14.408120464045204 10.082141162069407
Ga 14.173773371568874 10.753808021667753 12.294029483736853
