52
Energy = -136.68788106 eV
Ga 13.650106414797056 14.18717986905308 7.39213265322711
Ga 11.33557516105131 16.445592917132046 8.24460372042741
Ga 11.478306277709208 14.877699029027099 6.023938164783304
Ga 14.304271918702861 11.6519851833503 7.980591714176109
Ga 12.481532186548135 12.631711824529008 9.96088056565411
Ga 11.06854187206197 14.891328646365118 11.267404657982995
Ga 11.880190702911118 12.094860360212627 6.5326135407619965
Ga 13.31192320857296 15.310311538791161 9.78876870266929
Ga 8.759686372536317 15.639740331868365 7.061151903367019
Ga 8.98164338520377 16.253700979480943 9.786131868464627
Ga 14.646736580254778 11.352332275376689 12.676313940378854
Ga 10.152772489622631 11.95916509665675 11.245982702930858
Ga 7.989851243813995 10.926487359719632 5.924187429351993
Ga 7.519090066177102 13.488539506473384 8.572336693267085
Ga 8.725232254330109 13.089622189247777 13.593076901167779
Ga 13.148901747559815 8.023678003462235 9.999934096464536
Ga 10.649908489771006 9.802318717663974 6.0600937790023215
Ga 13.313193519062212 9.371403969717756 6.605657039942292
Ga 12.106621365568307 10.067659599104804 11.893551995311972
Ga 8.36960729834242 14.141630092444288 11.20837590750281
Ga 6.602148736303147 10.305781610785278 8.424676654535938
Ga 6.903862278455967 7.285259699033334 13.41555147454079
Ga 9.358756296018425 13.210526453561869 5.926265713467005
Ga 8.124831012029412 11.591421885139264 15.817553910612597
Ga 8.714783974359412 8.867083997807345 15.115722087814014
Ga 8.368017382427858 8.542338247664944 7.034838440438132
Ga 11.103873065767322 12.987802552969482 15.100582183103059
Ga 7.2677155678540535 10.505619781427095 13.20534718681081
Ga 12.401925435647998 12.94940295545881 12.707518496544852
Ga 6.887652699585939 8.742022791737478 10.924349822286006
Ga 10.471994699264245 13.849882353959721 8.654670955752884
Ga 10.739233180737257 10.523197486507481 16.54209389820685
Ga 8.501121202378155 6.61549205355393 8.876818880436485
Ga 10.231421428465753 10.81406127547009 13.780169903321411
Ga 9.411314453248792 11.379206297295017 8.284421108673827
Ga 7.606838207104557 11.522695908941524 10.61857083936256
Ga 9.329666518269095 8.837980590308248 12.365706109166473
Ga 9.379888258192375 9.130126494896821 9.75916272090442
Ga 12.968921861838806 10.709715178153543 14.825570272651861
Ga 8.783367276933431 6.185320799499294 11.589670272204488
Ga 11.794047658551422 10.243528118469664 8.997632544400577
Ga 11.470606077890631 7.454566560141738 12.22203319169023
Ga 11.159401054321734 5.996231316726033 9.912523222013977
Ga 15.170029162570945 13.129808473188707 10.337524164910015
Ga 11.153290474027383 7.8328662048427615 7.967115086228034
Ga 11.51785790146408 8.413772416512362 14.839387570037365
Ga 14.013667951305408 8.501829380667614 13.262875615920967
Ga 9.662554208175344 6.35797328989243 14.2202494703426
Ga 13.798863083684575 5.986648736331281 11.687835211643893
Ga 14.502796153232854 10.20889153340541 10.222381491213621
Ga 11.170546349213874 4.642167885495567 12.285307192131743
Ga 12.591264867084762 5.960836276117459 14.373473304065744
