5
Energy = -9.36930142 eV
Ga 6.620514710875553 7.566979120737042 8.47955134830766
Ga 8.019234362610469 9.646476339851505 7.852631706290899
Ga 10.02135285679437 8.306512050117439 7.037374311040605
Ga 7.885100632209486 9.19243394319233 10.35172554216682
Ga 8.45589280230729 6.289693910898855 7.2808124569913035
