50
Energy = -131.85837525 eV
Ga 7.870267876132819 11.100752296303964 5.2856755217488445
Ga 11.974875552587326 9.091846782217223 5.430392991971171
Ga 9.339518848501994 8.900356944527745 4.697992320047151
Ga 13.224933295047892 7.407369095262478 7.188388532833375
Ga 10.462936442737474 6.688315762101014 5.92456075262777
Ga 7.558925709751688 6.96239221195942 5.568306663754493
Ga 10.639712663735978 11.416429630667935 4.239876247631478
Ga 6.682549690116783 11.938156902200946 7.65738606823768
Ga 13.433763491263615 10.811038759100164 7.001206707336651
Ga 9.093184082080084 13.506216106238206 6.313489430371582
Ga 5.900913061381837 9.309790793292029 6.027484554549453
Ga 10.169123495226863 10.790481476906916 6.8800723770294665
Ga 13.990901328940858 12.316235839947815 9.410989489527939
Ga 10.802822366717672 8.387507213397267 8.139454792343404
Ga 8.168139729232593 9.069577351420927 7.584354300650835
Ga 11.362241697912363 5.355057432528423 8.115649719359675
Ga 8.637094091429265 6.178658450576668 7.94386015393295
Ga 5.172699138058633 11.773579102813954 10.322883385244703
Ga 11.701339500479065 13.10723050955228 7.43143008446807
Ga 12.891512958117936 6.702589759615629 10.107866945838126
Ga 5.83988234212463 6.87994383481638 7.862837910066129
Ga 11.53692479644943 10.977979296208284 9.177709170296847
Ga 7.093175973497059 13.889265076383959 9.769745862299269
Ga 5.206668764816872 9.596297002518016 8.681100380141629
Ga 9.623404557151016 15.210161890882615 8.979083328224807
Ga 9.25873100367552 12.47570457648619 8.918021772898125
Ga 9.125103882638108 14.054156286016877 11.8442477722766
Ga 7.679153154027189 10.654041702226184 10.004593104150183
Ga 9.783882887917693 6.7113657137802845 10.37203077010151
Ga 13.729555032947925 9.292628399021629 9.366674223505596
Ga 7.389847745720084 8.003753493400906 9.912703565642502
Ga 9.494355697725743 4.014570074687286 9.706779687585831
Ga 7.058504129445408 5.332575343745625 10.225312269650432
Ga 4.726069170133849 7.35018959306208 10.57783888905105
Ga 11.256742055889132 8.956610257369862 10.78232446496481
Ga 11.457559329353654 13.563580979591295 10.458733721684132
Ga 11.473669229782905 4.710134872800601 11.622713967764156
Ga 5.887789659974916 9.651943019036363 11.943469066271865
Ga 9.887082630460867 11.299086643830318 11.337763491050083
Ga 12.825455721093567 11.290330182719664 11.904118969718267
Ga 7.000131817548688 12.262546182941705 12.36500467739301
Ga 13.577397248294702 8.573845869942328 12.259530423549055
Ga 8.859072772420756 8.823485158814368 11.933573196500708
Ga 8.950012262807517 5.331918538847895 12.778060640569091
Ga 6.799934193859648 7.158986678862851 12.730261791206235
Ga 11.210343170007786 7.17598855452796 12.909177168931027
Ga 10.890993642466544 12.715453584734611 13.451102707581564
Ga 11.205246671550661 9.873721662872523 13.783758734747284
Ga 8.50384626981923 10.736031048398326 13.940437158850767
Ga 8.989943119803428 8.018056013698924 14.527904026679332
