53
Energy = -139.57684883 eV
Ga 8.611792684764588 9.860840014944344 5.299869374186066
Ga 10.918616330299086 11.071931914974893 6.108550291535082
Ga 5.772572669999417 10.115398292754437 6.326063705154587
Ga 10.7885242761857 8.428541528351694 4.338964835443016
Ga 7.22263137638942 7.558098795972977 5.280823418006814
Ga 9.559678214067308 5.826884453466887 5.210517953366551
Ga 11.133535767486562 13.356570911824516 7.505743131242244
Ga 8.372888396849559 12.505698949898278 6.151789560271424
Ga 12.70292367659711 9.165919617266388 6.3040066656611105
Ga 5.42203977154659 7.39950331968828 7.572241461064257
Ga 11.371971459252727 9.225114384890844 8.791985811772534
Ga 12.565652681374615 6.3548874049299275 6.052343701184461
Ga 7.951664475859395 9.036482803018664 7.934446511665356
Ga 7.921174435916531 5.941504524077412 7.521856287577882
Ga 13.133536994630058 11.18633226891675 8.26294436454549
Ga 6.568630997339219 11.970560450716341 8.30336093064385
Ga 10.173022759304601 7.789385513772491 6.954858470449606
Ga 11.186003019174592 15.266489568976013 9.757831441965829
Ga 10.513351472938997 4.863721224700794 7.841149325223033
Ga 9.418318868265263 11.148099549715573 8.463651185528525
Ga 12.670111653950356 6.303949077573984 8.914281014736316
Ga 13.466037592782534 13.667854598031456 9.389919180290295
Ga 8.678592819751962 14.030650398910058 8.444458921749963
Ga 5.970197277850019 5.0150559337511185 9.300897825271763
Ga 14.550770851147448 8.000526316021501 7.872851087613518
Ga 7.320176865471208 7.367927236020432 9.907738199544392
Ga 10.773461475768796 12.517923439442058 10.266134064389295
Ga 9.904969139592655 6.9496819148780675 9.489760727134811
Ga 8.627650805940569 4.325555126708345 9.912051721767014
Ga 5.599979075157001 9.649578448463242 9.279459934389545
Ga 6.218932789587666 14.346661145098762 9.843811017686718
Ga 6.370180738201192 5.8717375559019915 12.012452424047568
Ga 13.825450404934543 9.089185836378809 10.214797464193767
Ga 4.444974774889508 7.355731338780491 10.322499781944007
Ga 11.280324542550538 8.445370908505515 11.264528062905496
Ga 11.275331196082654 4.8534514342309825 10.95773614410609
Ga 8.761079925140498 15.074545349204554 11.027719552956485
Ga 8.04264611866519 12.181961466037832 10.590757835818602
Ga 13.290924226015854 11.494663816410643 11.221012781862122
Ga 12.26370701787597 13.990153868741427 12.114285874680899
Ga 11.11818234820116 11.002612705979281 12.633829357514307
Ga 5.323298136372952 11.619735679345567 11.087580475934834
Ga 8.806360101886115 9.526685262408574 10.746520759850378
Ga 13.502645414718021 6.610487613041612 11.49435517847513
Ga 8.963244459390983 6.496767650955832 12.201017474868591
Ga 6.191931417406882 8.79429637884024 11.990598297079968
Ga 6.716037420702111 13.614457201274073 12.702347764567177
Ga 13.262817217384992 9.159252264358187 13.149667805763002
Ga 11.40538973738752 6.643870010218493 13.369486566072318
Ga 9.515399652615136 13.056931744258712 12.745926917634431
Ga 7.571056004421298 10.800621084984696 13.01228091747232
Ga 9.382368539977636 11.275879160765703 15.005439893573604
Ga 9.700731037684845 8.897763649366137 13.634287655363117
