5
Energy = -7.42055994 eV
Ga 11.764362558061997 11.659069647241019 12.427478826157095
Ga 9.960575483794956 10.516156743204558 11.097611092823373
Ga 7.975687329469155 9.362935859074227 9.81896161859776
Ga 13.58140905781893 12.653904325355104 13.853280406394282
Ga 15.430831200553397 13.728179283422383 15.41091402401883
