51
Energy = -134.4097954 eV
Ga 10.719109348405997 9.698133480392555 17.978674378113443
Ga 9.49458219071932 11.476281276861924 16.099010191274512
Ga 8.210537911653631 13.567850126726409 14.664461907409759
Ga 12.295995199773115 11.602548556541887 16.494616541347003
Ga 7.152267673549116 15.773128288051629 13.206358808398054
Ga 10.986810583070337 13.36289630536248 14.833056519568283
Ga 9.985971393153823 15.446064526905342 13.290115029792405
Ga 13.854351360290147 13.411663638461315 15.075316560452167
Ga 9.484033441681095 8.657250064656749 15.572332885165146
Ga 12.286502895439806 8.841884131778732 15.815804590904326
Ga 12.601619900835429 15.605253163145699 13.915361979524794
Ga 7.7137558929694165 10.775789363112503 14.060591528834316
Ga 6.926411435854141 12.946087692924838 12.21939954635341
Ga 10.850745724626721 10.38087441328786 13.800093112496254
Ga 13.562577916967355 10.7505676761496 14.196614384967619
Ga 8.50178132255963 14.918157923960212 11.012467690701442
Ga 9.583961710267214 12.383010304049074 12.379158461304614
Ga 15.905921193971235 12.188604966477442 13.692232689138175
Ga 14.180882112406355 7.954771551580416 14.114413483784062
Ga 12.15580578067531 13.233232604321707 12.41408920798908
Ga 8.83070090211238 8.457547172478167 12.928946274840897
Ga 11.578952998823599 15.603701665136903 11.02223687873354
Ga 11.181174087920851 7.149795136498776 13.922150003964703
Ga 7.2995038845377405 10.366476500944849 11.30876336258985
Ga 14.781561335254326 14.73099462305848 12.48904154200185
Ga 10.260129657883038 10.154470626116678 10.997170040929014
Ga 12.50607008640967 15.9429802600107 8.44421532578584
Ga 16.272487416599752 12.77332095143712 10.96023590845531
Ga 10.89953870962366 12.761163411926711 10.043154370414166
Ga 15.86163194465752 9.607029553783155 12.835851275449427
Ga 9.780415165362777 14.934806388153588 8.746167339735292
Ga 7.889595663269673 12.62760269588835 9.439441956396173
Ga 13.191990563807982 6.532576447919333 12.079720473709385
Ga 13.97546200856328 11.625083531624794 11.663859278665093
Ga 12.63102560576837 9.266680559748687 12.010126982617578
Ga 8.378388155179083 8.117735757840169 10.005818587115003
Ga 10.615132813808488 7.11724458655967 11.186295280537585
Ga 13.799734366546652 14.07362631896343 10.093028292361216
Ga 12.552759904194831 10.707829570780998 9.597533054593448
Ga 12.720246803741908 13.154844158173837 7.799822772498259
Ga 9.84015269632716 12.55799556043572 7.464640710893936
Ga 10.900747745011849 15.114478992001233 6.222545926982971
Ga 11.077841090607867 8.257598695781004 8.598351987924548
Ga 15.50412257958849 9.589612985745486 10.19176325934357
Ga 8.931212919423382 10.202524797909856 8.458466274162856
Ga 13.438160031214144 7.73639173815124 9.760304638807384
Ga 15.10926119069967 11.95408678459612 8.635589812616445
Ga 14.125893406857458 11.341278941604115 5.82010954465023
Ga 14.187673294538584 9.411786759352601 7.798428552745811
Ga 11.578441952924647 10.37748297757821 7.063529151491749
Ga 11.629292538182849 12.572363934610268 5.382835982697549
