55
Energy = -145.22213002 eV
Ga 8.410861614221085 11.444743937211559 10.726174239745145
Ga 17.69830380346338 14.470902573721865 12.64416393095173
Ga 15.010973216412822 10.55494897570942 15.113919692771075
Ga 11.347219142917353 7.812759362033462 12.549316026283782
Ga 15.70129197834535 14.570447268635872 14.775309041436785
Ga 11.525273225648409 11.557063003054546 17.15144151726627
Ga 13.463383852470805 12.70598573078801 10.56056032571756
Ga 13.11129599081888 15.83878791556619 17.12692961114581
Ga 15.73501737925393 9.833527545021962 12.439623575411513
Ga 11.037860536582183 12.34537155377088 12.0194490225
Ga 10.845740372363622 11.83272853368049 9.274138304003388
Ga 12.268595555255441 11.001915799928884 14.155939149990026
Ga 8.803530269515083 14.160823911028382 15.570945175596576
Ga 8.373238865964693 12.938295963634035 13.054499311305731
Ga 9.626698413081035 11.397347989510877 15.2448504053912
Ga 13.560405194622083 17.55338521793475 11.224832302628487
Ga 10.986368316968715 16.781217039822394 10.269755710139735
Ga 16.89376668405653 14.865926266022209 10.057958454984412
Ga 11.423864420734944 17.627764189853885 13.059512025089006
Ga 13.677497102907095 8.532008067385076 13.700846664030372
Ga 14.849859306792471 14.992229097816628 12.210478740594402
Ga 12.936552373695857 9.209925670474817 16.37231788754408
Ga 10.58815873158492 8.636240447544873 15.088744625398675
Ga 13.126189883366848 15.601290034172822 14.375387054177525
Ga 17.337443114402426 11.52679116161317 13.751802407789203
Ga 16.403235126731804 12.406697819377746 11.198375377959877
Ga 10.518969855459154 16.39997525493352 15.580050494883622
Ga 13.61418724155448 13.155546991476703 15.828860510442329
Ga 14.452498154343298 12.400618788667133 13.148050196693562
Ga 14.385513610997771 11.04718006583325 17.8092101926448
Ga 10.953425752418918 14.185990272573061 17.371884230276233
Ga 11.236699394267669 13.725675589969866 14.386473464540058
Ga 18.536339892374635 13.585851304206756 15.080818893945624
Ga 17.330438882436273 16.928090536085598 13.932814362144091
Ga 16.3771315118141 17.22902820239251 11.355673580745659
Ga 15.726593892789538 14.736161810599127 17.801731220993688
Ga 15.342714721397833 17.226701621032465 16.24256694121759
Ga 14.67867112603944 17.72794130370537 13.634788882745777
Ga 11.741425947142393 14.347270351106461 9.019529007762195
Ga 12.770802829314711 10.202560826931085 11.527351800251367
Ga 12.694697966320055 18.26616326370198 15.676685720595257
Ga 12.750480936514618 9.877117213514348 8.535995150057806
Ga 9.694547721693155 10.080636395329508 12.854507211388093
Ga 16.475700641257614 12.383032042448871 16.564114959550924
Ga 15.01543031180472 10.424123220344558 9.85784244892515
Ga 14.123611298921668 15.59191181163269 9.426595911992656
Ga 13.43037568788801 13.478556318333663 18.638695180281537
Ga 13.108396498819026 12.441437218552405 7.5620434694754595
Ga 12.085603807233493 14.901728216982473 11.975836745582384
Ga 17.702300716397616 15.831420067761146 16.318874373375266
Ga 15.588285600693757 12.971621799187748 8.588870108236064
Ga 9.322258281677644 15.771633830531007 12.99166746355175
Ga 10.163613251078825 9.340815249101135 10.215403063311152
Ga 12.446149233867752 7.766054344991119 10.111857069104499
Ga 9.420134873614556 14.20565512507013 10.673560877744578
