5
Energy = -9.36266896 eV
Ga 6.904726262894441 6.5721962206662905 9.40075133127506
Ga 9.14267644282653 7.251324625244513 8.566308782766786
Ga 8.621968652839485 9.734012881805144 8.829073378479164
Ga 7.48909193334084 6.856782889159609 6.573395236926862
Ga 7.666145401118776 9.410292076144861 6.455079963572429
