52
Energy = -136.94806316 eV
Ga 17.505737220627385 9.987895862807438 14.56833336358298
Ga 16.372949593171196 11.74451804019171 12.686024187976274
Ga 16.551237473202157 8.977375177108348 12.071843234242559
Ga 15.42404680492499 11.59453273593993 15.308031373902844
Ga 15.702286214982493 13.353751747379935 10.790834106633946
Ga 15.513831655168817 10.347542333699998 10.124156516640033
Ga 15.32943775732165 8.22967417341845 14.820639069630172
Ga 15.027073653074895 12.267742158688092 8.450784033325847
Ga 14.773663643008284 6.884850390618728 12.391130486288388
Ga 13.904970539783879 12.846671058879814 13.279481092182326
Ga 14.778419485059127 15.357661039476248 9.250955600831173
Ga 14.406439650007101 14.14629900421194 6.486143210308847
Ga 13.363762099160365 8.50405216245854 10.635109526444298
Ga 14.104551159503433 10.04942989131902 12.975806028799306
Ga 13.291880446458432 13.08646712344741 16.03326210506317
Ga 12.674737329389288 7.67369133006861 13.985175228582483
Ga 12.806232025119673 10.030967535010026 8.564717769265403
Ga 13.162297159071578 11.766801024463541 10.844765769908285
Ga 13.36757509449521 14.789111546867058 11.599213724638933
Ga 11.219706259714675 11.249727829271478 16.398217050866386
Ga 13.083451122665243 11.63417407873606 6.486770877544529
Ga 12.597555029436297 16.158778361005986 7.510149249335697
Ga 13.360457628692458 9.745507899624915 15.89364191319244
Ga 12.648876518698149 13.543292609962979 8.725764274522513
Ga 12.664017740727589 15.129518345675143 14.479654645469786
Ga 12.077905473552821 6.238688974319244 11.575450722843645
Ga 10.923410497586623 13.354447676448343 10.99978964689813
Ga 11.492081968243879 13.89304486324748 5.93886386399184
Ga 11.175692384184227 12.951828061690067 13.793109135923467
Ga 10.4489014878868 13.91770170132449 16.42631657523276
Ga 11.55830956416885 10.460833811731595 13.569349936606681
Ga 10.678036026335219 8.508318600910284 15.562039086515732
Ga 10.761796603953355 15.858276059267613 12.605903274126852
Ga 10.547685491856402 11.83184203451516 7.636068200857296
Ga 10.431637541478832 7.872289999218451 9.504075019916861
Ga 11.736870305878233 16.208083792860034 10.043277205287108
Ga 10.737588545431175 10.573926006652378 10.338113954929824
Ga 9.124712688472231 11.59007063493163 12.275799577480479
Ga 8.948239144567824 11.729622276769632 15.110784504473195
Ga 10.568802736268767 8.332764887338582 12.298108353226466
Ga 8.955596838370505 15.425199606560854 10.59414525389076
Ga 8.743724627422893 9.970852246986167 8.33682852611607
Ga 10.165603206453243 14.647782330430566 8.271343022632628
Ga 8.865279107882394 14.451973782132377 13.941824083974346
Ga 8.6582527533691 9.270678062339805 13.998202728319242
Ga 7.189183329172255 13.650003023508134 11.552642507185373
Ga 8.300189226423159 8.840579144305611 10.949528262004284
Ga 8.757350864284621 12.717940799892904 9.427659066948264
Ga 6.54272818776479 10.013965618025939 12.657875759367165
Ga 6.694682311704199 12.524705273133314 14.015291845758446
Ga 6.7973699411316915 11.113773247254377 10.189278403732482
Ga 4.8551712709642265 12.110625087395329 12.001500459717779
