5
Energy = -9.32933013 eV
Ga 9.92407775727077 7.746815192837059 7.307355294262587
Ga 10.441444686404848 9.292252773783776 9.223011935371828
Ga 7.520925084931756 7.8456488266240925 7.975670371620729
Ga 12.545473676385274 8.16596609438076 7.970233943817261
Ga 8.042886966189176 9.422928060505884 9.90064588167423
