50
Energy = -131.47073882 eV
Ga 9.230847082783791 9.839346353203796 4.770119237279516
Ga 9.96635158234084 7.094630051676814 5.422459824628756
Ga 11.934907600875377 9.120578573016196 5.459684693233085
Ga 10.555819006821823 11.094381443703902 6.953478744472238
Ga 13.304358299648117 11.50512704584857 6.402510662118229
Ga 5.429924086322806 8.223608508031655 7.335517247964518
Ga 7.7761281771111115 6.895562024175509 6.950125751802045
Ga 8.496636368503225 12.509991702371288 5.917829582854393
Ga 9.923893331747628 8.377844217097811 7.801834953980391
Ga 7.483607771551151 10.07588040445482 6.872649017549481
Ga 14.577177566546455 8.322354333840519 6.387503550445123
Ga 12.393764289873268 6.6685669215829 7.056302599863853
Ga 11.925656340292335 13.482580011632571 7.919390934986845
Ga 6.90386430356376 12.709544298899187 8.178898268397665
Ga 4.5803996705457966 8.304775317427334 10.024866521075351
Ga 12.440259963694858 9.454741043979059 8.129565455426087
Ga 14.167516948573843 11.475783627210458 9.106061196051561
Ga 7.492237612124934 8.885789525257486 9.42684759507596
Ga 9.93347546177434 5.290195691832893 8.139948577992559
Ga 8.643539896716659 14.868656969228914 7.834356376479906
Ga 5.405062047838161 10.67554531072895 8.759210882384814
Ga 6.597404529659607 6.308387156597041 9.3918360295212
Ga 9.614330884277715 12.438376303639158 8.993529384467893
Ga 11.694393262688376 6.85842863347399 9.669453746592298
Ga 14.390004670801805 7.870866459724333 9.142917524283046
Ga 12.750220680141416 9.79618887086745 10.671950819588902
Ga 6.829898418741923 7.435866519973594 11.845207651247497
Ga 7.780796730339937 11.241272604929346 10.475714972263969
Ga 3.2665617734643417 10.655895480497238 10.71285992474746
Ga 11.930444925594472 12.539325430316545 10.603578197997878
Ga 15.537335859786891 9.465531253717769 11.272227957208491
Ga 10.499942875660352 14.900573343483424 10.032357952911436
Ga 10.109159076315038 9.972131413484624 9.895459413704165
Ga 5.252550924162489 12.7789741554473 10.685769622959915
Ga 7.795974869324564 14.023861333693539 10.51857222822823
Ga 14.18332283333136 11.934608506970699 11.991355192766548
Ga 5.7814212186657805 10.003120462127894 11.944046606720425
Ga 9.664371993608938 13.02566508165807 12.267324409445802
Ga 9.110321540541365 6.768533486058099 10.489888603407199
Ga 8.802833734346725 10.226817895746272 12.798158656945589
Ga 10.946394547659132 8.548868183656827 12.016613342134724
Ga 13.42035026766479 9.45852750054971 13.259290281870044
Ga 13.54396471071293 7.123884569052033 11.696990366083334
Ga 9.03782230492642 7.479237700600625 13.526377577816428
Ga 7.003273377423964 12.39770500209812 12.991563768674785
Ga 11.555196718196681 11.474132175726956 13.244167730259658
Ga 11.048726425441762 5.601987333654076 12.1370525650588
Ga 6.796837277927747 8.840413055052874 14.330778887441172
Ga 10.84806590120131 9.440666184297228 14.833296805449313
Ga 12.20088820864587 7.072908478208897 14.270736056647042
