55
Energy = -142.15456279 eV
Ga 12.303672591195147 12.303672591195147 12.303672591195147
Ga 12.303672591195147 13.770741359023408 14.674334537421403
Ga 12.303672591195147 13.770741359023408 9.93301064496889
Ga 12.303672591195147 10.836603823367062 14.674334537421403
Ga 12.303672591195147 10.836603823367062 9.93301064496889
Ga 13.770741359023408 14.674334537421403 12.303672591195147
Ga 10.836603823367062 14.674334537421403 12.303672591195147
Ga 13.770741359023408 9.93301064496889 12.303672591195147
Ga 10.836603823367062 9.93301064496889 12.303672591195147
Ga 14.674334537421403 12.303672591195147 13.770741359023408
Ga 14.674334537421403 12.303672591195147 10.836603823367062
Ga 9.93301064496889 12.303672591195147 13.770741359023408
Ga 9.93301064496889 12.303672591195147 10.836603823367062
Ga 7.535104736553136 12.303672591195147 9.35199259266619
Ga 12.303672591195147 15.25535187319086 17.07224044583716
Ga 12.303672591195147 15.25535187319086 7.535104736553136
Ga 12.303672591195147 9.35199259266619 17.07224044583716
Ga 12.303672591195147 9.35199259266619 7.535104736553136
Ga 15.25535187319086 17.07224044583716 12.303672591195147
Ga 9.35199259266619 17.07224044583716 12.303672591195147
Ga 15.255351873190863 7.535104736553136 12.303672591195147
Ga 9.35199259266619 7.535104736553136 12.303672591195147
Ga 17.07224044583716 12.303672591195147 15.25535187319086
Ga 17.07224044583716 12.303672591195147 9.35199259266619
Ga 7.535104736553136 12.303672591195147 15.25535187319086
Ga 12.303672591195147 17.22029143367281 12.303672591195147
Ga 12.303672591195147 7.387053032184059 12.303672591195147
Ga 7.387053032184059 12.303672591195147 12.303672591195147
Ga 17.22029143367281 12.303672591195147 12.303672591195147
Ga 12.303672591195147 12.303672591195147 7.387053032184059
Ga 12.303672591195147 12.303672591195147 17.22029143367281
Ga 13.824611496141669 8.322976443150727 14.7614502047813
Ga 10.78273296971502 8.322976443150727 14.7614502047813
Ga 13.824611496141669 8.322976443150727 9.845894977608992
Ga 10.78273296971502 8.322976443150727 9.845894977608992
Ga 16.284368739239746 9.845894977608992 10.78273296971502
Ga 16.284368739239746 9.845894977608992 13.824611496141669
Ga 8.322976443150727 9.845894977608992 10.78273296971502
Ga 8.322976443150727 9.845894977608992 13.824611496141669
Ga 13.824611496141669 16.284368739239746 9.845894977608992
Ga 13.824611496141669 16.284368739239746 14.7614502047813
Ga 10.78273296971502 16.284368739239746 9.845894977608992
Ga 10.78273296971502 16.284368739239746 14.7614502047813
Ga 9.845894977608992 13.824611496141669 8.322976443150727
Ga 14.7614502047813 13.824611496141669 8.322976443150727
Ga 9.845894977608992 10.78273296971502 8.322976443150727
Ga 14.7614502047813 10.78273296971502 8.322976443150727
Ga 8.322976443150727 14.7614502047813 13.824611496141669
Ga 8.322976443150727 14.7614502047813 10.78273296971502
Ga 9.845894977608992 10.78273296971502 16.284368739239746
Ga 14.7614502047813 10.78273296971502 16.284368739239746
Ga 14.7614502047813 13.824611496141669 16.284368739239746
Ga 9.845894977608992 13.824611496141669 16.284368739239746
Ga 16.284368739239746 14.7614502047813 10.78273296971502
Ga 16.284368739239746 14.7614502047813 13.824611496141669
