50
Energy = -132.00607058 eV
Ga 10.900837770946632 10.163550418198222 5.473800656875535
Ga 8.332820758546601 11.117040409849203 5.596979336905339
Ga 9.865802517270772 7.691853473137566 6.1919223486496815
Ga 10.748294845484022 12.822720512192161 6.280918836889419
Ga 6.413369384759267 10.842714028305709 7.5614332605516426
Ga 7.32696163924971 8.597129642831568 6.4956376060598355
Ga 13.179659484996197 5.753820418071732 7.250475488442652
Ga 12.672392397550626 8.251314515339123 6.120288241567556
Ga 8.306848664748017 12.871398691073837 7.824194504724583
Ga 12.615433910845564 10.817456666241846 7.545723038465587
Ga 8.546417853647625 6.759382433317331 8.499139739543995
Ga 10.452626741737166 5.253348935677482 7.510083208029355
Ga 9.609023529643455 9.996287955271077 8.046859041704494
Ga 13.6801951925501 12.8275316213093 8.94345760787343
Ga 12.136260288682596 14.719835865494533 7.891711058590462
Ga 9.734495404150422 14.98326726680152 8.987133980391745
Ga 5.676446130860357 12.590939884110922 9.441891095876901
Ga 7.544960184634948 9.363131104922276 9.760480019453343
Ga 4.639219052478723 9.850062050476476 9.342054371542204
Ga 10.74172244333997 12.234387355324852 9.124804392243865
Ga 11.282913481750478 7.66700770337392 8.727370666677013
Ga 5.941526080944055 7.464800534473861 8.565533806794525
Ga 14.094468816422216 8.701212099574311 8.442393489344113
Ga 12.010763894880078 4.362910477939174 9.70396566100294
Ga 13.793062805246166 6.352744197588066 9.86273985087537
Ga 4.897757110397731 7.741227495160935 11.224669432232242
Ga 12.1875486898934 9.829349473716942 10.137235051243573
Ga 15.027655657359867 8.208154440467489 11.28359330950214
Ga 14.859956464932207 10.782979758324679 10.20141463732568
Ga 8.40431586322447 11.883014074672815 10.551400829838993
Ga 9.899949348353882 5.663557917042065 10.640939679345314
Ga 13.419076660776767 12.212186767042207 12.191129608944847
Ga 12.02009348636743 14.10494136586267 10.757406960294123
Ga 7.233319913412071 14.648849942860478 10.027575888078214
Ga 7.321793698490929 6.46642599419897 10.894414507894231
Ga 9.811226158506896 8.682059348300067 10.98764518445269
Ga 12.049352892665565 7.064548144287429 11.786736397189399
Ga 6.020828502964189 10.86145017717031 11.585935821045783
Ga 10.718336890786535 11.276817894904898 11.815006092652546
Ga 9.383103507205021 6.8287909371054205 13.111641338919325
Ga 13.292156864960585 9.624876415176614 12.705277958492093
Ga 6.73629275722256 13.45316357227421 12.489283061799139
Ga 11.502619449953768 13.658648268959412 13.467533155387121
Ga 7.139692774776492 8.621033175921664 12.654049745047836
Ga 11.525190966288251 8.173662092456716 14.225944139789853
Ga 9.469438546192753 14.240174764754398 11.702343221811411
Ga 6.750622840586935 10.865453040857618 14.302501553528918
Ga 9.358210410266752 9.649191207282987 13.69692590032889
Ga 9.003999549461586 12.353178347618359 13.732694497381988
Ga 11.68090274283944 11.010382145936717 14.595675741649222
