50
Energy = -131.521178 eV
Ga 12.154292729348782 7.879586754115789 3.799373813722831
Ga 6.786917091341303 7.586200727877985 4.104213749885987
Ga 9.429803848375343 7.291917413158155 4.251203139326289
Ga 11.152660805044095 5.166656858899902 4.904000747205729
Ga 13.599311737719027 6.18111442430972 5.923107346750648
Ga 10.723635649541214 9.946810185511856 5.058439259932403
Ga 13.7217053696643 9.09234433005152 6.166729194445351
Ga 6.203994723740744 5.584760257103635 5.922512696515272
Ga 6.823630202361121 10.150566329607141 4.824564931200194
Ga 8.746098301281688 12.066141248322353 4.698581290928985
Ga 11.192115546294088 7.655975315807381 6.4817572511127866
Ga 5.3245102384494265 8.26649832904727 6.344093177937328
Ga 11.266629156181972 12.536268258049546 5.895037428243992
Ga 11.747630116391015 5.22836002678223 7.767372511774252
Ga 4.163061240555442 6.275809714737621 7.724811967098844
Ga 8.539176097947683 8.281406917780089 6.537231875577734
Ga 4.492143130912999 10.900845956787217 6.562838688058737
Ga 6.75682775365773 12.588305816771278 6.669945048406026
Ga 9.006109570288537 5.32784670435781 6.459797329612891
Ga 12.787759302172974 8.082940717149919 8.66832024003547
Ga 9.267239774969733 11.003040382158689 7.238313473269733
Ga 12.170591822962507 10.689333923461636 7.664343471240902
Ga 7.182678474829672 3.939135418350853 8.015320811253176
Ga 9.137473028607431 13.916898290604383 7.127265650673702
Ga 6.969736852168794 9.941324803278585 7.750633347654024
Ga 5.280665829019056 11.93330406591511 9.10884500704894
Ga 6.186076226987303 7.680654032965207 10.866393979915175
Ga 10.009137069656976 7.031333618471391 8.889457185926233
Ga 10.820603086660018 12.55492645530793 9.258925738680858
Ga 5.553634258457348 4.984604739986476 9.819168550791126
Ga 7.080696084114417 6.892024513969506 8.332148475549161
Ga 10.263050294795084 9.76900937393811 9.383189100049416
Ga 8.113652989432424 12.604115779502933 9.39945219030114
Ga 4.585299663187168 8.983977380062438 8.880994155738952
Ga 9.72421214598424 4.1568721486035365 9.045753330257945
Ga 7.160887135728693 10.09618544248495 10.297765420860774
Ga 8.096188995663905 5.364016413744155 10.779483054656831
Ga 3.482401339900539 6.853362249275538 10.525004877590087
Ga 11.893728508251465 8.683981497518506 11.28490067325273
Ga 5.783596925058891 5.369276238567201 12.487969498370381
Ga 8.847451946319788 8.22455120230939 10.929409880195927
Ga 6.666384498869028 12.362230754685488 11.731040981895957
Ga 12.663654711389809 5.94092437250759 10.321308858061249
Ga 9.455297687226247 11.189571688972654 11.710169173357203
Ga 4.54700000259962 10.123682385642159 11.40978291661142
Ga 10.39733950255859 6.1457708521330305 11.903588475822742
Ga 4.885960870536032 7.88366812277251 13.346625904859252
Ga 8.03532509732161 6.92789717774322 13.270306696045223
Ga 10.054236148469288 8.973780917651608 13.437481026144697
Ga 7.088809022573179 9.71121207675622 13.042049011719211
