53
Energy = -139.7595008 eV
Ga 13.177378337710325 13.460051568591327 14.961969539680613
Ga 10.882484643042284 11.982268190708725 14.982408149222184
Ga 13.68940680872243 10.820640127809048 15.189926323756582
Ga 13.687014526532746 8.134200554051617 15.629034853236611
Ga 8.785176607543075 10.226074889404822 15.187337391142922
Ga 10.642457221246547 14.642368461243752 13.69728498131327
Ga 11.362518331979535 9.331931948527487 14.698130265481419
Ga 8.710657405416642 12.592130419594534 13.524908597786514
Ga 13.07081679049084 14.353703604886622 12.463642189266187
Ga 12.740485563598606 11.541815210260246 12.653699175170004
Ga 13.640666341356987 8.774298200986424 12.907408322254764
Ga 11.049538479055132 15.70023087302678 11.086209791499979
Ga 11.765223639395442 6.460473270683013 14.625895241314144
Ga 10.006740016529834 10.2802289104255 12.49297038503655
Ga 6.511240601647451 10.878819210554253 13.741393327476857
Ga 8.46134558451089 14.822625612303076 11.955456836662968
Ga 7.345676228686017 8.670056701839693 12.551537854329442
Ga 6.185504427874587 13.24720086561572 12.412041113187644
Ga 10.58660202610864 12.79646286996073 11.182562236359047
Ga 13.565544359786275 12.742213628625963 10.42080028202204
Ga 14.607729137580428 10.089910227763047 10.676967408087265
Ga 9.266810254657441 7.7214855120492984 14.084795213478289
Ga 13.69759225256775 15.723633685490073 10.120958432221144
Ga 7.71113380470937 11.096805208343373 11.148974755293336
Ga 14.123135709571491 7.362559712302018 10.44691598842836
Ga 9.978067909874634 5.25698627771561 12.981261267143061
Ga 6.850451752022356 13.327557634449054 9.713099598166034
Ga 14.307210928477437 14.095192511023923 8.027937082706153
Ga 11.85200546289809 9.343894616694147 10.808737061344385
Ga 12.072489210755684 6.615924900452566 11.872676794427324
Ga 11.667113374558253 14.274184778136531 8.816257934923687
Ga 14.65787761911127 11.299246947969356 8.268959556947312
Ga 9.71385301465808 7.781235393682788 11.143858874948151
Ga 9.073798048548642 14.947878235290519 9.266931132548475
Ga 9.128599926390265 11.841420520357504 9.045637946865147
Ga 11.808678184641568 11.34066085667598 8.758123167246104
Ga 5.874995410476002 10.85706553739253 8.814248165816839
Ga 13.170610221871051 8.849346164161092 8.399825545368163
Ga 7.533580100776099 6.194813273109463 11.47920806216731
Ga 14.795068801207812 12.392120738190025 5.7466326485548525
Ga 9.879772023166467 9.231225539367276 8.788137595530625
Ga 7.294255827597634 8.735422418507497 9.73471696373271
Ga 10.058545249093791 4.821666843195941 10.308739801614443
Ga 11.39755838887867 6.785662864905292 8.884314742325639
Ga 7.401030329488261 12.619281847934419 6.994783556509079
Ga 12.204488263551086 13.120354014287937 6.368846562093354
Ga 9.721149887757461 13.914151768218181 6.91802048835688
Ga 12.910729001318957 10.382174569528226 6.070211163586577
Ga 8.411696964553414 6.401278672457025 8.859138966476069
Ga 7.6335652947653685 9.872654230595574 6.92495424026727
Ga 11.304191968345213 8.303579888918227 6.4481940147158445
Ga 10.07476104116176 11.061974861486721 6.424385586208685
Ga 8.813142925443856 7.574800163552731 6.539593821266098
