53
Energy = -139.82384811 eV
Ga 10.298538246682467 10.267161764331917 16.099227404610893
Ga 10.72683110637179 5.745738330865695 12.714597880104108
Ga 8.045834127633672 7.1703530526151695 13.496856953061382
Ga 10.442847173016878 8.360487296150675 13.96067899174471
Ga 7.836879367683478 9.503908423335988 14.871038398616204
Ga 12.377005826979557 10.242673846122175 14.195335178523193
Ga 12.452395107395596 7.94796019733609 12.183209967056623
Ga 10.70792409254969 12.875355521483717 15.316286112198405
Ga 13.483496036721784 10.54932404797342 11.703162036721295
Ga 7.895126807557079 4.950973492190804 11.75084036088185
Ga 7.943265837777776 12.281424860953852 15.318339097306305
Ga 13.47184890456435 12.682432491048667 14.398981992419069
Ga 10.109979633305256 4.786466512231572 9.976684901214274
Ga 9.534359793900098 7.523686846134835 10.968092828420795
Ga 12.005330805334605 6.642319526527801 9.725940071364207
Ga 9.706925785424403 11.121199886245174 13.451201779670322
Ga 8.099785500843241 9.540466178387383 12.063934544415648
Ga 6.6204453267755135 7.43267876854643 11.046249361289206
Ga 6.940620504006764 12.030656736191652 12.600316739118835
Ga 13.652658753269531 14.473693157138328 12.352212986336214
Ga 14.538855107817673 7.706982568993482 10.273292408064243
Ga 15.460032570430272 10.590487831824632 9.963275334517077
Ga 11.32230345519322 15.011821771907545 13.71485346122218
Ga 11.635953989687408 12.49394505596629 12.265079953543873
Ga 10.674965593351276 10.08580147407453 11.037530295310564
Ga 8.068888934041778 6.349294348894142 8.891936112239296
Ga 12.573484417361467 9.38364967682769 9.243435949261528
Ga 9.167247244085162 13.713401283028363 12.644795806141948
Ga 6.974070909619887 8.80776597247626 8.651449962335258
Ga 13.561644202512499 13.02524487517927 10.155379331968641
Ga 11.296373381556696 15.109234426974977 10.777008782763051
Ga 5.571770042401493 10.009710001272763 10.852827372216733
Ga 10.079733218199076 8.373790939729881 8.412412162958248
Ga 15.054887340861837 8.9321046021573 7.575332808405293
Ga 12.883008971852519 7.07916647042668 7.186271753678279
Ga 8.20188255133788 11.037534671396962 9.915935461317355
Ga 10.339069144821494 5.7159732315091585 7.208872270461115
Ga 10.504703810919557 8.041757620205816 5.671470114126643
Ga 10.347899679785879 12.625612949686381 9.908688549507525
Ga 7.8555971263986555 13.782325202648707 10.295903544958243
Ga 11.00057614265317 11.17086334964117 7.855962643063973
Ga 7.919303456645216 7.462847582286864 6.312450074625455
Ga 5.315360544551381 12.752648177462877 10.341420480036613
Ga 13.836545840177461 11.533063022128095 7.9349325946068126
Ga 5.952860390260856 11.218799022566529 8.105523714255852
Ga 12.059176525542552 13.839626475453668 8.064492393915156
Ga 9.604228114117117 15.209564221076395 8.554606489578326
Ga 12.682175962990703 9.69233235263973 6.204901288791409
Ga 8.589882274228803 10.204570899893753 7.0087107073083965
Ga 8.11645553052617 12.86393579430499 7.6446693290257075
Ga 10.327280435475867 10.803866860747437 5.069737482867361
Ga 12.695089653392039 12.419671425000232 5.6148980981537635
Ga 10.108068684925128 13.59636280599036 5.939702791624861
