5
Energy = -8.08646922 eV
Ga 9.546420544919984 10.874878072242245 9.484108324839449
Ga 9.685638869677913 8.881585345230889 10.969909547295828
Ga 11.265172752577516 10.88425128785621 11.402273397810838
Ga 13.024114989714151 12.018757110395569 12.682816456538347
Ga 14.93194218434065 13.33315340285779 13.988159846764784
