55
Energy = -144.37630227 eV
Ga 8.525579702295301 9.012372700405605 11.451390061223883
Ga 12.619767588435323 5.947880557878305 11.996181700261861
Ga 13.707172894185394 9.146356064716503 9.425380023290097
Ga 13.52817393218546 17.66640395127919 12.296665041261447
Ga 11.684395909885033 12.885089496881415 13.051659920974126
Ga 10.425665405223135 14.328063637415632 15.087670750610272
Ga 14.900323939569219 13.599619448476652 14.923962770302781
Ga 12.759366222795842 15.080320874457412 16.656585044355822
Ga 14.99746261687128 7.200575422001763 10.879664981938296
Ga 8.283486229013704 15.860569338383572 13.401994865865156
Ga 16.59792830001972 11.467581010814477 12.55262915977668
Ga 11.561391268567817 13.675529265074426 9.158277107091056
Ga 11.627399250041691 10.06231909244989 17.261709163058782
Ga 15.446661371757541 15.847333740583366 12.476750090607908
Ga 9.243884538761222 11.62966290036495 11.23102312050631
Ga 12.865117492500934 15.136396250369222 13.873466994494638
Ga 14.341539507495952 14.120827780987046 9.03760688542775
Ga 10.861051645999144 10.208199330581827 12.95403476405952
Ga 17.17111466529931 13.98469789484223 13.454089297902332
Ga 15.860803906994084 8.951567991604826 12.983413184393498
Ga 14.359046484720915 7.0780740698373705 14.040139232443241
Ga 9.187289303045318 16.89714149987098 10.834659457936667
Ga 17.99688952577964 11.584545521940015 10.147702510972819
Ga 12.77178144913877 8.943440411042682 14.931331718303529
Ga 7.234614378879805 14.993938609653487 10.675826450021836
Ga 10.00940508583748 16.927772015567054 15.349204033661456
Ga 10.051889364144914 8.956524488117926 15.277800999592111
Ga 13.080643846759974 8.821625003125739 12.119407723803521
Ga 13.016939749513094 11.910180454354887 15.69037138797025
Ga 10.590184223505975 7.4676391145443475 12.657036382867375
Ga 11.280568820561944 12.833913417549793 17.592886902310223
Ga 14.996886455306196 16.348629095921694 15.280697547132288
Ga 13.203119460278254 11.678023194625638 8.15576614124761
Ga 16.582443695336426 13.991547810838746 10.549855320017128
Ga 15.051173813112415 4.960737240408794 12.446106211418691
Ga 16.493274614645397 9.331861898399792 10.221639729731024
Ga 9.995009580785053 14.285393270308536 11.393058847667126
Ga 12.389738051232005 11.401340350992808 10.867603027431079
Ga 9.79826259028981 15.730435406158477 8.338039884791323
Ga 8.752866367401998 13.251882313399344 9.059332859200325
Ga 10.126445410361871 11.678181795430525 15.381148016137734
Ga 10.947672545119392 8.890464033862974 10.188631248045168
Ga 11.76661223511712 9.201527958305329 7.490364838247096
Ga 12.557306546645101 15.238091433085986 11.11007404618559
Ga 12.584101765609603 17.770752960004742 14.92359493949844
Ga 14.080394794160226 11.038579908947094 13.477129354841585
Ga 14.351077046545232 13.337037918363054 12.097335560996358
Ga 10.907431744605313 16.74104284279182 12.816083932126368
Ga 10.40120039185451 11.244886689608137 8.608802389226128
Ga 12.67525136791955 16.146653238652945 8.33024842604522
Ga 11.664262416313179 17.85116740777395 10.214031276476405
Ga 15.080404580879117 11.615472571165139 10.035384533119917
Ga 8.107799019548041 10.612341808134266 13.733211066464591
Ga 8.442781338581542 13.216140760371006 13.509551991791055
Ga 8.04223955584158 7.796940744552386 13.887081092150577
