55
Energy = -144.62861009 eV
Ga 14.010845173542302 15.104148177140257 7.835916744959331
Ga 13.359896847260478 17.615328376537395 6.850509652087506
Ga 11.725698351639744 13.386817091793148 8.22719670517017
Ga 10.422100841015322 15.399033595196766 10.086728248925883
Ga 15.230098880257628 17.64011165325042 8.874094311948904
Ga 16.02202024278444 15.19920933231189 9.609749762706498
Ga 12.504537837560651 10.809646446861723 8.51961111164937
Ga 11.179696252352384 10.176591113714153 10.834890324885583
Ga 11.80467484629195 17.544107257698865 12.010278074181068
Ga 9.991398378541998 12.739413055813134 10.393676098914897
Ga 12.913988391207667 7.745922153397313 12.27403026369613
Ga 13.921754334403845 9.350250605120847 10.365740873484972
Ga 14.547625129301442 12.661168819537398 8.988981794307426
Ga 11.312543352436636 16.01933772744001 7.675277890579897
Ga 16.866828882122434 12.694875460757693 10.437456706817521
Ga 13.208913740482613 15.069341251729302 10.504742149818679
Ga 11.08160985127658 13.44303795160567 13.115125441096522
Ga 8.022609097547477 13.932159825934656 12.443109318004124
Ga 14.907243712482654 17.328418163084763 11.534238462891008
Ga 15.940425287970102 10.453662747744941 11.729634337222658
Ga 13.096625570144772 10.591648886589613 13.04343443318506
Ga 9.895697844538304 15.884961031638998 12.63246360171617
Ga 12.651286586075072 12.438873371786135 10.99934699873553
Ga 17.941983898185775 12.601130029717861 12.959643470776054
Ga 8.390052771296771 10.062596098863283 14.996131305194012
Ga 16.70279416133738 15.093142050871636 12.130988614710008
Ga 12.531304934459625 17.626378167706147 9.552949413033351
Ga 18.41261903892177 15.231097161056264 14.269314098804882
Ga 14.83989316877196 13.002773740563415 12.33195676291829
Ga 13.51523329789865 18.013470500216034 14.045242500080635
Ga 10.378602349875347 9.01847390752676 13.096186204161278
Ga 16.252340138712377 17.111840023571126 14.105995454041093
Ga 13.318066908380326 13.008264186987393 14.80633719062514
Ga 8.528282697633319 7.385134886848924 14.49753124600919
Ga 9.143656866076968 11.329160599367553 12.499268019939143
Ga 13.77634371656198 15.307193961747362 13.129991334706126
Ga 16.049162362009266 11.186356121991473 14.371354437688613
Ga 8.968067077835856 15.379239870953002 15.119790969243514
Ga 11.031603565295189 6.4816107799849 13.682077455355317
Ga 15.913035880203113 14.36560136205828 14.978046856820404
Ga 15.140877915207328 8.654452022161173 13.625252383112969
Ga 11.694807370516399 15.675619109475674 14.876948950793992
Ga 11.240420043082915 11.089672569631695 14.897022558475516
Ga 14.255240323332657 16.247177364237007 15.898990385838236
Ga 8.811993879969233 12.668113209330667 14.855018058087449
Ga 14.234505638440817 10.145368993460822 15.90246329130532
Ga 17.892139784661975 12.658942905153001 15.795539963855132
Ga 12.644881794544132 8.275010685431745 15.135289155350137
Ga 13.180570565737327 14.350214420586994 17.335724519794905
Ga 10.297784994769376 8.738489124196912 16.47359839207448
Ga 15.301412693027245 12.469073101527924 16.916278072715457
Ga 11.077286726374416 6.239291498117476 16.44323115792811
Ga 10.71030007524571 13.7345536319785 16.60973056492536
Ga 9.906745052605544 11.268611508650215 17.342501433307145
Ga 12.599540088173216 11.653551519725095 17.63304168172472
