54
Energy = -141.22417327 eV
Ga 14.714670062852875 10.432752436503428 13.262717928685776
Ga 13.05416674221807 17.205884424775327 15.94707578784055
Ga 6.900836538548723 12.661161235112594 10.837589888494511
Ga 9.361906067565107 12.812875700726654 12.197266834955348
Ga 12.360396723344056 7.108052378874111 9.983538498710583
Ga 7.418639090800897 14.67442540192366 12.85580544001218
Ga 15.709309201688109 9.840350578192979 10.84451055252904
Ga 13.179440533845039 17.593908127418423 11.267034763581831
Ga 15.408141358241418 15.854108472234655 10.891889202472921
Ga 9.963307132670458 15.479438140123587 12.88485881488276
Ga 15.744734581561037 11.005008438462635 8.373392481778598
Ga 13.83097299059835 12.067214448438909 11.147617566213585
Ga 12.852876032711759 15.131376814996953 12.442616565979886
Ga 13.113843531202713 12.740713044355632 16.579101268271582
Ga 11.360166718815025 10.501591006388349 17.12066291398911
Ga 8.764564239545248 10.968851441701073 16.005266085660768
Ga 15.370584403004584 14.790745829269312 13.547551022916828
Ga 11.536707208970617 11.321647525435917 12.086759323176933
Ga 14.407375576188343 17.403020090580597 13.723401700611038
Ga 14.107763013675568 16.902336032173615 18.35518371802971
Ga 8.936644806985932 13.155746294484482 9.104899783076915
Ga 15.873621201033604 12.654814510650056 15.347837242336086
Ga 14.023370215818018 7.995800478538827 14.69154830801916
Ga 8.784945248249857 10.558138374565281 7.983953655516144
Ga 11.62918811644555 14.8839350221821 15.08961876903291
Ga 13.34866248736898 12.932834901589747 13.822616005630488
Ga 16.75309290858791 10.07944025574389 15.191262311953984
Ga 10.71948291301733 8.817662667089385 8.700490575871845
Ga 11.235778352131966 13.872285725394704 10.770541579931466
Ga 11.054328978309435 12.027968108970882 14.661161781656272
Ga 15.769447178087056 13.473305859915488 9.92013247680288
Ga 14.754380802764391 14.92187325134375 16.306855111164
Ga 11.235404217692881 11.4325696664231 9.218298044921927
Ga 17.84609016423314 11.691151704055827 10.06103504817356
Ga 8.8921293488261 13.878189077002551 15.006946966663618
Ga 10.776135044157403 8.70401227544974 11.58442433450295
Ga 7.108326944649876 12.007115945962823 13.735193865784918
Ga 13.26514273226915 15.12363071144988 9.53838869871067
Ga 13.883946095152004 10.379419351600308 15.88836589702823
Ga 9.136623446230521 10.053690051203812 13.3474740220613
Ga 15.489337304017386 18.8574716679951 11.14808426291925
Ga 16.313484589663304 12.591996225326934 12.475983024297362
Ga 16.856403984241908 17.155752780954753 12.667893897309469
Ga 13.54269617002565 8.332579162782501 11.9820032517279
Ga 16.367718308032117 7.895114566220973 13.135930751653001
Ga 17.806970108211964 10.324049463314244 12.586325077078978
Ga 11.302643065296248 14.038235640950646 7.954481510843869
Ga 12.350688540622462 14.872141926586117 17.913231303877993
Ga 11.59459967537429 17.42235600741364 13.629342703265648
Ga 8.789462302339901 10.47464490072947 10.699030575785933
Ga 13.535370057111368 12.496406462580584 8.383919520452832
Ga 11.731639963688066 9.360923702405072 14.161165834421997
Ga 13.413264382048688 9.693418160208454 9.40643849503353
Ga 10.257495589085092 13.20542808124335 17.159500562056667
