51
Energy = -133.94248366 eV
Ga 13.216668443972859 6.448944479238972 9.322544032059849
Ga 14.317330627012353 8.813615775774869 8.44586690950556
Ga 12.908111935885165 5.2858513743897735 11.9642949128945
Ga 14.419853860657778 7.970443316265379 11.333879897494171
Ga 11.457320095150626 7.863223940520893 7.769422605573695
Ga 9.25177928171163 6.180354853077554 7.910019229203761
Ga 10.65163069047133 6.426380122048221 10.251017519984524
Ga 11.300660126209829 9.891496084834213 5.9764522965080475
Ga 14.632484530557237 10.657515602960506 10.588774021041477
Ga 9.90938593020416 5.19738457577898 12.595451564568004
Ga 13.89870750685632 7.327927227185939 13.941369332273702
Ga 11.805602997354136 9.178483458918361 10.303609762583323
Ga 11.573083147618977 6.116367977310526 14.744419534418135
Ga 12.482975444319594 10.989072282575204 8.284266387072662
Ga 8.644894454656505 8.614768893585536 6.777878245210682
Ga 11.59289602923625 7.739878310616662 12.499810113538931
Ga 13.501731753703519 10.042278187686764 12.940528287391839
Ga 8.970188494877505 8.480855654712416 9.626217854317689
Ga 7.7554702074314585 5.849951984464906 10.483720874050254
Ga 6.609157319760635 7.220639143224074 8.281015968676734
Ga 8.823092935883938 10.861618483183952 5.130360078227421
Ga 15.161291415189087 11.49637288596727 8.043014011351397
Ga 10.69040760755005 12.662788445274668 6.380571490647306
Ga 9.661228443777162 10.697137401639894 8.282090417396434
Ga 9.594480298138649 8.138598059430484 14.77446617779659
Ga 8.736367730856486 7.683438907917516 12.301426149452347
Ga 6.675299608947837 9.903672131972895 8.797561022413358
Ga 12.051761493324724 9.345112105853007 15.118903773327514
Ga 14.289011540213588 12.659973340991776 12.750195859434411
Ga 13.07280327823568 13.751328687191206 7.398796555633202
Ga 11.128635136713623 13.070521667125094 9.36584751757747
Ga 8.299218888388635 14.276084852943974 6.661185181695702
Ga 8.605175921493048 12.904380517034946 9.250726610203401
Ga 7.145744017961366 11.928109462018291 7.033162432824118
Ga 11.945144789281692 12.02615763203487 14.377538563877089
Ga 6.4327770719155914 8.527832489028986 11.169691908554068
Ga 11.86350753404307 11.671765913445785 11.370063018405745
Ga 13.796485376290427 13.393793981546457 10.155703844376267
Ga 10.311989109333918 10.172046332065378 12.84540088312251
Ga 10.465525722727575 15.261266350808409 7.908470917305058
Ga 8.378375111128582 10.8641052378088 11.068970065440814
Ga 7.66644245738569 9.863706533375034 13.743812740909304
Ga 5.829510046675694 12.453292341748382 9.414153772065958
Ga 11.995741807590173 14.32639946319129 12.589718625499557
Ga 9.663439887648702 14.86250553302829 11.005282714594358
Ga 6.778023334247717 14.961470074920399 8.821987192669564
Ga 12.227247018874696 15.662239827261637 9.925456738139564
Ga 9.533680735586927 12.823840694876086 13.12263168815151
Ga 5.702127599023451 11.110816600051551 11.74333262913404
Ga 6.920546476539676 12.48173579531308 13.866313397478436
Ga 7.19071086036006 13.873125115354085 11.551167273948545
