54
Energy = -143.00319336 eV
Ga 8.520154482108728 8.262461824719749 3.4495081832981955
Ga 9.78045201794878 10.97478390904133 3.9328942720433817
Ga 6.93259171645476 10.515532933363623 4.438141271274615
Ga 10.612168848928444 7.073877984914852 5.036525873143108
Ga 11.837024901684801 9.729056640275417 5.530393244811158
Ga 6.580217037768003 7.7537267321269505 5.544051869350564
Ga 8.21019071632687 5.5415716266317565 4.567901727521933
Ga 8.580684567008992 12.12342948438912 6.328796831269724
Ga 11.403755758260889 12.562902608571545 5.828148825995062
Ga 5.676761179141699 12.429955436463082 6.267163671644921
Ga 9.022471333155755 9.26157458762145 6.057799273168555
Ga 13.224814414119438 7.279759313739257 6.346902262509622
Ga 4.452363139281907 9.706275177919276 5.762751873514456
Ga 11.287127491583195 5.3125096157459115 7.326226615730923
Ga 10.637063391426961 10.811786728065826 7.92677300935953
Ga 10.834260674762579 8.130120935543959 7.705705718548508
Ga 4.108268559636711 7.001501502865798 6.908315193731874
Ga 6.803300272576017 10.060632402619701 7.323813007692325
Ga 6.261857670636981 5.024703813435389 6.693759305111859
Ga 8.89315815629822 3.7593849130786845 6.9224540648426265
Ga 13.268429092336522 9.607401248288005 8.124419856178305
Ga 10.243138284685294 13.69118448597205 8.267321515978372
Ga 6.470346685875331 7.379598025228754 8.417691961410647
Ga 7.3352461290648945 14.00983106495956 8.14081575644718
Ga 8.69466951535044 6.580409753108496 7.158322393267879
Ga 4.32335067810252 9.333230888084813 8.608135528327887
Ga 12.88701416509853 12.446611325079711 8.471133320044736
Ga 4.8235553179940425 5.21075107313549 9.236592034331245
Ga 10.103621958996078 6.475353220980713 9.708959622562096
Ga 7.70136998471685 4.886811651102869 9.315259593804644
Ga 12.928373609957786 6.8795542748870995 9.235414401187944
Ga 10.340266975083766 3.660080288657066 9.497459161932
Ga 5.558384448448199 11.977901419092364 9.121243970069694
Ga 6.848375014074246 9.551251658172601 9.972980546746802
Ga 4.983586789598775 7.5581801391434835 10.886831426875332
Ga 11.305084718318025 9.088196790084027 10.184138247008944
Ga 13.55812121602844 10.71031307001141 10.770461580182255
Ga 8.786550146100323 13.908589221373985 10.79833271767588
Ga 8.419622798427637 11.603790659598879 9.199664283894283
Ga 12.001617351004645 5.274203937378462 11.442341540665119
Ga 9.08171789406452 9.874261862808547 11.451216016880933
Ga 10.942836235011203 11.952580760280286 10.585290815423475
Ga 7.875387863268227 7.263845898958559 10.967956261656498
Ga 4.458176868098997 10.40405323057963 11.330720089825824
Ga 6.236285436878861 5.125753331667565 11.831305504142412
Ga 9.148222629723778 4.807157935813248 11.915888116760891
Ga 13.228065801889434 7.923088832639826 11.910753030750982
Ga 6.982287064522509 11.839123837989849 11.716278671679053
Ga 6.627053701380266 9.106260318515984 12.807554167639028
Ga 11.611751978311233 10.159950574034202 12.889721545735519
Ga 10.395034345747648 7.480146276210896 12.430552739818346
Ga 9.487674980120731 12.165942908232191 13.08286759463169
Ga 9.12731362315194 9.391610483462536 14.238221951171878
Ga 7.931490444992237 6.730141458868034 13.758838016262782
