54
Energy = -142.17339736 eV
Ga 6.921465834924631 14.009733841882744 12.22178367313144
Ga 6.294011674439608 11.356388168752247 13.46620603061096
Ga 5.594772192717983 13.19356272854223 10.07229530418707
Ga 9.595526433119053 14.36807532271117 11.38245026202917
Ga 9.422284005262634 9.754937387883894 9.308522778384676
Ga 7.151068603230698 13.595958571559233 14.891148673643539
Ga 5.408519393697303 10.557739532800023 11.023735471282803
Ga 9.345293760958231 12.17866007842372 7.845998797074606
Ga 10.367940085368398 5.7171650735692925 9.055726584137403
Ga 9.139727407741784 7.557134013530292 10.799396055010966
Ga 11.152438504665474 5.874930238697716 11.533137297986121
Ga 11.269254821287559 13.850413647384247 13.479302700576666
Ga 12.597525009053841 14.527630468111663 11.099572344944626
Ga 10.525828941134183 8.278534575377918 6.544561788013546
Ga 8.717437015705626 9.450626557230454 14.390598136187704
Ga 10.253112682689737 7.458359379208222 13.539527055459942
Ga 8.06232718931739 11.309055326606252 16.075911526296476
Ga 10.31454149613215 11.029552221613626 5.261122438097195
Ga 10.924043555236835 11.945995560602103 10.266090939767372
Ga 11.891831220917364 7.955988404158072 9.287974153056892
Ga 9.811115019931906 13.557552305805682 15.84510041954507
Ga 12.714458980914664 7.987841137730825 11.864301142197789
Ga 7.3765371431470035 8.909340193356837 12.1730374947042
Ga 14.855554797660853 7.883814574018444 9.88284104943277
Ga 12.825108385697126 13.582583382583964 15.960161859203923
Ga 11.042246703013797 11.253073392010098 15.101352936953676
Ga 12.413085435100255 8.87752316433019 14.43796175383625
Ga 9.081360925600151 12.107235162857393 13.29935618383556
Ga 10.402868233648872 9.786740114039759 11.963485020447862
Ga 16.13683976671054 10.323645934502235 10.609251816739958
Ga 11.735330172517248 10.542813075990596 7.885779629018452
Ga 16.18389676727278 11.886923688299502 13.53175163758404
Ga 12.287679868389745 6.2093745526773505 7.093940725769184
Ga 14.68076960315455 9.581683150660085 12.801655186758634
Ga 13.830500016360192 11.099130524507558 15.027630956255388
Ga 8.06294030176477 11.731138627920146 10.906421477133922
Ga 14.041795342248802 8.124577697640973 7.255958045026694
Ga 8.33957240962994 7.357787526769487 8.059489260951134
Ga 6.578929845454578 8.739666966931994 9.417364161275062
Ga 13.252945110261049 10.19893737761757 10.197530610875097
Ga 13.955632911278288 13.700551281028082 13.441316726706628
Ga 9.685789079274167 5.5827507731297334 6.329509408161195
Ga 12.441512295112439 11.44506528112851 12.587640344771229
Ga 15.08155265618275 10.420262691811939 8.076966851190365
Ga 8.930821175167143 15.481013124020752 13.87595301857627
Ga 14.67848336757174 12.525885015269596 11.13978716464181
Ga 6.8052079290877385 11.350266330949436 8.426194652960508
Ga 8.255657411658465 9.88447750339323 6.721876380515747
Ga 12.639849549620621 9.464834605280748 5.4020141944606115
Ga 13.328790362207913 12.773443336843938 8.820194978656012
Ga 13.725315117689004 11.817741204091572 6.147017649720476
Ga 7.952522749907002 14.198024364446566 9.085803234252111
Ga 11.46447999166727 13.305993944045419 6.512630831789728
Ga 10.802635864487758 14.396736327180015 8.942691142549622
