54
Energy = -142.79363218 eV
Ga 7.951319390680894 9.540444176742964 13.379314761497819
Ga 8.741388522835175 6.735625130818219 8.975234959202693
Ga 7.609905064704694 11.051031600325851 15.703215396943207
Ga 8.217598484415598 7.995956401372336 11.217471686664886
Ga 10.428297308992125 7.910240200457072 12.84582442512363
Ga 10.17042315968657 5.648091848189883 11.167977280980734
Ga 7.9837711720283195 11.08651634920881 10.833784563496017
Ga 10.258907627861749 9.698703041975953 14.806866098983322
Ga 7.387832473455479 9.368049134470299 8.965752104071086
Ga 10.202466234182427 11.74415188607654 16.646049672627232
Ga 7.244849867311668 12.362098136813232 13.235859479957764
Ga 10.110434250726794 6.654907236351523 6.2169743655295955
Ga 12.68421905275695 6.387786208734671 12.547330831456836
Ga 13.018889121153633 8.182511827592268 14.471818814852142
Ga 10.2793761073142 10.605618799623073 12.05069589577684
Ga 6.53978697356727 12.096697662531412 8.431862387308408
Ga 7.639736027772712 7.905420757401017 6.701620235929479
Ga 12.583976913945273 10.066180893298046 16.29203578205455
Ga 9.856450644590156 9.22471315387048 7.5042685613119176
Ga 7.4735582822026005 14.613306201593561 8.170707261686097
Ga 9.737273012730261 12.623267921785043 14.150746021544101
Ga 12.599820255996809 12.239637920884713 17.959676978087163
Ga 7.230989133252913 10.557146160637917 6.380412989938622
Ga 10.868331738590742 8.356193512344154 10.087955888849397
Ga 6.906276303942024 13.56542017848813 10.831484948811678
Ga 11.43066373104267 5.92284531604005 8.604152325707123
Ga 10.367459021776089 10.99776856306717 9.439331402126284
Ga 13.473069578046344 6.973884718430269 10.060445802530815
Ga 9.452867778676953 13.486248036073658 9.815163424930097
Ga 12.699020229421787 9.300457835138792 11.797938789266613
Ga 9.270520600555958 12.548144101037717 7.1358427266084545
Ga 9.167865230718075 14.410323490037365 12.3154473974712
Ga 12.259818902977157 11.45502262744041 13.693512040177396
Ga 12.455660424076822 8.334771483833746 7.676887963131989
Ga 8.295576647072844 16.170479872083618 10.45264721344561
Ga 15.226505152770429 8.16911627867614 12.326241728217893
Ga 11.867339431123929 13.675250328848001 15.62431943925405
Ga 11.666812249779756 11.14715814247724 6.857696885801851
Ga 14.830063637284773 10.265185304896889 14.049994822982969
Ga 11.805702990438805 12.964283606449342 11.299546772338193
Ga 12.916109039161414 11.375140659065119 9.308647906429476
Ga 14.204847566171773 12.287822041293209 15.665028231589359
Ga 9.917307457827848 15.742613691296985 7.97564492939306
Ga 11.523257674801064 14.967223840102482 13.388317806099836
Ga 11.716899255724776 13.753350021428354 8.185582047192591
Ga 14.645629920700392 9.335535789446824 9.770785974648074
Ga 11.21742395961472 15.665193789744357 10.456611929426511
Ga 14.577759431697094 11.523182881889843 11.62039498338117
Ga 14.004400185443375 13.646721692353237 13.409121958825333
Ga 14.375852636811993 10.12001764565794 7.118046263614925
Ga 13.962114137737498 12.870917558828312 6.92485377770361
Ga 14.038032769942076 13.861680163245145 9.810212228432228
Ga 13.675656916265945 15.806068471852566 11.750369189656281
Ga 15.783181975993987 11.837605051490202 8.999008025233493
