5
Energy = -6.39704225 eV
Ga 13.696176094712294 10.395184297181629 9.371951106245728
Ga 12.878977711134311 11.18856936503853 11.531956185562642
Ga 12.324430697563912 15.758193630933523 15.621522312211171
Ga 9.816457354723372 15.471775357474634 15.409813213173308
Ga 11.107005973845398 14.104549350120097 17.107403501066266
