6
Energy = -11.99888087 eV
Ga 8.92585152878021 7.597822310261175 8.974851577656834
Ga 7.976570988399133 7.851132563881951 11.305073953221566
Ga 8.598073021913157 7.662235429130711 6.473534930079642
Ga 9.774344813438871 9.994803791341736 8.991955255299148
Ga 8.818434614889874 10.317182262031313 11.32213927997966
Ga 9.452538082278972 10.122636693053456 6.478258053463235
