6
Energy = -11.56465978 eV
Ga 9.674644033552733 8.908183064859136 9.681694123441916
Ga 7.394723270555274 9.219307259870327 8.545987969748351
Ga 10.46562556711646 11.178289552835857 8.903585924963805
Ga 9.370414331668023 9.19957534014101 12.140801359948135
Ga 11.048666921510655 8.370868063166292 7.535408095744735
Ga 10.359282528450478 11.43486574243056 11.38205740789385
