6
Energy = -12.42794262 eV
Ga 8.993302734034796 7.954281115380865 6.297649629565128
Ga 7.346087469614198 9.722608142385178 7.176332787060013
Ga 7.877913574013084 6.087484089985407 7.8701243042924345
Ga 6.172878384194652 7.835053557427965 8.663782395569667
Ga 9.899273763788043 7.589543841240976 8.792919926371596
Ga 8.191867739920381 9.29235291914463 9.680514622706198
