6
Energy = -11.01339465 eV
Ga 11.246195329599798 14.029019697417633 10.311378211694246
Ga 11.63698496382628 9.842734022009356 10.669206832880583
Ga 9.46448461056068 8.765844162476181 11.313039078207959
Ga 9.864876077682538 11.56918526680762 11.086431895765905
Ga 10.49402858273644 7.556400698691144 9.254411163964997
Ga 12.05938078133585 12.302947817338262 12.061857391112287
