6
Energy = -12.30807568 eV
Ga 9.30896495769155 10.918644696773226 10.68254629286907
Ga 11.107736512836656 9.836467300420303 8.527620184109582
Ga 10.62857226593327 8.731242618874182 10.789017121632503
Ga 9.477330026872481 7.906623275607686 8.12826541711457
Ga 7.671424519081085 8.988608473661623 10.284860228705373
Ga 8.158452991294896 10.098729694930492 8.030904990364606
