6
Energy = -12.42811307 eV
Ga 10.117724119771168 9.643678467714727 7.544679315712721
Ga 7.894618632515778 8.471112702113654 7.022467004212286
Ga 8.153254950487831 6.933447778503286 9.212726660473136
Ga 10.437471504130919 8.016221502531032 9.66598611823935
Ga 6.9411237012042895 9.315939229677827 9.378866513648777
Ga 9.21418635089679 10.385415582086141 9.948465860574604
