6
Energy = -12.41939443 eV
Ga 10.14221902164827 11.399938024994595 9.343452555060555
Ga 11.51615923048151 9.249287659307475 9.18082681952516
Ga 8.924786110894892 10.435785454946096 12.147635832560109
Ga 10.22791072552302 8.236974339276964 11.933778464235285
Ga 11.034333881574629 11.786513411123252 11.70865508620295
Ga 12.376739284820912 9.562734021856535 11.549296125880977
