7
Energy = -15.4967647 eV
Ga 8.255483661709686 10.853121177600169 8.53934021109417
Ga 10.757120086008719 10.465889980292973 8.861450542964603
Ga 7.490924668422682 8.480094495770262 7.604519492162888
Ga 7.751564194035262 9.288236650660952 10.43196567307604
Ga 10.334417251046037 9.277652017590633 11.128683278087712
Ga 10.156601306637636 8.340013315759712 7.58276362992166
Ga 9.248299936530989 7.300361597868863 9.68141541915026
