7
Energy = -14.14168202 eV
Ga 9.676236407868966 6.6750489405334195 9.136361771320189
Ga 8.781827839668333 10.04622054224797 6.7913930833485585
Ga 7.179532562347315 6.7828375613115 9.919712253482947
Ga 11.073072987027606 8.787974496791856 9.406257624263029
Ga 8.206478058467662 8.98157168722007 9.00424242752048
Ga 9.551686738677688 10.475506366425714 10.715391839031861
Ga 9.118877717380217 11.838552716907262 8.614353312470858
