7
Energy = -13.15121995 eV
Ga 7.052393173014727 7.173449118353743 8.124831239186813
Ga 7.256393434824159 9.721219191568569 8.256882717382739
Ga 11.408587958805361 9.398453240759398 10.181821325489523
Ga 10.12325557110846 11.560273635070631 9.522818322418345
Ga 9.12523220585478 7.185006709093483 9.784092445250895
Ga 9.573450751489654 9.3447850569577 8.110077287815583
Ga 11.460740693240048 11.665114846919682 12.109278284340485
