7
Energy = -14.45370581 eV
Ga 12.530711375532489 9.092691573087947 9.10067372142221
Ga 9.96158481473832 10.388054712800976 9.078651855640246
Ga 8.130317196395186 9.092691573087947 7.167955002719547
Ga 7.473514937932988 10.732153935296086 9.099635402578528
Ga 8.117544528156722 9.092691573087947 11.023637771035343
Ga 7.473514937932988 7.453229210879568 9.099635402578528
Ga 9.96158481473832 7.7973284333746715 9.078651855640246
