7
Energy = -15.49671987 eV
Ga 10.365524626846023 9.79481881830647 10.59792768544349
Ga 8.142980505602905 8.319154499469798 10.692726839255165
Ga 10.70431031885256 7.9999796688364455 8.651001108329163
Ga 8.371448841159223 6.990854798920345 8.526985103492102
Ga 7.768371876006005 10.40544349683201 9.344772125105624
Ga 9.80582722255115 10.163699327108644 7.7406145062729355
Ga 7.488694458786093 8.975236467376991 7.092477082972873
