8
Energy = -18.2472734 eV
Ga 9.095646025029302 6.802800142654956 9.074855851305044
Ga 10.443358152832158 8.991712705514006 9.979921014047266
Ga 8.529687008291924 6.608384405341008 6.422700346090793
Ga 8.252788653122407 10.148370327831326 10.388398081204182
Ga 9.872392883846961 8.80003955648988 7.328250375336313
Ga 6.359280528999338 7.822216974094686 6.792051069928511
Ga 6.920330783202409 7.975055888960504 9.451496324947867
Ga 7.706995064039778 9.988244454855579 7.724181564345938
