8
Energy = -14.30573016 eV
Ga 8.592345166321131 6.853503876653942 8.75676954450002
Ga 8.796866868325024 10.775354277468102 9.354377271748223
Ga 8.527536073930413 8.764199281045627 10.734720939743118
Ga 12.496352531010515 8.670335190111846 11.72839402437032
Ga 10.965972475932883 11.982425377513719 8.628968428793508
Ga 9.343727252608344 11.486688233670058 6.239080265961926
Ga 8.394162122099369 11.412189042207647 11.956715518474288
Ga 10.686865425352984 7.9001491125140415 10.402402184573347
