8
Energy = -14.43480778 eV
Ga 6.073107723302246 10.27179483507736 11.434151664576103
Ga 11.645406422116517 8.66260843539564 9.354348674763978
Ga 12.20300759561543 11.242594922378444 6.238160595696826
Ga 8.93478049878449 6.0617010424050175 10.082034054980616
Ga 10.069056524896636 12.024300392050074 10.838024379784827
Ga 8.67010087601012 9.897978900877956 11.840124513056784
Ga 8.987474783857927 8.820345461619612 9.614489655538952
Ga 11.647135881067747 11.240842622318302 8.853670884082856
