8
Energy = -18.24741836 eV
Ga 7.8410148147098955 9.202800338873152 9.896723436470404
Ga 10.228510441930874 11.277432303862376 11.827893044437268
Ga 10.432719816943274 11.717776302389113 9.105027900798065
Ga 12.509044980468197 8.850315607446511 10.198459876311825
Ga 7.994415417072485 11.681100901893911 10.311916093609536
Ga 10.07166735578942 8.819749638424785 11.414946959917911
Ga 10.27841843364842 9.257709516538876 8.69080468695535
Ga 12.66659910268967 11.329077195753802 10.603651040904648
