8
Energy = -18.24773888 eV
Ga 8.784110824638631 11.946594715877461 11.099504227772497
Ga 8.654390117304196 9.235744413493395 8.573859085626985
Ga 7.427201206914205 9.8299716609353 10.946654957378719
Ga 11.070964218200833 10.475176265298169 11.13018721732971
Ga 9.728832138002712 8.370879029988352 10.955273612071998
Ga 9.98210222171654 11.344809300609453 8.732891176791885
Ga 12.287107547717477 9.910073889063398 8.773434397952112
Ga 10.958805892771734 7.776968984193333 8.598670403400808
