8
Energy = -17.06696331 eV
Ga 10.772580148200088 12.071767265529692 8.982062266561154
Ga 10.852476002168848 7.960724576956435 8.44886243863609
Ga 8.790093060144608 12.868513275299296 10.43647934352438
Ga 11.640985525177317 8.580819356583234 10.924300050404206
Ga 9.584045701727817 10.031975066169773 9.95059333288615
Ga 8.065386147677659 10.902617090379785 11.904119380254945
Ga 12.430916381681623 10.12825359178655 8.672842480252461
Ga 9.870647671983093 9.283426229734346 12.630666863054186
