8
Energy = -16.97013704 eV
Ga 10.567076626231987 12.692445686211299 11.910830877017561
Ga 9.98240074560946 10.411606154729974 10.382334551039525
Ga 9.959983877900907 8.109158511085186 12.31806719559217
Ga 10.917352293286466 8.09842893635565 9.924844552167217
Ga 10.486980395738149 14.355836019831626 9.900832907246633
Ga 9.568940712906857 10.548699708398189 12.937786270708107
Ga 11.788342110722493 12.035020963078992 9.590744788136853
Ga 12.715251277229319 9.702258797306385 8.979587093279234
