8
Energy = -18.24618171 eV
Ga 10.098971315395117 8.843867503915464 7.486031802184596
Ga 8.592619247502835 6.6529646915797365 6.918828375403523
Ga 8.023860614529418 10.197892483125077 7.826345696083356
Ga 10.826677266389012 9.31320457004823 10.06544826532343
Ga 9.302026501618494 7.126670490331298 9.50751236531414
Ga 6.498928753389745 8.015089220123196 7.252034164556573
Ga 8.737896105161564 10.67890606559753 10.416918517138274
Ga 7.230014248011296 8.482399027277198 9.837874865993836
