8
Energy = -17.57768649 eV
Ga 13.006639174708942 10.115417315865953 11.078444175555678
Ga 10.792169259610407 11.72269734781761 10.962078174441332
Ga 10.497767024397112 8.901690440705703 11.551054332323671
Ga 11.731867805028418 10.308909357309867 8.728360452804454
Ga 8.499282950839504 10.575117646894551 11.444606407336538
Ga 9.316649937590602 11.31481980114836 8.81971978418996
Ga 7.292244446183417 9.564376222135852 9.277462964855522
Ga 9.906766565530479 8.488748645537907 9.15672334472641
