8
Energy = -17.57739966 eV
Ga 10.549847354651908 10.103859355652478 11.874068779055646
Ga 9.335251656441141 10.398513467274258 8.27092570997798
Ga 11.212677929417266 8.346737041831242 7.821451048710363
Ga 10.162568581629303 12.173562193439173 10.004288687768481
Ga 8.268389434422655 9.342812984813127 10.265714907852368
Ga 8.320045936953592 11.679717608098553 11.87233422442642
Ga 10.484442601928711 7.962761551962196 10.371190706149523
Ga 11.905450797545106 10.272869844995691 9.611367542951598
