9
Energy = -20.24555876 eV
Ga 10.631821583390517 10.82980087108992 9.952584052267602
Ga 8.617867929612727 10.42624643501432 8.198244534233908
Ga 11.55003897503976 8.465387325297298 9.546491435465862
Ga 9.638587526276243 8.363806839653185 7.267673608176804
Ga 8.607931877832003 9.095908033463704 10.642452057243558
Ga 9.457191888771298 6.91493594153268 9.605172777300714
Ga 6.417685987905477 9.046024800722956 6.451222923773966
Ga 6.5232943142053355 8.93450684677304 9.151128834075644
Ga 7.418487396467522 6.776716593183285 8.023834245543522
