9
Energy = -20.12323054 eV
Ga 12.083040939378671 8.540314022328921 11.468419542303513
Ga 10.757285561204235 11.648276108152196 9.650423326891968
Ga 12.728849463535814 12.289166305398563 11.555233717829212
Ga 11.437556233598523 9.314031085105746 9.0476327193534
Ga 10.839583953972165 10.575886301941367 12.315612811389771
Ga 8.887867641475673 9.123926915491735 8.143618368795373
Ga 8.151232476173972 11.537074043156412 8.61833317080924
Ga 9.263459428128684 8.610443694777763 10.72720992375048
Ga 8.529262499704336 11.040800127521674 11.15834270835596
