9
Energy = -20.21845684 eV
Ga 8.27051875402422 11.60040521558361 8.551661623781081
Ga 10.008497276890317 13.131046869746742 9.72843050464644
Ga 10.129475403696295 9.530671330413437 8.552803424848186
Ga 9.849813655501077 7.7039411708859395 11.914888473850455
Ga 8.548833001617188 9.744661593010068 10.617976445696756
Ga 11.683958020204209 9.655582920112561 11.390822444457035
Ga 11.802331525624254 11.27672962094439 9.348231865911478
Ga 9.915644651795139 11.539816519524555 11.78792419399802
Ga 11.430425435401832 7.474551705498259 9.763488367430885
