9
Energy = -20.24864703 eV
Ga 11.27250358943471 8.085197612360524 11.117052719365645
Ga 12.48290162277166 10.575018072922989 10.117845226041732
Ga 11.78903915568479 11.597893562651123 12.280980729245787
Ga 11.196768592217252 9.230024480070373 13.41639702531576
Ga 10.001961334934496 9.705924460376083 9.436568505653632
Ga 11.954456282326628 13.926621166485404 10.13108139289412
Ga 9.656894458222869 12.664625324058195 11.002760416245925
Ga 9.272445056943749 10.291022802515483 11.827771953105133
Ga 10.483071280390313 12.094441569658379 8.595766601028345
