9
Energy = -20.24780732 eV
Ga 8.16604095226458 10.207952698600549 7.874226874935565
Ga 9.271894231216965 10.340696525662555 10.447928427632883
Ga 10.70270151931998 10.380618830600682 8.118708492206391
Ga 9.284457849084129 7.857454422125209 10.376029539999836
Ga 12.281945243707437 9.517478319708395 10.14466716561999
Ga 6.592949179608451 10.4913933538397 10.105986963174844
Ga 8.498704900168386 7.669838733150553 7.750848786743176
Ga 11.042108949576992 7.798170181591228 8.14700393565167
Ga 6.492097570401188 8.024444922624895 9.40107728814618
