9
Energy = -20.2505504 eV
Ga 10.12868808373907 11.640175430376484 9.79739358586618
Ga 11.69469327365842 9.72305855880847 10.033664403469015
Ga 10.297871352523371 11.225396461096906 12.868951861526533
Ga 10.053327239055859 8.550999112563677 12.143275396581506
Ga 10.757412459230268 8.85726182553043 7.401000908381471
Ga 8.293696399650562 10.260371099322203 11.24194701243637
Ga 9.781295455405523 7.845527674790531 9.660733840815109
Ga 9.78785722018163 11.229440915854008 7.135440463133767
Ga 8.251408543752296 9.7090309796971 8.775281480909866
