9
Energy = -20.1945113 eV
Ga 8.565684681620079 12.762600181770628 10.971631267407359
Ga 9.704829242215872 6.947229615867697 10.266031410405297
Ga 11.489909473475347 8.993431788260347 10.513098438487642
Ga 10.392927927697437 8.315853382551524 8.072698835704779
Ga 8.450889302590191 9.799700368706997 8.705903218341199
Ga 11.992638838439705 10.462041118255133 8.111671194911658
Ga 7.683997004302576 8.312241264028938 10.88896214276639
Ga 10.132099719780829 11.901106103079226 8.978797751286368
Ga 9.442792016510822 10.231912656548689 11.234047943732902
