46
Energy = -99.41270517 eV
Ag 16.32712367603825 13.42820637219489 11.446026773554108
Ag 15.466853534006797 14.691158915981145 9.047561042845654
Ag 15.353895573064706 10.879720587670736 11.175755498736052
Ag 14.700553510120729 11.442953188711753 8.381284346717104
Ag 15.913356118440921 9.062303337631912 9.05949010185872
Ag 14.227459970157264 8.34188406345021 11.150784812326778
Ag 14.624156391216978 15.672800284060958 11.540734565025517
Ag 15.947220127374715 11.872450617555259 14.04773663173508
Ag 16.348628399169687 14.851467493908734 13.790033401439471
Ag 13.371489992788163 13.725533677471772 7.507386730134711
Ag 13.710817251348319 10.166769791183379 13.342683077476517
Ag 13.654247771043465 13.05901604463539 10.404534890520257
Ag 12.198830488907992 10.588958420047309 10.840089201657662
Ag 11.783897408730988 11.544910188729093 8.001901030447657
Ag 13.122758323815123 9.11030675453108 8.590102055118466
Ag 13.639064470147058 16.082559186829982 14.109942704451173
Ag 14.648077981498744 14.118450972636872 15.848842192551269
Ag 11.788045744217664 15.018131630315546 12.245611832834403
Ag 12.683705646600696 15.569441651406889 9.502827980810485
Ag 12.606531152452698 7.568547844900907 13.302802141379468
Ag 13.906784204057463 13.328431872671079 13.160757273256614
Ag 13.291093739737198 11.774267023114342 15.541581219567663
Ag 10.86504697950186 13.151307832117952 10.23871253372187
Ag 9.985560327495534 15.850425502611776 10.272743132723235
Ag 11.20101637572452 12.146202480129068 12.944508158144435
Ag 11.859299610964067 9.430984119437527 15.381617293504068
Ag 11.548443551925295 7.817491746736793 10.634582984182572
Ag 10.154357380973186 6.280401114160093 12.435370814905355
Ag 10.53488884746337 14.209610092031093 7.785059906733636
Ag 11.81759979706109 14.154001137808024 14.982481648024683
Ag 8.958306666004537 11.832632655246808 8.15238675653768
Ag 10.393862898467702 11.812009504715677 15.579764351632685
Ag 10.373887280456914 9.279706180509725 12.983100575823592
Ag 10.313031091819912 7.154733307306189 15.048178661783883
Ag 9.300968056814929 10.942000196599798 11.016781260148118
Ag 9.045673498520227 13.960129731601556 12.183096581866408
Ag 8.050429018459267 14.134191093795417 9.400646923165596
Ag 10.180736653492781 9.391624451286754 8.811535180628129
Ag 8.824519778186154 9.50748567520598 15.364452816084972
Ag 8.668933820387377 8.09431888452306 10.891111107015321
Ag 8.367385583340393 11.655175661268732 13.589586345017567
Ag 6.177224048857767 12.337183318579392 8.401309861610489
Ag 7.18892345019852 9.96118453241653 9.387469348033786
Ag 7.869997672574776 7.539395008387239 13.596739484206294
Ag 6.825844146002608 9.697644773176142 12.246553315256051
Ag 6.83695021025537 12.300801437471874 11.187104455515904
