55
Energy = -121.91977341 eV
Ag 13.046908205038644 12.861300244615302 13.950162353426261
Ag 11.820489713347378 14.665375265392328 12.18213233323602
Ag 9.991654453612075 11.956301438775705 16.607589134667315
Ag 9.828501068383428 9.532742570191747 14.99903185277399
Ag 12.321237936981829 10.64828204869641 15.723981414147941
Ag 8.373766285649301 14.987319636102988 11.631913005924263
Ag 14.822075957235441 14.506177132559527 15.498828993121064
Ag 11.942684992927443 17.578828465599976 12.929858793515368
Ag 14.49968570721936 8.872012817191596 15.880527285635086
Ag 17.364342237438056 10.989269990879025 11.873566836143773
Ag 9.782968381189596 12.609740774543495 11.223643607635719
Ag 9.796603523349214 16.07639360253013 13.742143797088126
Ag 7.3002450791779205 10.533238217932254 10.289441780623113
Ag 12.260970614762291 15.693303112051959 15.063580336336017
Ag 11.294180628485957 10.798094649005844 12.97661640847234
Ag 11.651540897818524 12.349017440923499 7.9969915446113555
Ag 15.571116376647653 9.302452444261704 10.394689468633208
Ag 14.824466921180797 11.729923210208195 15.978684452014852
Ag 10.159245702874864 13.141191111495562 14.017981186611221
Ag 10.606687158023647 16.522376308345997 10.630712476333146
Ag 16.31349618496951 16.505151329103924 11.458954233047857
Ag 14.629796296381874 14.11146257655041 11.939313609085756
Ag 16.99574436780456 15.424423790111929 13.926300129682636
Ag 16.503005327607507 12.748947816861214 13.946454713650141
Ag 7.292321215022008 13.260759101633301 9.750249497605413
Ag 7.116331386578881 12.44255541247696 12.416351746158632
Ag 8.70316702296308 8.82380469295419 8.333518381639296
Ag 8.10221623169917 7.822096354594587 10.862910801253387
Ag 12.372369409163444 8.300214145542382 14.227283102267098
Ag 11.352177194736024 9.500926618353947 7.950468273709066
Ag 9.072133791303338 11.609535317109563 8.327061391485122
Ag 12.72019604266913 6.670804186632252 11.839984269108829
Ag 17.36614421179946 13.863194882238963 11.43056192002628
Ag 10.249667416909636 7.978141014682092 12.591945164386178
Ag 15.459038081630682 14.955245579609231 9.351234494852598
Ag 12.820161033599907 9.327202490133638 11.18901330525744
Ag 14.646054229481363 11.088576086298906 12.492236122694521
Ag 14.863545641393738 8.262147504853868 12.999353696326317
Ag 12.617741168984352 12.201792472170785 10.8680027450186
Ag 10.791055756657883 7.336090783556965 9.828040057960859
Ag 13.5981349919954 16.665956614421635 10.88565497658889
Ag 14.253431882237216 13.161815758993049 7.670391010268903
Ag 9.781558601414204 14.323256655836493 9.011660698413682
Ag 7.691834757651271 14.34362306637842 14.429940439956512
Ag 13.780399844629484 10.569813721310211 8.614372816897584
Ag 13.470322579176457 7.774583012165056 9.043710941830534
Ag 12.433448637508981 13.374148337814702 16.6229578353569
Ag 15.722081325304444 12.173880332236681 9.893155825469883
Ag 16.523613278826314 10.025398962693739 14.413382811595302
Ag 7.809711499384499 11.56355894966209 14.974692610392355
Ag 10.138122792721484 9.999388723566186 10.465942030241568
Ag 9.891718059123203 14.76066639837405 16.29023321166076
Ag 8.06646726839835 9.798874655256272 12.865043724512514
Ag 12.54311298724241 14.705085922577874 9.295541707943258
Ag 14.46554602383696 16.58877463409157 13.617243024853378
