55
Energy = -122.54766095 eV
Ag 17.16696520228256 10.724563331931591 14.118457126754718
Ag 16.378613266262978 11.313421014852763 10.950380490596116
Ag 16.460977213034514 13.168871489312439 13.140271334974887
Ag 15.850887581987353 15.506934453300357 11.870531650661324
Ag 15.640375126541706 12.395027123537412 15.736456406037425
Ag 16.113250853069417 13.81694159523163 9.564310740161048
Ag 15.266563809144836 8.545823419985926 10.949510277192946
Ag 15.389205272933014 11.401935672119254 8.272689064875419
Ag 14.770693495642996 9.612078560289 15.623767068489075
Ag 15.116064732810257 15.198854503863874 14.596202929281946
Ag 14.177753981817714 8.73226812594542 8.256877371044029
Ag 14.574602763203755 10.690296293703746 12.997849280772526
Ag 13.869142378000507 14.230760925316362 16.907696688822984
Ag 14.17766832114559 13.136170393119619 11.407438854369104
Ag 13.503382312323449 10.58504378098017 10.193654211117275
Ag 13.829036505917431 15.61299465272461 9.954229641447874
Ag 12.579157772028397 7.848610821148295 10.484862405914981
Ag 13.766183283954014 13.698129763256075 7.906484604090277
Ag 13.125584852573864 11.57160124119932 16.919850263735515
Ag 13.44638605915856 8.047291774948665 13.166442009290746
Ag 13.357837542586676 16.434290310067148 12.794851626142666
Ag 13.298444576086306 13.018271579157066 14.286440004512745
Ag 16.152608416538186 8.246326644642032 13.573838908164577
Ag 12.759655118038033 11.005987554117365 7.307763270352067
Ag 12.279266479590913 8.938019218003962 16.964622319760313
Ag 12.170460006923186 10.197143384701445 14.541081646969728
Ag 12.216850654279394 15.645266479525944 15.182169759884141
Ag 11.89566660802647 11.640330737232647 12.20634472071949
Ag 11.325635034761643 8.63912825539276 8.01664849994333
Ag 11.103184001511082 13.583218709235382 16.804103328831534
Ag 11.724085942823123 14.464646234785844 11.595588595551627
Ag 11.627483832512167 12.598756492378847 9.437752952986015
Ag 10.743953958144033 8.46799503245783 12.606270188006606
Ag 10.281884604959838 11.003618715140748 16.46129153807402
Ag 10.02584770731995 8.447588548167898 15.283729765111097
Ag 11.543074362643932 17.183353779823335 10.76583880795746
Ag 10.53589220941355 13.379424962650381 14.015119099994818
Ag 11.345756271906492 15.345630788172448 8.636721564191964
Ag 10.485139339384924 10.110591532348032 10.263257193140214
Ag 11.246768095224844 13.331791940069412 6.708366044681254
Ag 9.43709669037705 10.714928614110404 13.647171834236715
Ag 10.346064982043968 16.30337963795773 13.16780571604064
Ag 9.832286446456328 11.086975116832695 7.571819928801286
Ag 9.290128315397858 15.338586058563392 15.59613363630906
Ag 9.44607277128326 12.687913376026689 11.337836392616754
Ag 9.879632434666522 7.267882063254837 10.281916487358338
Ag 8.208471323447728 12.649265930559 15.332702314980889
Ag 8.139971307215232 9.258845607458188 11.553273163454193
Ag 9.225505720962785 15.568218672920361 10.594472404194788
Ag 9.019355746420704 13.634096859400712 8.514022695318733
Ag 7.693798910164361 11.319400184180818 9.60885439477466
Ag 8.06664589209587 14.557999018867774 13.092842542844794
Ag 7.120440795632659 11.82809629107255 12.596075981952604
Ag 6.981212043953298 13.859293218043446 10.545534420893967
Ag 8.477567683777666 8.892360126317023 8.57601644201882
