25
Energy = -50.55632061 eV
Ag 12.04538873664413 10.575642787011686 7.549683985666097
Ag 9.911120165506173 12.262623235935473 7.995548802133417
Ag 9.76448907931266 9.53021477737834 8.884260985637718
Ag 14.400204366931826 10.915527947305096 9.10209886816095
Ag 12.118234626280543 12.38330575694832 9.910400202928324
Ag 9.986193628691307 14.28713781570674 9.905620287335267
Ag 12.294250797560519 9.355576492692599 10.071924919107374
Ag 14.712998873719348 13.154798371241673 10.855538757088972
Ag 9.281673985822561 11.654258337988017 10.626888793302358
Ag 12.507847413180174 14.925176267783401 11.22123016520448
Ag 14.255495726652072 10.531331595159612 11.831387791338528
Ag 9.820512262167568 8.969047946516618 11.63772758053708
Ag 10.140882357671984 16.213852533631364 11.935982946503888
Ag 11.497838095047749 10.969523506820389 12.398825617790289
Ag 10.288486356708452 13.517626845306618 12.564971495150308
Ag 12.565657708393488 8.412307960571683 12.70826210919345
Ag 8.898506511664303 11.130804926478394 13.403375643662958
Ag 13.156550712101438 13.00785073482469 13.16744221387931
Ag 14.81004214736305 15.126923637457905 13.17348680182336
Ag 15.759419441752001 12.297412612178258 13.419217808045017
Ag 11.918257549746095 15.290168110576705 14.059688369983565
Ag 13.483257983640403 10.612698494217826 14.569154367785043
Ag 10.819432956890221 9.491338329989183 14.696848175140785
Ag 11.140813851313155 12.366616960109253 15.003473357581203
Ag 12.08035358789267 10.67614293882435 16.964868877674455
