6
Energy = -8.36868390 eV
Ag 12.352791500747223 8.334628727989925 15.264614019050732
Ag 12.443678735086902 10.025543616146715 13.292044474922674
Ag 13.366725590868343 11.6249231343358 11.185115308784676
Ag 11.175736073505211 12.287019149288813 12.489049400648929
Ag 12.13572912462005 14.09672360426504 10.720851322128846
Ag 11.444227821453723 16.523802006927475 10.102783101377778
