27
Energy = -55.95705827 eV
Ag 10.84926937522374 15.144293610829216 14.097154130541
Ag 11.710369195516497 15.188943313817294 11.40010194534763
Ag 9.543953207321895 13.484908799441355 12.304931988395525
Ag 11.883777259141596 12.511155788182315 7.576196326998048
Ag 12.407351045825624 15.115984174107057 8.610506005316616
Ag 10.270503087957362 13.64137454589807 9.565949438409243
Ag 9.057853559547304 12.163687984850744 7.562046580326178
Ag 10.139148593202977 12.557069450634895 14.934356961719285
Ag 8.276917860179715 11.864636079049587 10.38762697315027
Ag 8.707494665440873 10.87902721013184 13.068307016553508
Ag 12.310827572128026 12.954997359953508 13.03792709725517
Ag 7.532339200813105 10.000403627068861 8.52466791819415
Ag 13.001053552851644 12.931745845454808 10.213674217345575
Ag 10.902745599018262 11.172983364023723 11.185514671672937
Ag 11.911580103765425 10.485964429609487 14.168950444911959
Ag 9.55780747051456 9.859739378744838 15.563038578234043
Ag 8.8332175950446 9.130266751620898 10.804883848277713
Ag 10.440233874846248 9.960584674692193 8.505475308580495
Ag 12.348799269565754 10.091341693742997 6.3469750613402365
Ag 13.187425276876409 10.451338246864994 9.026732756066586
Ag 13.576573212391441 10.669774241091842 11.825624652688758
Ag 10.155069669241636 8.45639218761628 13.164678624652478
Ag 11.64996651864884 8.011491856103667 15.468272231759816
Ag 11.548892165186775 8.452113725708424 10.690156411825168
Ag 13.118550065219136 8.195082251014947 13.077493762698468
Ag 12.43539797976376 7.938710411712531 8.083774509464394
Ag 14.266619775505367 8.29328625763491 10.425842402651144
