28
Energy = -56.98378735 eV
Ag 10.243945876308999 14.108998527959342 15.66665250634295
Ag 12.184938686744474 11.615642758186828 7.851883702903918
Ag 10.396300046872318 15.585170022960309 10.407136018235027
Ag 10.257640709100013 10.287995493733055 6.452026782849151
Ag 10.18844260112803 12.835931545067137 11.056132122062555
Ag 15.505835291110067 8.9532994122414 14.493590747808618
Ag 16.053044703117536 12.03775462939951 11.812881319655796
Ag 10.613205190503942 11.315162903953155 15.86484782066233
Ag 15.223981645989818 11.708563504132664 14.408657078474462
Ag 13.13116895967644 12.650713354415913 12.145796384327033
Ag 12.788919201038306 12.940435275498464 15.071369601922223
Ag 15.04960805543676 14.378387256773497 10.597775613740547
Ag 12.535549493071713 15.677594569109411 14.662554637121636
Ag 14.383791612221147 11.762487967045425 9.562582188504328
Ag 11.328011001276536 10.739169368273004 13.218118624580686
Ag 9.079467756566308 12.420711917633765 13.717137039149174
Ag 9.108926023670891 10.331543765810423 11.621500466845479
Ag 12.836290929720942 15.53050322685943 11.809366732197448
Ag 11.988254107708192 10.641221745399395 10.504023142314045
Ag 8.90101683758982 9.690204732835435 14.333922244638604
Ag 14.039277838456526 10.024907094167972 12.388651275738574
Ag 11.729991990151705 13.056711634918829 17.68942192605291
Ag 10.447185079159217 14.762943913450997 13.02900412882614
Ag 13.12191045476361 10.078894147953719 15.229091808655227
Ag 12.442208555672188 13.79662598066271 9.564501761477763
Ag 14.78662367138183 14.30902746416539 13.518562584096163
Ag 9.665005218065232 10.910816499131583 8.984447523664715
Ag 16.912354085143203 12.79147690990722 9.281259838798299
