30
Energy = -3.50117331 Dir = /p/work1/plile1/GA_structures/Hg/30/all_candidates/1998/
Hg 17.81545554342496 12.540576793360017 6.798773411387468
Hg 13.379544134696964 10.220059928173967 6.297926161714793
Hg 11.283544986974231 12.776194724798913 6.843491314091147
Hg 9.707223362603418 9.719361305005714 7.8791890124787125
Hg 7.735637528546356 12.096031434036718 6.388480564532822
Hg 14.607508114341945 13.108554246994036 7.899734681471951
Hg 17.300997668248414 13.348569167335352 10.041253648049182
Hg 13.659957869619042 7.601323032390865 8.633415499364359
Hg 7.116677059900584 8.372989073691857 10.282977460911585
Hg 12.498788575120816 10.765500686440046 9.595777022208148
Hg 12.298343891189493 15.689294547843703 8.675842652963299
Hg 10.723280251785 7.7133970544606205 10.4941435173962
Hg 6.333532607059284 11.791267083983739 9.724553577168887
Hg 9.059757734208846 14.134569431129767 8.918218897633208
Hg 16.11258279167948 10.219873839690178 9.166864461126686
Hg 14.14436588663208 8.678398301995733 11.829566595570347
Hg 9.418202812788481 11.006330574214035 11.046996684428997
Hg 11.510254970941594 13.84790988371449 11.458850436419285
Hg 7.894119405054846 13.896121869385487 12.071544783197064
Hg 14.587277978546032 12.314010511943858 11.841739888140395
Hg 6.593956417390579 10.718600611524142 13.051159245023097
Hg 8.66673213672813 5.703784111238823 12.530468136239179
Hg 12.054575773240526 6.511514913191045 13.438585429134118
Hg 9.412476375107637 8.677341039738062 13.767907335010335
Hg 11.910580542261659 11.001764924838694 13.476824172858333
Hg 10.217424814333933 14.426361071176796 14.600937231054731
Hg 6.775631746529544 13.348225364248748 15.23375239954268
Hg 6.302019389930645 9.9831884251565 16.406606301855692
Hg 9.449477816761386 11.291941843736042 15.728072541695811
Hg 11.820314820175156 8.887187210383448 16.266589943153022
