30
Energy = -3.58475979 Dir = /p/work1/plile1/GA_structures/Hg/30/all_candidates/3807/
Hg 8.880159305225785 6.712756987153248 4.589938449475111
Hg 11.175478678886915 9.654014818895275 6.481868622837709
Hg 9.932367126467126 13.084986278728227 6.985195474795299
Hg 7.582220263480659 8.308983005639249 7.252584408528056
Hg 13.657926264047179 12.336031078305897 6.461450935797686
Hg 6.989120636030089 11.516980492203274 7.808095241531961
Hg 10.473476750822392 6.461416298680276 7.773006053795756
Hg 7.245410852573259 14.801870547280002 8.326881663099241
Hg 12.003365827088082 11.730696936554388 9.298790693274565
Hg 6.172557419160876 9.156471607403882 10.17412609456946
Hg 15.26098981314662 10.287187942222877 9.1363442152167
Hg 8.862063211475503 12.58913616989371 10.432380625461454
Hg 14.502170380629316 13.914004296607201 9.690720800726238
Hg 9.675679168268655 9.175006146629897 9.934852874993604
Hg 12.866544324375962 7.982470903146961 9.685718724922296
Hg 15.476679692119058 8.109620307169669 12.063583359681965
Hg 11.298307340185119 5.1452111893408485 10.971499278877573
Hg 9.40623159937009 10.50719923965306 13.39525799532802
Hg 15.531529082321684 12.32889595881119 12.614576096581922
Hg 9.636143682470077 14.222149806317296 13.188380915951324
Hg 6.743825696252858 15.556078254275642 11.771629329588649
Hg 12.919324612648921 14.731369013413746 12.809008390700846
Hg 12.602201213590932 10.364174556479025 12.291354034530265
Hg 9.62652465211551 7.267388450814992 12.889716629720038
Hg 6.483092648342852 12.309057557534151 12.852109562938946
Hg 12.840710688398367 6.998989285874856 13.934980992800618
Hg 6.4525056027245125 8.84550542090392 13.474784731937124
Hg 14.491156463146218 9.930467777491842 15.019515002186422
Hg 11.824396245871533 12.351536974817035 15.029028426822217
Hg 11.53203206323504 15.764534002228809 15.806811677799834
