14
Energy = -0.93974897 eV
Hg 12.740158004414962 15.652990876214188 17.448194024754713
Hg 14.15108425449007 12.98726110453995 15.830491083806628
Hg 14.61084083178053 17.675582823270794 15.37129003442546
Hg 14.950309771316771 14.935769745294646 13.122745889868362
Hg 11.184846526082309 17.49378548134943 14.956124679373058
Hg 11.152492779765819 11.489755983927632 15.2966371357041
Hg 11.638335458403356 8.859029528614329 13.015861605074727
Hg 11.810203338897018 15.800599578673403 12.051125598213817
Hg 9.622574288856622 13.327322746483695 12.820372611431502
Hg 10.143568304935847 10.704253116529314 10.53905555546425
Hg 14.91474163526471 8.902008799584257 12.161982739071835
Hg 15.663976176923619 11.72302347015662 10.35060633410512
Hg 14.674925821948989 8.817691605831481 8.742297883977892
Hg 12.730264469732845 11.642193435421234 8.569394422182398
