10
Energy = -0.4654499 eV
Hg 12.269288740416807 10.659050688583635 7.651303455956965
Hg 13.29839320629161 13.663401773673398 8.817425608671112
Hg 9.193775250363414 10.247796023152361 8.885954234479494
Hg 16.245953342644455 13.036456038568815 10.290048229793888
Hg 9.659279536628132 9.063517405843687 12.020025696490352
Hg 8.013286586393487 11.2377864318249 13.974638578594
Hg 15.848647170740492 11.661448272503119 13.325862912826032
Hg 9.718428320342692 14.097438193370502 14.36124000736836
Hg 14.974159397969231 14.265083896551173 15.288904571290656
Hg 12.075146966548502 13.36437979426724 16.68095522286796
