14
Energy = -1.36802308 eV
Hg 9.943263 9.938584490446786 9.52243218700568
Hg 8.110393072196988 8.889349000484602 12.427934419610342
Hg 11.77613292780301 8.889349000484602 12.427934419610342
Hg 9.943263 12.08835113448956 12.43189964725332
Hg 9.943263 9.941164962613987 15.019402935121441
Hg 11.713604221700578 12.98279267967659 9.579859648584454
Hg 8.172921778299422 12.98279267967659 9.579859648584454
Hg 8.17283538216922 10.96178904845103 6.631100994819829
Hg 9.943263 7.8967568470500416 6.628681100185475
Hg 11.71369061783078 10.96178904845103 6.631100994819829
Hg 13.464915472019701 9.951364715975181 9.580733607311041
Hg 6.421610527980299 9.951364715975181 9.580733607311041
Hg 11.692925208349877 6.885116734623826 9.58200398093756
Hg 8.193600791650125 6.885116734623826 9.58200398093756
