14
Energy = -1.0061554 eV
Hg 8.116425168234942 12.451626219592239 12.941622179017195
Hg 14.648528193823125 16.68760164837345 12.674163220518162
Hg 10.790949777153545 13.306379635545532 14.848052469234673
Hg 10.50973136771837 14.704407055895697 11.773934624968408
Hg 16.169081350847147 13.773865252617021 11.883282855709131
Hg 14.221386737931873 16.60249994318475 16.13603039183819
Hg 18.101775856043584 16.32714101963054 13.009181699943461
Hg 17.683648668733436 16.37506323592764 16.50183018043639
Hg 15.69070708637385 13.740883167415939 17.198133578139267
Hg 9.325009086472974 10.110692360477303 10.596957483297384
Hg 11.797794502516348 12.337595009780514 9.558509320111918
Hg 12.738231959072658 10.539245805185647 14.673290671895888
Hg 16.020516235771574 11.671861254239738 14.534976090937404
Hg 12.562518167321201 9.610288049058306 11.420272319389358
