10
Energy = -0.69347924 eV
Hg 15.32432284878004 9.657193291368612 12.682939494932015
Hg 12.25098412522688 8.679530571486971 14.042783289221662
Hg 15.604355195730369 12.982496778012502 13.187353263998718
Hg 10.78357306247497 10.893655137464375 11.782603321214891
Hg 13.735379975790162 12.162236452098195 10.559268932750804
Hg 11.853096637500627 14.982798587299055 10.478082502647194
Hg 13.92356226039173 18.0260192890763 11.812962270893774
Hg 10.814785018209525 11.535194828203092 15.09260666384181
Hg 13.304730731898243 13.859764609883728 15.448502905109903
Hg 11.577991237523538 16.18845992187971 13.745235123220183
