14
Energy = -1.35505678 eV
Hg 9.8382506347165 9.558800007733348 9.807269
Hg 10.381071267421559 12.211029474019913 12.274717236575754
Hg 10.381071267421559 12.211029474019913 7.339820763424249
Hg 7.6785405955086325 12.405606585356372 9.807269
Hg 10.299056494056835 14.539448888678443 9.807269
Hg 6.9060627895690265 9.512990669525367 8.00880486876511
Hg 6.9060627895690265 9.512990669525367 11.605733131234887
Hg 8.871454581457504 6.439984919909806 11.522299800011698
Hg 11.952828679861227 6.753319168183196 9.807269
Hg 8.871454581457504 6.439984919909806 8.092238199988307
Hg 9.82935018453087 9.094615519296488 6.074954037143527
Hg 9.82935018453087 9.094615519296488 13.539583962856472
Hg 12.778606078437559 9.76367509227316 8.050945417952958
Hg 12.778606078437559 9.76367509227316 11.56359258204704
