11
Energy = -0.61979152 eV
Hg 12.052847450305356 16.824754094314354 12.837815474213832
Hg 9.139737422526814 12.036571205855397 16.015145886950748
Hg 12.850731343379486 12.575695834359216 15.990161098810786
Hg 8.072292875494627 11.234021937123584 12.347865748305788
Hg 16.84521619592496 16.55144756256056 16.573791547496636
Hg 13.398975016555514 14.19992596736081 10.460049112167878
Hg 17.0457104504816 14.950559843237452 10.981304371556334
Hg 16.54527329068337 17.914140393234863 13.33292717050615
Hg 13.113848251838393 11.248883815107439 12.58657896116051
Hg 16.541952243978535 10.043542366871721 12.313962865431353
Hg 16.448097369495528 12.870889772106437 16.29980557439166
