11
Energy = -0.51258479 eV
Hg 9.07986867114632 17.188091634458157 9.812472336010167
Hg 9.861677755176066 11.167762015939099 16.413247709410285
Hg 14.49184108301867 13.224880285983875 14.519765024279799
Hg 17.80042264405692 8.823997017522208 14.929967573043596
Hg 15.097231944611604 10.48737877238632 16.46113227780012
Hg 12.393947067021463 9.170886312189348 14.96552655607107
Hg 11.477160397975387 17.852379267528672 12.345889410515062
Hg 14.407081864557776 16.60322910088108 10.901932628919557
Hg 18.619197298430546 16.171863251389553 14.225811458792096
Hg 11.535842520202793 14.231282278704807 16.079838481191246
Hg 16.815812242631914 18.595748250153463 12.49901723518313
