12
Energy = -0.63715744 eV
Hg 11.005187726569964 16.509006426442916 12.567350865563974
Hg 17.280422177261343 15.718605699382213 10.606580032970761
Hg 18.624652216687664 13.088357631774935 12.848958454650102
Hg 19.883492778845508 13.362344106212657 9.549724769130346
Hg 13.042539957583239 9.416809038403711 16.51109111529393
Hg 13.899974660578708 18.4179917513314 12.082006771791177
Hg 11.282617753036497 7.695222724541351 19.340458339265282
Hg 14.37793633716773 19.634181406020925 15.440653548127754
Hg 15.965422926098542 16.740665442441127 16.748166485018924
Hg 13.089503091108243 15.307291299439315 18.561845320369763
Hg 11.792941605274676 12.634194179019117 16.524886426377787
Hg 12.341916956881366 13.338373694765778 13.195456606662182
