13
Energy = -0.74751565 eV
Hg 9.85493294911232 12.802253281808035 12.23211426247126
Hg 11.434107657855243 10.978042116361426 14.8804894548395
Hg 10.376877088716938 18.451372470649915 13.293886179957525
Hg 13.57752474456267 8.792427009386488 13.289531395192403
Hg 11.731413591131572 15.71782046259005 11.685858170776177
Hg 11.728453148819062 18.76687818123533 16.476667327959877
Hg 14.373936547677882 21.05074829699329 15.951204195318681
Hg 16.516471960457846 10.412695312370795 12.481951824892645
Hg 17.82930461105784 12.813719848499607 17.552415673991977
Hg 18.365810731728363 10.13683411466727 15.410690463753076
Hg 17.309504992852006 19.711352469280506 17.280917270608843
Hg 18.895535311580222 17.60592522166027 14.892421410934638
Hg 20.24074012226512 15.214099170581987 17.02088711696582
