10
Energy = -0.77580185 eV
Hg 12.976736759471466 8.262977526567651 13.381037305984547
Hg 15.69273040747947 9.974467988082937 12.286494771133658
Hg 10.355330951619923 9.870840961475029 12.013813800768874
Hg 11.434267596494703 11.758647533077832 9.44137674560049
Hg 14.635806510213303 12.51257717122641 10.163586494212105
Hg 10.144401730370399 14.851962870318452 10.487479799330844
Hg 14.372806387308048 13.305676078730112 13.430093291197974
Hg 11.441460864032988 11.713314507156989 14.671997048211628
Hg 9.542638716417194 14.622011127318794 13.903504695108534
Hg 12.29268956936054 16.264910297510166 12.822375018212774
