10
Energy = -0.49177953 eV
Hg 15.51916370798849 13.1899631984048 11.26957306314777
Hg 10.46975553046069 15.586865940752709 15.839622204416989
Hg 14.549715479794177 7.630704423509376 10.405198661023595
Hg 15.035649918265923 17.5105261832584 14.645789151637766
Hg 11.379544628707928 9.020739075068173 10.928674167325527
Hg 10.222905723504049 14.089382309356075 12.613371068177509
Hg 15.73631692387138 14.626224011911916 16.40433284820374
Hg 14.557121936706114 16.603329613662186 11.272872010754616
Hg 12.601020544632098 13.380283354488823 17.485341138870986
Hg 12.805462742800845 11.67946400468038 12.678711292365053
