10
Energy = -0.47437261 eV
Hg 11.279706962861285 11.570016445733554 8.119191000592688
Hg 12.767005886544592 14.262514049927603 9.458809801366177
Hg 10.096619141178502 16.131360035086477 10.312045119510776
Hg 10.443308568869904 9.36126250547415 10.518937562008452
Hg 13.217633745148467 7.483273287349539 10.72601881437929
Hg 10.374438266242993 16.42433274328024 13.640582579080629
Hg 14.556272406760586 8.204456825113047 13.742938738636653
Hg 15.135428180777064 11.515930430397882 13.626166555052816
Hg 9.988623819793489 13.281212883137238 14.777866451261204
Hg 13.06274978609015 12.687427558767164 15.999230142378059
