12
Energy = -0.58759098 eV
Hg 13.423784756172303 18.31068266394893 11.366451823769983
Hg 10.853627133447523 16.637762322084132 13.162508589267635
Hg 17.54503593902405 11.706743888730571 13.434643384966854
Hg 12.900389461807633 12.96017065830781 16.521233541602466
Hg 11.881029470839925 13.44724952123984 8.28543841881976
Hg 13.18198966865139 14.749484390523213 11.355505524684231
Hg 14.982676158831975 10.356850643542142 15.485521148485848
Hg 18.062701854094456 19.35008385177564 16.7607819054317
Hg 12.90623383991717 16.018077100069085 21.154520386032306
Hg 19.350886909393196 13.945661797735387 15.4799165215952
Hg 17.260115776904666 16.560553170704832 14.461382420184023
Hg 14.71148437164237 13.42935905770559 19.55290650939921
