11
Energy = -0.4413591 eV
Hg 11.786019123968837 12.305155594319027 0.5737674404514278
Hg 14.016632499449061 17.36959500065143 10.457465023296978
Hg 11.459321784015485 11.433031813730702 12.182911332783098
Hg 18.22762101662307 14.456495947683736 12.585527010355385
Hg 13.953652680122223 9.331457816026857 13.740806998801766
Hg 15.508890989803366 12.824790320752893 0.5412888128597588
Hg 12.51619948273486 15.679687542145345 15.552418534146412
Hg 17.489818334664967 17.46108723512782 11.036697647070703
Hg 10.00554941817359 13.43943531629079 14.574953130252267
Hg 12.389216250907035 18.37444843980842 13.338432724003283
Hg 16.946795724246268 11.71658051967814 10.533694088969511
