13
Energy = -0.93147047 eV
Hg 14.368158453794969 14.969783165344243 10.094861058035402
Hg 11.816774174487376 10.373568777831535 10.965686785378224
Hg 15.15479828508084 16.49453505028599 13.155560000404213
Hg 16.50919869729563 12.29336869258225 10.85488167452076
Hg 17.74770213978271 14.25633221840628 13.389060077236099
Hg 11.20756230243656 13.720586435627075 10.451407995698863
Hg 14.655912920766323 10.15638040580934 12.805998835633856
Hg 10.300193890760003 15.034974255296602 13.494444427801781
Hg 9.536540117895944 9.546192472344599 13.384555081411222
Hg 13.07197497848701 15.01698575139283 15.449317916618465
Hg 8.594946935447634 12.462721592589519 14.953939803574311
Hg 14.058403646488197 11.757852626242395 15.771238765575344
Hg 10.98405285268965 10.410146422274076 16.425633360452384
