10
Energy = -0.6900054 eV
Hg 9.463108377298814 8.885300966656208 9.83561219714341
Hg 8.666005510524005 12.005903149414223 8.789714476061873
Hg 8.448313113813343 11.208868974531876 12.182081934285584
Hg 11.942484039065283 10.96025030979002 8.521663177759065
Hg 15.758310884637437 12.495343504432087 15.656568789789565
Hg 15.030252969036045 15.612455452836965 14.528608663728159
Hg 12.499533167478615 13.594440824337827 15.87454504794496
Hg 12.749808121062907 13.272631306245671 11.000983315018077
Hg 16.005949715119826 13.230308292366422 12.243994659163482
Hg 11.707417799730608 11.234639997348049 13.419630288520693
