11
Energy = -0.79584922 eV
Hg 14.043143593742863 13.367692260718723 8.204556805660092
Hg 12.207361343883843 15.163830006703312 10.426280439613247
Hg 10.332729696751583 12.397801997758382 11.041057774447117
Hg 16.681636521793667 13.468032376581272 10.370216342759319
Hg 12.642223511833553 10.087806259747477 11.991970697673837
Hg 14.755724119587025 15.131193138369925 12.794360678609376
Hg 8.765798979377537 13.310725062370594 13.940142937438111
Hg 15.37963041038683 11.823988876044286 13.106061166873552
Hg 8.348760947138329 10.262342996154578 15.42995403606588
Hg 11.676514807581018 9.431971600260294 15.203752154270155
Hg 10.72188851261605 12.421395560264472 16.610051534680114
