14
Energy = -1.32102304 eV
Hg 8.367327599305005 10.0869255 12.48812015268502
Hg 8.348900746679096 11.832663322000158 9.270815942196185
Hg 10.0869255 13.334552635299088 11.867893409401503
Hg 10.0869255 7.055181098243185 6.533531663675337
Hg 10.0869255 6.839298364700908 11.867893409401503
Hg 11.824950253320903 8.341187677999843 9.270815942196185
Hg 11.848182939147256 10.0869255 6.108154564507685
Hg 10.0869255 13.118669901756808 6.533531663675337
Hg 11.806523400694992 10.0869255 12.48812015268502
Hg 11.824950253320903 11.832663322000158 9.270815942196185
Hg 8.348900746679096 8.341187677999843 9.270815942196185
Hg 8.32566806085275 10.0869255 6.108154564507685
Hg 10.0869255 8.339993607058823 15.069147032314824
Hg 10.0869255 11.833857392941177 15.069147032314824
