15
Energy = -1.49632575 eV
Hg 11.502695564384652 8.881252841691715 14.65087682359827
Hg 13.884837376874106 10.031168203599528 12.33183766834373
Hg 13.671123286311886 11.490427610497887 15.719471707606635
Hg 10.73793958760852 12.321395815556233 14.099005720332643
Hg 10.539823375467469 9.955181559548874 11.244032823187062
Hg 12.580131579525885 14.788361532768828 15.95510731478382
Hg 13.92066420120676 17.11028749034878 13.383158816589216
Hg 13.101837744956434 8.972641756126759 8.932507570704031
Hg 10.75466029585976 15.805786213388064 13.102499235517898
Hg 13.858806246433867 13.626775255494476 12.860040795569141
Hg 12.823590853487078 15.86150713405577 10.228927247901394
Hg 12.309281432201507 7.019922682940489 11.770868844356226
Hg 13.238054961473127 12.411485006657038 9.69238481988448
Hg 9.996072647927747 13.470535197428989 10.720787075915093
Hg 10.476071305882435 11.254636508944367 7.920972406095881
