14
Energy = -1.37066849 eV
Hg 15.454642822508172 10.37248 10.37248
Hg 8.551143374419398 10.37248 12.134115189597468
Hg 12.193816625580599 10.37248 12.134115189597468
Hg 10.37248 13.492690857599687 12.172284700933512
Hg 13.42822048685425 13.201860633101115 10.37248
Hg 10.37248 7.252269142400314 12.172284700933512
Hg 12.193816625580599 10.37248 8.61084481040253
Hg 8.551143374419398 10.37248 8.61084481040253
Hg 10.37248 13.492690857599687 8.572675299066487
Hg 10.37248 7.252269142400314 8.572675299066487
Hg 13.42822048685425 7.543099366898885 10.37248
Hg 7.316739513145752 7.543099366898885 10.37248
Hg 7.316739513145752 13.201860633101115 10.37248
Hg 5.290317177491831 10.37248 10.37248
