13
Energy = -0.92223422 eV
Hg 10.931603111669345 14.456311902343128 15.006138736921075
Hg 13.184904148650904 13.358171650583506 17.30263278055313
Hg 13.23925904938919 16.56345319652755 13.553037374841704
Hg 12.161613451614746 16.466642983895117 10.312432436788532
Hg 11.576333417724193 10.494178345661561 18.090131398250815
Hg 10.623882576243117 11.772019617476024 12.892676523803386
Hg 15.030637715193285 16.247745459553823 8.449716967137329
Hg 10.922040254350149 9.113498611290986 15.075295015538167
Hg 16.17617258070374 14.795332011611464 13.46753111063011
Hg 13.11373254639501 13.449746081329339 8.999648557161436
Hg 13.569924507433676 10.084262867129912 13.096788302733271
Hg 15.495580441117783 11.901960469519418 15.264461420528345
Hg 16.294960708863492 13.6186651742117 10.257078744731595
