13
Energy = -1.04390227 eV
Hg 11.260185552843353 10.18860769098317 15.292445534511215
Hg 9.616863357071752 15.016691237105263 16.397505837310458
Hg 13.956828523194032 12.049811785427984 16.55787070869719
Hg 9.094274780732071 12.571771308232295 14.225354475477685
Hg 12.899765012846983 15.284278495560901 16.19498445267805
Hg 13.403832803795725 9.665897883740664 12.615750390629822
Hg 15.530681518248379 12.32784258037111 13.157689180439691
Hg 10.43478927648919 13.913999318092136 11.51253908489234
Hg 11.513726602513879 11.007502089815068 10.216159849830316
Hg 13.390463895289074 15.012908337260987 12.659023195361668
Hg 16.855448348731585 12.328883652022474 9.939284093781243
Hg 13.955175007321609 11.801321506515473 8.046204386192365
Hg 14.660883956320857 14.993478231683998 9.183125086740342
