11
Energy = -0.60106099 eV
Hg 11.837931903023497 18.12736284339701 15.50469636259034
Hg 9.975362349203612 14.925324708201265 11.046378293034296
Hg 15.212948423418387 11.559691562602621 15.472110212501528
Hg 11.058893845456712 10.254011896364833 14.421581059378862
Hg 10.695798448755294 11.386263215901868 11.061330364887834
Hg 17.27158465916732 11.826275861670013 10.476480061730738
Hg 17.83250000606296 10.22626526607715 13.437680873457811
Hg 16.260046676255307 14.690536254514875 16.789743161295366
Hg 13.925103105347791 10.758062608271237 9.99609239653988
Hg 14.959401596672292 17.036023880004382 14.44151548931257
Hg 9.155849116163836 16.488816826806495 14.147793713836798
