11
Energy = -0.58878459 eV
Hg 10.183148850866333 16.94410118383526 10.472571215742905
Hg 12.88711595073892 10.508091298838309 16.41058982084559
Hg 11.560581022878697 15.568834441663462 15.557990147004302
Hg 12.664782361383338 15.276283396437696 12.155271190236393
Hg 14.239140843971438 13.712036216736019 16.908738780145452
Hg 12.344088981262859 10.760030800412528 10.770600934208975
Hg 9.408764817590065 8.608482443199643 10.482960314906979
Hg 14.243339501983646 9.407519880767827 13.422481531842754
Hg 17.709920791115685 16.946253846683934 13.430648187174105
Hg 16.09600936770014 17.980199971889967 16.394936619389814
Hg 18.79878557305387 13.677552708361985 13.714022371475565
