12
Energy = -0.89591888 eV
Hg 17.681581720588355 14.377308918812332 12.818138584109553
Hg 18.21020115037107 11.551513061100971 14.616926810416873
Hg 13.603586284292211 14.058554279100282 16.351001646194483
Hg 15.138741590812526 11.046928399293783 16.106320650741598
Hg 14.861970220550926 15.936567357813319 13.834290041973395
Hg 16.939579865351526 11.349692789282573 11.314497771299804
Hg 12.583020063007075 13.862031041406825 12.347493301425981
Hg 13.869566950192082 10.782273380236756 12.833877769841418
Hg 10.478821202229058 14.428646710557686 15.042581311336843
Hg 9.798515309614851 14.386315606562075 10.265180598865292
Hg 8.088636667961277 12.902063104596465 12.877140758863131
Hg 8.488761303056707 16.397965334686358 12.840471682838654
