15
Energy = -1.52050558 eV
Hg 10.997881211448318 8.041652780047837 13.227424936064201
Hg 9.464114656342268 11.255042053316052 12.750298613085052
Hg 14.711247829453693 8.497560453287255 12.920387865941837
Hg 12.449795893528634 10.009116893740178 10.758311799621882
Hg 12.768102480928434 11.061201095154432 14.05544344117789
Hg 10.915894024927837 13.878364496551695 14.67110458331266
Hg 15.413330511822192 11.708374224283643 11.741213755603898
Hg 6.900917846344524 11.721292225097937 10.434847906064046
Hg 15.570487784672363 14.963185856092101 10.763794585501843
Hg 14.497620013758647 14.15100706579785 14.194376052903632
Hg 9.086757377133504 8.888708738215453 10.235271595259714
Hg 8.71714398816183 14.509297509562652 11.742712014201839
Hg 13.611820953553877 12.63827955741145 8.741286683929072
Hg 12.25618335322968 13.946277524245382 11.564276232618331
Hg 10.149044742108503 12.212712863716014 9.389303144504797
