15
Energy = -1.03865597 eV
Hg 12.017859968417042 10.921869466025562 8.342498754769107
Hg 15.32439768937564 11.690611744394262 9.083658471214092
Hg 11.200593786823672 8.610638179479002 10.914196738709519
Hg 10.129058710245298 13.525417646969338 9.635413285703931
Hg 13.017411226721487 15.381196067397966 9.894928976260177
Hg 16.893557912082876 8.852212566209987 10.657490297347524
Hg 8.125346059299636 15.846905682462 11.439296800169993
Hg 15.07014295137208 13.562637354668508 11.971230114286964
Hg 16.63739645572536 10.926494000398845 13.534504193237424
Hg 10.918030102901335 10.945704013168614 13.505678208749442
Hg 7.31746549235485 13.52131114724912 14.0216423757412
Hg 13.76234850920049 9.702647108877853 15.079877827107032
Hg 14.54508918617526 14.817401546063577 15.06926039054922
Hg 9.179859437587002 15.065790966594689 16.616942040322243
Hg 11.975492730830952 12.743212729153768 16.347431744945553
