11
Energy = -0.87218112 eV
Hg 16.071084225792937 15.234891246002643 9.840869951436105
Hg 12.85021516521413 14.1620897277756 9.08676378782355
Hg 16.04902840828762 13.566564998990561 12.824783615498415
Hg 12.82921782441254 10.901105332226724 9.650586173495887
Hg 14.94223875820507 10.42274560810966 12.294457605987896
Hg 13.580503896427318 15.76296319177394 12.03987500383652
Hg 9.741634744092313 11.20786025224797 11.227310356676053
Hg 12.580189447726758 10.69453073084398 14.912472782535984
Hg 10.163776387527806 8.54898242949124 13.611365211633844
Hg 10.48815741707164 13.358575881329491 13.888799248102291
Hg 8.354942067870219 10.9562506759665 15.46672761487702
