10
Energy = -0.61018619 eV
Hg 13.208107101930993 12.13404687055254 8.048520135662725
Hg 8.392888784818787 10.24093231834963 8.315674161741395
Hg 11.579061063125737 9.154493264221202 7.23904234758361
Hg 15.647780096205862 11.578804583999139 10.4413402363297
Hg 7.826394523783509 8.606395674751168 11.303596630266158
Hg 10.577564748762365 9.721850255077442 13.169696894003364
Hg 14.535777549407282 11.54864510496731 13.699730505672731
Hg 10.52647457922618 15.080258079979107 13.436731532895555
Hg 13.771130778113948 14.813658623958258 14.528919401951772
Hg 9.178802842775267 12.364897292293584 15.060730222042784
