10
Energy = -0.49240228 eV
Hg 13.173152400449663 10.55074632374177 8.61929204773373
Hg 8.313716099922273 9.069014702011883 9.75745879791941
Hg 10.231929169094629 12.063235879169122 9.355941190849975
Hg 15.063080119096 10.561139997904199 11.459459238378042
Hg 16.344398747862893 13.645010776871013 10.993945718967138
Hg 11.539211740167248 15.379091546326908 12.73172627230478
Hg 14.853949150694943 15.083525447842282 13.64891202938721
Hg 7.798333234957049 9.285378765041408 13.150341406591812
Hg 11.005512593235604 10.012806999066862 14.015015863207232
Hg 10.533182995622889 13.206515813127718 15.124373685763707
