13
Energy = -0.9449836 eV
Hg 13.125246957388274 18.926611009704644 14.444027497224761
Hg 11.93439351341506 17.238941716402994 17.25970269235669
Hg 10.441319810364558 16.856273278320526 14.236925113246205
Hg 14.63700777922598 15.035891280183627 17.060959613450347
Hg 15.808328528824987 16.701238618597156 14.238840681956576
Hg 12.876428260543676 12.390194836250789 15.903959747181657
Hg 15.527155098338694 10.586029462520488 14.833087489583106
Hg 16.707866180374157 12.23277198835615 11.999042342204184
Hg 14.685657729628822 14.91560314220813 11.587498521211927
Hg 11.817984315563281 13.67178129803428 12.927751313459918
Hg 13.712445460836813 8.393914092126344 12.820269620121739
Hg 11.717307092570216 10.495608327691698 11.048044269846699
Hg 14.90491944994863 10.035054624172083 9.974327112867526
