12
Energy = -1.04860722 eV
Hg 10.358729325050192 5.548606407613682 7.876429103266219
Hg 9.402152577794332 11.338946166751356 9.423477377458456
Hg 4.223326577078324 5.850263281267806 6.388238655423833
Hg 8.528035098133532 7.949242635104144 9.45199648981739
Hg 10.621648555654486 8.624565525730482 6.273552626295181
Hg 6.644190247477054 5.121674730904127 8.881201640310238
Hg 8.094730420172473 10.129878608551255 4.562764310378541
Hg 6.572327586952966 10.332554123395246 7.599110703326352
Hg 7.462874152252438 7.146295477355884 6.159303035818688
Hg 11.797197941660746 8.886728628105274 9.481736783583234
Hg 5.142019024533992 8.188898745636344 10.104307735766328
Hg 9.675563606081708 9.38594261034789 12.330488780358008
