15
Energy = -1.5055342 eV
Hg 7.592710906100463 9.384879715915787 8.309022954419497
Hg 7.764802027556671 11.587359950086228 13.01575535781576
Hg 10.580949786063155 7.740078245099699 8.064769291009146
Hg 9.432560110847023 8.784376140391284 11.312265477897776
Hg 10.639081368268062 11.250312535198104 8.699911606837315
Hg 13.297646139833386 9.902428853857154 6.958323633244889
Hg 11.136426929257587 11.694320870455412 12.093618456925048
Hg 13.836763887198012 7.5444486793146455 9.412998992160052
Hg 11.327138077137642 5.903050667185641 11.100191864944936
Hg 5.930609524511998 12.008118054228836 9.985572840140103
Hg 12.830258575991245 8.659352757904168 12.660419578072949
Hg 5.996358145362196 8.939426901820191 11.547771639956173
Hg 14.006364358009202 11.020055763889086 10.201889898862785
Hg 8.904115932995124 13.915981549753305 10.519180688916478
Hg 7.920914487379643 12.862508801877198 7.315007847052796
