14
Energy = -1.29896215 eV
Hg 9.21245101826164 11.675948202648334 8.54070199908483
Hg 12.779882644133432 11.699150448810032 9.179441654807732
Hg 11.57009733660745 10.407186642774068 6.117369361805619
Hg 10.444275468218018 11.509986238884323 11.88158816438741
Hg 9.356198531781983 8.29048776111568 11.88158816438741
Hg 11.599004445918933 9.37685693999836 14.399492739149347
Hg 8.201469554081067 10.423617060001643 14.399492739149347
Hg 14.092374530900823 8.687367437353377 7.96014973335923
Hg 10.588022981738359 8.124525797351668 8.54070199908483
Hg 8.230376663392553 9.393287357225933 6.117369361805619
Hg 12.902482587975252 8.811523845050413 11.222915347405841
Hg 7.020591355866568 8.101323551189969 9.179441654807732
Hg 6.89799141202475 10.988950154949585 11.222915347405841
Hg 5.708099469099178 11.113106562646623 7.96014973335923
