14
Energy = -1.30107039 eV
Hg 8.315677433699534 10.026628 12.453187791298578
Hg 8.290335836118654 11.764856070627879 9.211468421436642
Hg 10.026628 13.247082562336644 11.803388675431396
Hg 10.026628 8.229691968197065 5.993201373457129
Hg 10.026628 6.806173437663362 11.803388675431396
Hg 11.762920163881354 8.288399929372124 9.211468421436642
Hg 13.019782958395199 10.026628 6.515384616664965
Hg 10.026628 11.82356403180293 5.993201373457129
Hg 11.73757856630047 10.026628 12.453187791298578
Hg 11.762920163881354 11.764856070627879 9.211468421436642
Hg 8.290335836118654 8.288399929372124 9.211468421436642
Hg 7.033473041604803 10.026628 6.515384616664965
Hg 10.026628 8.281417634776846 14.99829690725162
Hg 10.026628 11.771838365223166 14.99829690725162
