12
Energy = -0.61914226 eV
Hg 13.33976985613466 17.489154007037236 15.478693524176665
Hg 17.535097140936017 9.581210254338009 12.535671787375575
Hg 12.691161655429333 10.05547518614107 13.07192840047322
Hg 16.620130188825826 12.608616632153561 11.154720803559684
Hg 13.76211124481841 14.481369716285025 17.1894300178856
Hg 9.84980338859768 11.153783386170437 14.856895758338908
Hg 17.36610352645097 -0.04708394650366189 14.62967411497996
Hg 15.719453907676527 17.55584943246276 12.993303204309846
Hg 13.192029166770826 12.61898700272241 10.806464835988471
Hg 9.754673599662864 17.075161966633104 15.181843991065001
Hg 17.858990065986006 14.837201068267873 13.56829031964274
Hg 10.389991929655809 13.446630748954131 17.51416140586358
