25
Energy = -2.50777861 Dir = /p/work1/plile1/GA_structures/Hg/25/all_candidates/2612/
Hg 8.811068468327239 7.647812421390695 8.84061320057097
Hg 8.746943474770184 9.856404671582986 13.624234570442168
Hg 10.547830017307325 5.976683488221696 11.44328244399062
Hg 14.128210054261178 6.509244918227335 6.207129687991764
Hg 6.572813630495013 9.482006874110983 7.0384067051543715
Hg 12.441253765121653 5.633771245029334 14.313532917454227
Hg 8.84477647293692 11.304101765162336 9.107597852624554
Hg 13.213601714040035 9.82681032461938 6.905952186422577
Hg 10.457103809432075 11.572391111778115 6.045375713434038
Hg 5.49767766817316 11.864690149909753 9.418394226521395
Hg 7.9091416184247 4.432899659258524 9.847506174142577
Hg 7.9387700347199575 13.838693771279834 11.160121248992807
Hg 12.619301096549128 7.357393985435915 9.147900436510126
Hg 7.218161164550998 12.830169695146754 6.470753909997018
Hg 8.994225673649433 13.177108377622286 14.418807739604492
Hg 11.918043186685852 11.312308483830991 13.533814660673116
Hg 13.504766066100178 8.313288532491253 12.427369022161955
Hg 10.69089131641326 9.473290386088301 10.962985853787057
Hg 9.98433798055123 14.372361657954853 8.229400687431545
Hg 8.417351900522933 11.911576075834615 3.263547860486394
Hg 13.314070562482797 11.304627035700136 9.97083662819207
Hg 10.82575357999824 7.603297345577457 6.126731011083515
Hg 9.208688453664958 6.6774041382616245 14.511269973019576
Hg 11.364358673119023 13.828827825214503 11.326967077533196
Hg 5.987400558292879 11.63495517622908 12.85596270170418
