25
Energy = -2.86675551 Dir = /p/work1/plile1/GA_structures/Hg/25/all_candidates/855/
Hg 8.87261069458906 12.567468119260004 5.1030119722700205
Hg 9.685646974097946 9.15263799306047 6.141022287899478
Hg 11.805087761615706 11.783679643866334 6.741799457307637
Hg 7.771480599737644 6.634876712450151 7.242987928001242
Hg 13.396081200200918 8.63092181641035 7.545011045331971
Hg 14.97848152389318 11.800681812493938 8.052861945425695
Hg 8.554897144902863 11.49935619031061 8.265111471841108
Hg 10.491248852743823 7.800425838076893 9.229603221805826
Hg 10.767062946412445 13.739254579207422 9.391418261490895
Hg 12.356936546093518 10.91054246526937 10.206043632694861
Hg 7.259292889292616 8.618513158788883 9.916146611454666
Hg 5.873880914874483 11.577533642028339 10.455975885138384
Hg 9.090047342864954 11.525033022092657 11.492391866584851
Hg 15.531858091268354 12.868186468606835 11.269274357059015
Hg 9.92390013091388 15.823157329559507 11.800573612452663
Hg 13.079942805935588 7.840233165508544 11.789896554306216
Hg 11.023506053657888 5.097646928548568 12.065040354529483
Hg 9.134950079230064 7.814193630830712 12.60346372513215
Hg 12.85242271239452 13.962595210104903 13.131417968129222
Hg 11.235181729793103 10.414619198933705 13.701527090412783
Hg 14.499267059070215 10.484014055066245 13.637197037515191
Hg 9.664436994291027 13.457135787821121 14.226055470902443
Hg 7.840852842532905 10.461052253323128 14.47877476470661
Hg 11.024666167207826 16.590090949127163 14.812827114319758
Hg 11.570645018535687 7.2305351054043525 14.984951439438031
