20
Energy = -2.16421605 Dir = /p/work1/plile1/GA_structures/Hg/20/all_candidates/3355/
Hg 10.685362151135973 9.075422324708246 4.487175032821089
Hg 12.860183323470403 10.394219320920639 6.96925153203727
Hg 9.601107634601643 10.9509414173451 7.19558017281236
Hg 10.663396503408915 7.741601865662846 7.706383461231235
Hg 16.012761907109905 9.288053741901415 7.988720211013115
Hg 14.95097376597407 12.300362342078698 9.052606877441232
Hg 6.937404362946774 12.276843533013237 8.822078768435379
Hg 11.723255987855797 13.327100577042373 9.053291034794775
Hg 13.34009711666066 8.261660615527457 9.878676970857905
Hg 9.937976231934838 9.901449706206979 10.42472379078866
Hg 9.076239492284419 13.320485925255964 11.238243194364284
Hg 13.047300208251283 11.177074648695625 11.524675761847373
Hg 6.677002627226758 10.147960165983186 11.51900092343222
Hg 12.514243899227504 14.412669138051543 12.275213390324703
Hg 11.712322671473254 8.126298200045339 12.7734528927026
Hg 10.666049742078394 11.818040154857544 13.84147646957644
Hg 8.618232840695484 9.079778763165976 14.162887460667147
Hg 7.2524210378872915 12.537449902265228 14.12859676909559
Hg 5.299456036006707 9.848132734607457 14.678985173941347
Hg 11.987914756397778 9.578157219293455 15.842682408443432
