25
Energy = -2.75741372 Dir = /p/work1/plile1/GA_structures/Hg/25/all_candidates/2118/
Hg 10.647270524347043 15.9708811042529 4.8195578713675395
Hg 9.082128292168957 11.000125915855634 7.736595012233748
Hg 10.35770669215965 14.109704767351758 7.730949944645971
Hg 15.432338209691126 10.12497485619887 8.018672803289967
Hg 9.537661048901777 7.695414324592079 7.47540602786157
Hg 12.753812222130023 8.060492589268677 8.26572289542511
Hg 12.412636923201887 11.694400811963972 8.823999416870006
Hg 6.385888615477272 13.027642054615173 8.533760664323252
Hg 6.672367723033678 9.059105122937478 9.103995590653675
Hg 14.931353067326489 6.112099073794004 9.918968273376247
Hg 11.169907790898264 5.796218807645651 10.108678781362048
Hg 15.369614853232415 13.019924516892255 10.14422899676165
Hg 13.839497493539351 9.842561339282259 11.178640197833536
Hg 7.182630780458334 11.41738043667512 11.663671755488016
Hg 9.870325926404613 9.312444138450232 10.65003373876059
Hg 8.754276941883491 14.337243398040167 10.706657598929821
Hg 5.378833196674032 14.374302395388025 11.726031607287041
Hg 11.433185971146715 12.499493421068882 12.170443300155274
Hg 7.728179686766399 7.763758062699358 12.92915971536975
Hg 14.435067689504086 7.180209378998246 13.295141324150208
Hg 11.10322479993659 7.202952521216835 13.102565592865906
Hg 12.833558293006762 9.880241937131599 14.409060477422587
Hg 8.008915177241473 13.614794637164216 14.129417707017678
Hg 9.518749015119143 10.386920897172356 14.132531335089881
Hg 11.435101229281697 12.79094565487571 15.500341534989916
