20
Energy = -2.13860487 Dir = /p/work1/plile1/GA_structures/Hg/20/all_candidates/1750/
Hg 10.41933652623809 8.75163774577616 5.657617615231479
Hg 7.536185681112527 10.68816824891164 5.857299991793136
Hg 14.104418422556003 10.645597366261274 6.4221648459477665
Hg 7.216381420540049 7.257433737080706 6.661502059668232
Hg 10.979207302664044 11.97384495319411 6.705525257023414
Hg 9.839444232062757 6.415077748286346 8.550713525176537
Hg 8.23323837003643 13.054625373771808 8.28761394161549
Hg 5.099966919366685 11.485742005293524 8.07995511590672
Hg 12.294314105983041 8.793114636533044 8.733236401371103
Hg 8.318897254483707 9.652194226953561 8.996486827707084
Hg 12.645952025015461 5.5984612499504145 10.172681319055785
Hg 11.172921453574878 11.519415989201711 10.394163017110872
Hg 14.417172035001208 8.54380334535193 11.490222261416886
Hg 5.353108676019891 10.716554959465281 11.48974068641133
Hg 6.8214592280461535 7.680262424091901 11.242958919946043
Hg 8.549045856051794 13.63978079990141 11.557386724437084
Hg 10.442943085027506 7.704558238165634 11.677683938665018
Hg 8.684838036837169 10.446277237323104 12.527918225934027
Hg 12.00615918122572 10.157823605108177 13.482230194547856
Hg 8.303016485496727 7.713632406717144 14.45090542837383
