25
Energy = -2.83710636 Dir = /p/work1/plile1/GA_structures/Hg/25/all_candidates/1099/
Hg 6.672553942163353 9.826904177826965 6.174954557844729
Hg 11.696495917440464 11.930784641293927 7.46063797858881
Hg 9.572162856513895 8.526827351473885 7.704928370501474
Hg 12.983212278223249 8.802656909662026 7.9791057697646215
Hg 11.681015266349394 5.639586895720975 7.707944729592846
Hg 8.270914724633046 11.672980213141281 8.5124126503217
Hg 15.149868205407808 11.20499385642373 8.795652950363852
Hg 13.807783499878347 14.424118843848445 8.77725549220647
Hg 6.663294456703939 8.788527446739998 9.526269235953253
Hg 17.036607455847836 13.851918487216455 9.567006567280773
Hg 10.385931117997922 14.404371776823858 9.268311530888653
Hg 8.49348240162931 5.5894269070152465 9.580610532927395
Hg 11.171869135073424 7.476382025895398 10.613441409713634
Hg 12.120143810890667 11.03346047466235 10.857253968760219
Hg 8.799665962116542 16.77002078596157 11.169605295586022
Hg 7.798967731886894 13.5489181577895 11.424519074274913
Hg 11.184707815416093 14.366278710056353 12.489028014106696
Hg 6.153193928373716 10.662170112051076 12.49247186221294
Hg 14.652619879022843 13.317579443729331 11.915188097306169
Hg 8.26915966031856 7.957615497746215 12.46753422649522
Hg 9.517627721964352 11.173546284377336 13.28453330178193
Hg 11.931454184942766 8.56633092410829 13.761748407939791
Hg 10.105866551163034 5.635747124995109 14.322644616734468
Hg 12.726934434458824 11.932134536179474 14.293250014195257
Hg 9.035910557947485 8.778161911624668 15.735134841021306
