20
Energy = -2.22260134 Dir = /p/work1/plile1/GA_structures/Hg/20/all_candidates/956/
Hg 11.88678928258767 9.740966190101433 4.141124890203444
Hg 9.53568530023038 9.752986054720868 6.607861314662767
Hg 12.12778794673643 12.182135557424571 6.436454935803314
Hg 12.684506642085692 8.722340304557369 7.382198032945922
Hg 6.606078514327301 10.843952686764291 7.926825194044652
Hg 9.51992679719636 12.401957592402702 8.971987942257602
Hg 12.134311434714052 14.552397942767804 8.997219448040061
Hg 12.661346423613438 11.355781629971887 9.7533888702223
Hg 8.716298884109788 9.256288878559962 10.01978336428436
Hg 14.511906574232135 8.689010814868045 10.527842234371946
Hg 11.413823444103723 7.15217374323999 10.083042297996888
Hg 6.847145324646895 12.395335306834381 11.087605119631185
Hg 11.067948689931752 9.921438025345726 12.438058315620179
Hg 6.999968982822962 9.728696272333874 13.211137814582743
Hg 14.263797848968323 11.31818330066749 12.92625099266571
Hg 11.399969536960443 13.239172437861198 12.542119092375762
Hg 9.220464673566703 7.125337263302973 12.683831850371265
Hg 8.471590464655327 12.657157795079558 14.059093973222309
Hg 9.24552749140607 8.737144401943365 15.809371646216945
Hg 11.811752760522104 11.354170818669607 15.521429687897282
