25
Energy = -2.82333006 Dir = /p/work1/plile1/GA_structures/Hg/25/all_candidates/898/
Hg 9.361751755350216 8.322537533213843 5.895352647363191
Hg 12.276697866105447 10.206040172261552 5.881387183064349
Hg 8.81693955362907 11.693645178389882 6.443337686833224
Hg 14.457391411035145 8.324821223512288 7.756870196571403
Hg 13.623031962697034 11.952484620630859 8.538602273070929
Hg 6.999451363861641 13.62098349083191 8.838952179335692
Hg 9.612177070469913 6.61539306107487 8.861133170276121
Hg 8.03218712710016 10.43068992709464 9.656325632103616
Hg 10.34898315942374 12.816793218921227 9.15101416115489
Hg 12.606753973770667 15.211836126535767 9.661061598483688
Hg 11.501919737464027 9.329294711237482 9.115311841330376
Hg 16.805023714044065 11.78308691542252 9.662464330603434
Hg 8.086978406501691 7.778528850071982 11.79049176660079
Hg 14.98318385621858 9.150583975003943 10.994970307402102
Hg 5.130177700662939 9.65060306169155 11.504911960504574
Hg 10.999727991052293 10.164188771907115 12.258975504900805
Hg 9.899286130824215 13.634621294621008 12.413693431869236
Hg 13.587311747243598 12.573331392243578 11.892713458624597
Hg 12.528141688532058 6.973657171374369 12.033514417540788
Hg 6.398939858175498 13.818090421799251 12.311345200172246
Hg 7.782751821992757 10.740758250325902 13.369230880321458
Hg 13.879497908095729 9.88720932742597 14.174048318993338
Hg 11.241858710150922 11.772343162299313 15.271643375169445
Hg 10.691755968548 8.061831670725391 14.974627113794096
Hg 8.269465753191742 13.40803270752515 15.469407600056035
