25
Energy = -2.76713859 Dir = /p/work1/plile1/GA_structures/Hg/25/all_candidates/1890/
Hg 7.437617290996107 13.268153819640622 3.7225021454974674
Hg 15.114631063838345 13.486848508910239 7.199514961511263
Hg 14.921566273818348 9.83342210650446 7.695218184177043
Hg 12.185016444323727 11.687920790954955 7.967845071823841
Hg 10.060515028046586 14.316690237438504 8.23717441194118
Hg 9.324151460301138 11.396331993998636 9.924898178383875
Hg 14.593197719455139 11.930837881749419 10.36715339285622
Hg 16.177231258182253 8.507095847559428 10.892626313710469
Hg 12.908510791345904 8.245717642947083 9.84432017896051
Hg 9.860627871731179 8.069091014225068 11.403003308578688
Hg 7.751849972985347 13.803255427137564 11.939196869868171
Hg 11.420904855569555 13.815957617161995 11.303196321310867
Hg 11.872872861971452 10.604907311964066 12.47502289572337
Hg 14.05019982709459 16.6721146720878 12.440990665129066
Hg 15.410067772851539 10.600507477063484 13.50712296402589
Hg 7.956568766447913 10.369955804392937 13.011473537207179
Hg 13.811330248700381 13.552132408781596 13.764874838314979
Hg 9.825793533270174 12.742374048631259 14.594216751163154
Hg 13.518428376210046 7.707283927105929 13.49805494225659
Hg 11.164162008679186 15.871139857355287 14.065986928560534
Hg 10.362223638541016 8.770069088572626 15.078944010959734
Hg 12.761883386325454 11.108735489633622 15.895394072273774
Hg 15.883543074685308 12.4845729488073 16.369459767634094
Hg 8.507656303631572 15.626909591509884 16.184230328924937
Hg 11.670585274989053 14.079109589858799 17.1687140631988
