25
Energy = -2.73435845 Dir = /p/work1/plile1/GA_structures/Hg/25/all_candidates/59/
Hg 6.991741760670119 8.00714539951463 11.266726733858029
Hg 14.67372530553028 12.572382028383034 14.44286057705572
Hg 16.314871689730712 6.946646502468985 11.011880610486322
Hg 12.883470818326241 7.772056515080538 10.994012694066726
Hg 13.883952203708347 13.849663024014278 8.56946187241343
Hg 14.975494987591798 8.588035488415159 8.331265899909372
Hg 12.578398946448509 12.260527279616268 11.531554360599813
Hg 12.297885197391786 15.189958536231886 13.900381041692883
Hg 9.382614347303958 12.31853304022749 8.59042391613025
Hg 15.51754553170956 15.798781060642568 14.77429236053054
Hg 11.261531387920815 15.23213785043755 10.465280911545038
Hg 15.241509049200522 9.893992653999186 12.524351454748427
Hg 8.03295476178001 4.627992445706343 12.04784089591821
Hg 6.181596781812357 13.115776320584066 13.927625359074934
Hg 12.319679267580634 10.689071663735287 8.570492258411251
Hg 9.484592982510714 13.372318795328935 12.838132565486129
Hg 14.963565096386697 14.969371595400219 11.560899283105535
Hg 7.789169015083103 14.911452370867275 10.161890453949626
Hg 9.981729892951344 9.636569739577373 10.989654697198793
Hg 6.961162899866146 14.438461671994354 3.799817730660564
Hg 12.055942040004744 9.918515982450153 13.918859116606377
Hg 11.749497604096824 7.476923126591568 7.770423846582618
Hg 8.337132792545207 10.391986566430235 14.143020930914037
Hg 9.902159731763753 7.256765219261897 13.613552058746437
Hg 6.989682159564529 11.516541374519587 11.006904621787626
