20
Energy = -2.14439091 Dir = /p/work1/plile1/GA_structures/Hg/20/all_candidates/3131/
Hg 11.487759740679476 13.61743659964506 4.852556951374803
Hg 10.941638708280863 10.401343986480837 5.917108161263983
Hg 16.015352451702494 9.632801101334143 6.94386430783936
Hg 13.6404778580737 12.247800820818131 7.201050070239292
Hg 10.436229040680056 13.081050863379645 8.250820139819389
Hg 13.092200766754248 9.077054938241359 8.532532771971962
Hg 9.867961630812006 10.095010560738348 9.617018212038543
Hg 10.871113586220442 6.920355921299933 9.887661754758156
Hg 15.228747164416019 11.205534524031053 10.103368724576846
Hg 7.473700438187327 7.72150489468385 9.252125611566328
Hg 12.115231525467463 12.022623013809003 11.214810299617469
Hg 6.153054177493084 10.110260458507215 11.718711860271892
Hg 8.611503037665074 7.747022125906952 12.47003645938075
Hg 8.78285641382052 12.539203849417099 11.748450862385164
Hg 14.139669717587498 13.068057972685862 13.810840986407428
Hg 12.823633180139177 9.873180583694182 13.7946146800195
Hg 5.64040740518583 7.7375388366994455 14.170616858454387
Hg 8.035093377389362 10.375482037773297 14.63978196332929
Hg 10.77726587237039 12.541848443092341 14.640888447296156
Hg 7.51662597326901 13.635410533956254 14.88366294358318
