20
Energy = -2.18670183 Dir = /p/work1/plile1/GA_structures/Hg/20/all_candidates/1337/
Hg 11.21155247870759 8.821546110640526 4.596864575767074
Hg 8.488829899420722 10.705797865407286 5.640864105333535
Hg 5.191747544546646 9.398748694465985 5.893766614693471
Hg 6.1446967377394905 12.862177849840073 7.161733479183249
Hg 9.630311904542905 7.755537528488392 7.4879852262807995
Hg 11.283218967102966 10.705010696932458 7.484675560877852
Hg 13.304976784647847 7.523450295888756 7.486418132574431
Hg 6.438740680858073 6.71603478439372 8.287453505655355
Hg 6.949584806285845 10.074686740934348 8.6675203251658
Hg 13.857603339973062 10.179008067709296 9.690265655247012
Hg 9.107275366132633 5.384246770504229 10.145268711790385
Hg 10.58233641977312 12.242277497393053 10.405339636901946
Hg 12.051477976325089 7.217751831281936 10.670236991379975
Hg 9.102470335057864 8.870396227272792 10.811546027978268
Hg 7.222505386451497 12.034818718539547 11.454659931017156
Hg 12.91012703974826 13.119592017971451 12.607882438119658
Hg 11.738141544737724 9.923654879699344 12.848186546685893
Hg 9.898442065394775 6.783236856418878 13.360681060583167
Hg 7.7587405404941965 9.635471427982685 13.955693689158393
Hg 9.658209251866666 12.57754420804194 13.873946855413958
