25
Energy = -2.75533384 Dir = /p/work1/plile1/GA_structures/Hg/25/all_candidates/573/
Hg 11.897723449216768 11.656465400364139 4.780671140320936
Hg 9.620683690380462 9.939125727304654 6.717243354959798
Hg 15.483021974616948 9.08263937505597 8.023790213183462
Hg 9.838910930601996 6.98466383836494 8.31740828995253
Hg 10.184113818269829 13.388004901023605 7.27115771828543
Hg 6.746294595940284 12.385866482436926 7.55876436659525
Hg 12.663343254923273 11.142220542717038 8.012275911623636
Hg 6.825904264727115 8.895013099611408 8.367152635329527
Hg 12.6841911687036 8.275199917515355 9.790389621510073
Hg 7.973581826999836 15.22786503985341 9.081452729925129
Hg 11.419909924358924 5.249980220389686 10.889845320278349
Hg 9.044241573651506 11.184022015047272 9.83947992801636
Hg 5.48298325630784 11.625845080669896 10.859983811244508
Hg 4.996198784307546 8.04954918611951 11.164217740978291
Hg 14.567233571053555 10.914165615715605 10.767619968541378
Hg 10.651111862081496 14.729525449291977 11.095598371436784
Hg 11.131065317029602 11.56564139342828 12.440063894770939
Hg 13.756696661197175 13.712273557315546 12.466637598060695
Hg 8.082733491315214 6.489154444885307 11.351575186328308
Hg 7.981107481171753 9.643166020070545 12.717661462464651
Hg 14.305279128059793 7.064887998440365 12.493124811337365
Hg 8.019948656348504 13.189346769046706 12.657779065543059
Hg 11.068956517396211 8.110591858039534 12.739059747838862
Hg 13.917741380623196 10.349213442998751 14.021277933318295
Hg 10.60307518426189 10.091624387837319 15.521820941699849
