20
Energy = -2.16781473 Dir = /p/work1/plile1/GA_structures/Hg/20/all_candidates/1009/
Hg 14.262946486033764 14.222886633810422 9.704711850490224
Hg 17.422378685582704 15.279416230595176 11.016719280051039
Hg 16.612769944161478 11.89878540890786 11.002288066801466
Hg 13.159397947012044 17.41914556886875 11.042180533042561
Hg 11.069744323025725 14.487979121241679 11.328327379444598
Hg 13.164813917934705 11.573889243992078 11.806710135934663
Hg 19.82622951722377 15.568857177538678 13.429209991781857
Hg 16.932484516951575 10.208998622192713 13.968013069413667
Hg 11.297190535668781 16.598408943255148 14.235783238443002
Hg 16.65530933343843 17.160168281828653 13.710532764090763
Hg 14.219392240762618 14.752463393176244 13.134531508965308
Hg 13.714986954082516 19.072643680449485 14.203693576308305
Hg 11.804101524688896 12.894145134312229 14.751911863058993
Hg 13.682358610701598 9.944158696412293 14.793951597386636
Hg 17.187759163258374 13.509477317491843 14.442063750702902
Hg 14.488760324738845 16.641423379268815 16.378533902237386
Hg 14.696798691753507 13.354709039826039 16.644041268326113
Hg 12.088779760293567 11.037483933623655 17.70821649277066
Hg 11.576039528008288 14.754962144833556 17.6867928265689
Hg 15.838425025717813 19.320665079413452 28.712453935219965
