5
Energy = -0.18940273 eV
Hg 10.63008110191037 9.312693808746873 8.799457866939385
Hg 12.466943413446458 12.172532971828465 9.601986597373863
Hg 7.083519593117772 9.339045986806358 9.11088382785468
Hg 15.770839422355545 8.311567807392883 9.044818834287138
Hg 6.7335701484281305 10.11512680155254 12.638490585527196
