5
Energy = -0.28641961 eV
Hg 13.176517569912704 10.779737480149878 11.870389626150574
Hg 12.184791722903967 8.710679931197895 9.20854579538763
Hg 11.620542158063616 13.941396121093158 11.343214706463892
Hg 9.80656285800232 9.256531678607224 11.625106109451908
Hg 8.240617184708308 12.408350895626784 11.3448699924268
