5
Energy = 3.4302E-4 eV
Hg 8.232968657165816 11.951730978322324 10.101717225160781
Hg 12.022828881677057 7.225697624903467 9.862580662626547
Hg 11.167676761879383 10.021638545127697 9.64358172342335
Hg 9.723999280608503 10.532505715750426 12.278075192269908
Hg 11.39321893733004 12.704837364433699 10.703307382859311
