5
Energy = -0.31136192 eV
Hg 10.025342986588424 8.528651763588076 9.019018943217008
Hg 6.634760093821249 8.275706806390502 8.185900037107803
Hg 7.967284183278067 6.109406224957071 10.376473547002986
Hg 7.6997738644744445 6.149965490711339 5.610443127292473
Hg 5.816533515812014 9.079992809240752 4.9511948407183555
