5
Energy = -0.24041123 eV
Hg 14.515352183744389 9.887210896444126 12.64351482112504
Hg 13.729239540619604 10.193533965395051 9.208140667234392
Hg 12.556809364134203 12.544547231432942 11.500282935903037
Hg 7.794269399261616 14.062164623785465 12.75170349714047
Hg 9.497099792682217 11.022092795251528 11.943954599084108
