5
Energy = -0.19177652 eV
Hg 15.681795194276301 15.437315669226633 17.332521104154694
Hg 13.204639784311272 13.797679040476135 15.49624205752557
Hg 10.504581381255202 12.257016428711967 13.760389924570621
Hg 0.7606965614879166 16.7892645244775 1.8358950596988284
Hg 3.2355718443047263 0.7554610490718701 3.949671066022842
