6
Energy = -0.34950622 eV
Hg 15.010049482722438 13.490703416928245 11.598419052415368
Hg 12.230186151191129 14.809023455119402 13.257585885995692
Hg 9.451097963555275 13.489223157017618 11.598892244849457
Hg 8.937734936063851 10.217151989963309 12.460893530270708
Hg 12.228803403207065 11.162100374279985 12.006848971549793
Hg 15.525927837554491 10.21609156819035 12.461160089213356
