6
Energy = -0.3820237 eV
Hg 11.130779176952037 9.217337050566229 9.176541023560706
Hg 7.886971095644475 10.092955106562403 8.188151531228485
Hg 13.355393666353757 12.111220042378138 10.142304785125567
Hg 9.962759691203601 12.266237414712228 10.937487274705582
Hg 7.81816673384851 9.53362443549986 11.864084018628013
Hg 12.498107597559201 9.43080391184297 12.34360932831323
