6
Energy = -0.39176813 eV
Hg 15.052168450151783 13.687631384411796 9.998590346107788
Hg 12.32921667254891 13.715897136325818 7.7531246250167145
Hg 14.229806232701833 12.895762095469202 14.756568076617487
Hg 11.024809550834798 13.696557409096545 13.711362757364165
Hg 12.106574523702267 10.479687564789348 13.443359506890019
Hg 11.552404799486801 11.816062626799878 16.62664519497178
