6
Energy = -0.37633318 eV
Hg 11.776341093141285 8.794557910440954 10.136789746651138
Hg 9.910270016037382 9.88149670243774 12.805696408183671
Hg 13.104668032262941 11.195796451566753 12.29343076633771
Hg 10.648897918492876 12.012390760614899 10.126821252829526
Hg 13.893677455925086 15.471239407622985 16.012606202509225
Hg 14.698612329750695 16.803643697223325 12.803965501708207
