7
Energy = -0.43054973 eV
Hg 8.232277821886308 11.073058738312318 8.720492595929837
Hg 10.050792013351824 13.735484907660823 10.27568648614934
Hg 11.553648631479247 10.546042867668822 9.705590817202776
Hg 10.23204743565088 8.723570018516622 7.112950099626338
Hg 12.50610311168664 12.386706262372313 12.517156628531753
Hg 9.049620864239882 9.05751461334277 11.374292453382184
Hg 11.606131646518785 7.315839274995823 13.015620919986244
