7
Energy = -0.40198695 eV
Hg 10.69981010691717 12.922309900915694 15.126279612503767
Hg 13.244499242617934 13.39836214448422 17.41542652153751
Hg 11.917722240538973 10.24942431673005 16.91321409511225
Hg 13.870366583803259 11.715290910631694 14.482959530326223
Hg 12.669555010286176 14.252388673485779 7.91426807603222
Hg 13.518063828002974 15.352466278893411 11.133332614545678
Hg 16.063802757902398 14.134351219342925 9.070581061069069
