7
Energy = -0.54210623 eV
Hg 5.796394805214834 9.901133304097106 9.840871127233962
Hg 11.01546040821207 6.5521329216127056 7.092294380376842
Hg 7.599532642646653 9.664418787450368 6.591984761345552
Hg 5.016692573693225 7.34803090333753 7.353755009884414
Hg 8.12815155982616 7.322556772772581 8.972372924404986
Hg 5.255120278161581 3.952108486771825 5.784235321389206
Hg 7.872337388901505 6.268639917888944 5.581111069116568
