7
Energy = -0.40058935 eV
Hg 13.733356884806314 12.814558289050309 10.983772577846707
Hg 8.342531685894542 11.220532124968756 6.23785709598068
Hg 13.73946828112628 9.607275241087665 12.21992091971401
Hg 10.62467913901453 11.147972958773597 10.75286526635395
Hg 7.428661229581757 11.742317298531647 9.60447702299343
Hg 11.061009471047239 7.418856096997369 11.473990045452132
Hg 8.043189993492382 9.090737048930741 11.78412543125745
