7
Energy = -0.35289995 eV
Hg 14.650641722393713 9.092957628696931 12.545724662532974
Hg 14.652182588860656 11.745407532520645 14.938259823897459
Hg 13.835676108310173 10.66837302116119 9.465307001580971
Hg 10.676510756197937 14.915297766933975 13.084367576222395
Hg 11.389259984650371 12.573134337016567 15.754833445798447
Hg 9.29641916834094 17.65805892531118 14.713687337153319
Hg 16.007986062720928 13.371493319155318 9.089031944514742
