8
Energy = -0.34911859 eV
Hg 13.201777065939108 17.99729675239165 15.363480918484521
Hg 16.75884036807666 13.74231057040283 14.5039638910524
Hg 10.043821234250759 9.78356982548884 14.41640582229738
Hg 13.516400541914201 8.774994975182691 14.186983856424208
Hg 11.878655202499814 20.028080154102184 12.67743281737613
Hg 16.20622888047418 15.382634860692978 17.932858390323016
Hg 16.551821189790704 17.316985537036924 15.008514733133762
Hg 17.532147485968082 12.360034651991128 11.218396502031792
