8
Energy = -0.6220968 eV
Hg 17.102839449437877 11.113141909900614 11.925489309112235
Hg 14.315855949659039 13.233202158540927 11.170219144159685
Hg 12.449121016035969 13.690741156496093 14.21834680178311
Hg 13.812416688010257 10.586571921115423 13.24772390860455
Hg 9.830784974196375 14.813758010660337 12.194341038784101
Hg 12.450213714346567 10.576487313964702 10.080990352692243
Hg 9.299491930868585 12.179545069043732 14.312343732224802
Hg 9.309132003504482 11.638263165781968 10.885549340061736
