8
Energy = -0.5414918 eV
Hg 18.0787249769743 13.540881203345174 15.063380327396217
Hg 15.046304913684382 15.078054498209985 14.861768075700718
Hg 15.235538840043901 11.683524588339527 14.924620768727848
Hg 16.27983254009114 13.395185749782227 12.180239743848102
Hg 9.99084895935428 13.680086013512193 13.903203584816733
Hg 10.561227344340828 14.455331891484436 10.643374118367717
Hg 7.814716680440921 12.63428788005367 11.50567026794381
Hg 10.92257361116866 11.253152057236916 11.71277341911065
