8
Energy = -0.30540134 eV
Hg 13.873676178698616 12.326110286865061 15.825622128748464
Hg 16.300621534563216 15.091269280820324 12.722689582363198
Hg 9.42024681071736 13.850198901044845 11.417549767889309
Hg 9.821098143272554 12.901603551444525 7.84150745696541
Hg 12.755208155115893 9.101114994700907 17.176391938521668
Hg 16.885148587888498 11.933776657636818 14.159754047096198
Hg 17.18208834631599 17.01861630111591 15.47436498172436
Hg 14.986309370025571 19.949887436372563 15.130977810660056
