8
Energy = -0.63589749 eV
Hg 8.527424847770005 7.272439221767302 5.209581984010013
Hg 8.575694298055064 6.580980688886304 8.51854012433588
Hg 7.095313957814297 7.144172433337226 11.522461267356999
Hg 10.528018020537374 6.6526087993586 11.29715567490121
Hg 9.019652036463143 10.192861145403416 6.831652351504388
Hg 7.719226712022655 12.396287268584251 9.066513580214778
Hg 9.135559319254172 9.63255886849616 10.436525209965074
Hg 11.149610251032477 11.878591852691896 8.868069807711658
