8
Energy = -0.50101706 eV
Hg 10.795416826807909 8.95622140607094 5.517124692092796
Hg 6.881668658948503 7.8774268112679255 10.739540796151497
Hg 5.59119783635703 9.185364781305156 4.798399627387519
Hg 9.515294446596114 8.7641054222959 8.70978705915051
Hg 7.376535771551802 6.33706553801003 7.640355750203984
Hg 3.6424542173846635 8.97834955590867 11.082149919859058
Hg 10.521426100344774 5.529909514890499 8.989246790942731
Hg 7.396499108337366 6.084424022960793 4.2341165453367315
