8
Energy = -0.51331306 eV
Hg 14.885684149131087 11.849951368820609 11.740828841503063
Hg 13.665142283006077 14.63235811641119 10.14973779895551
Hg 13.068045556712018 10.517892187404911 14.35531768023699
Hg 13.649720926511812 11.62319081195979 8.543927842680008
Hg 10.675987421211977 13.093936215521397 9.418814134715964
Hg 10.081749962917357 8.974006251599272 13.669155152016403
Hg 10.09010476109042 12.017294822363105 15.191542587573844
Hg 8.848056559530438 11.720671686907641 12.00517918320809
