9
Energy = -0.61015266 eV
Hg 11.199270932836805 16.22283740664097 10.479835397574872
Hg 13.88988581885134 15.177583878034579 8.671059338948588
Hg 11.476559224314936 12.83750350041916 9.447112687657537
Hg 13.058271774038682 12.02193001745301 12.583015178092142
Hg 14.103665439550985 15.435829816060929 12.291350372269772
Hg 16.94246072893336 13.90737913257477 16.48470015518724
Hg 13.562708739890803 13.843473316965554 17.129427207322315
Hg 15.683304934341786 14.626099946444246 19.69538499029327
Hg 15.66351396253938 11.398547693581886 18.412174958872495
