9
Energy = -0.63180671 eV
Hg 13.767063687438952 12.463281459370988 14.564911548490654
Hg 11.443641906134294 15.339085508560395 10.67376983066355
Hg 15.11614034959057 11.53200117515124 11.537294667298621
Hg 12.887611288591442 12.6742117015715 9.190590326601196
Hg 10.852035201968723 14.089905369643668 13.749568260492392
Hg 13.475547154046458 9.231795398402546 13.47003606923347
Hg 10.003273191400995 10.827662348138825 9.431219706429065
Hg 8.619787866024005 11.794593587658426 12.511544843952368
Hg 10.31629404917739 8.861041969611128 12.188766502423762
