9
Energy = -0.50300022 eV
Hg 15.744159498125986 14.025141227897388 10.615742815455095
Hg 19.217261951607412 14.427919726264998 10.775772004053547
Hg 13.19091900838128 11.746679472974687 11.840867626329839
Hg 10.181572224319932 11.756657980653799 13.697713131108413
Hg 9.592775190978049 15.199517524822992 13.424736609904977
Hg 14.857152732797466 15.324311626839421 13.848713483168787
Hg 14.89946856384188 11.971174187540955 14.895888985105326
Hg 12.035904326174398 15.635676555465128 15.896599156936306
Hg 12.044058718388847 12.078797103710718 17.24782213177484
