9
Energy = -0.5057897 eV
Hg 12.57595053341574 17.086586351053914 14.952166734275368
Hg 14.949714252061593 9.61710569958638 13.357092849605529
Hg 17.080197202894748 11.92254087241955 11.752181844238441
Hg 12.527021228136947 8.811855758512465 10.952056668852428
Hg 9.371827518434465 10.399842621362406 11.739790192142255
Hg 17.346428107814337 14.67669534016345 13.885900388079794
Hg 9.636375891985956 12.255089143078848 14.693425489643355
Hg 15.20031514967797 17.08314368545054 12.557500302085602
Hg 9.850577808612524 15.48742547831349 13.604734331921115
