9
Energy = -0.66051223 eV
Hg 0.7953936745673023 15.42875868087367 14.118213370483328
Hg 0.25994232666336486 12.528908078447413 15.953745591270101
Hg 14.61274379024744 0.5158028906022192 14.644486484685295
Hg 13.76656000591782 12.843562202329583 0.5221142820183331
Hg 11.238169374944793 0.9845842331773076 15.438633555348797
Hg 10.494333189457292 14.181060951147936 0.7438786067774723
Hg 9.192181018934452 0.5420013204813505 1.44036385875337
Hg 16.030408024476266 15.633457294949238 0.7081290957426812
Hg 12.728731831340673 -0.02533509504954668 1.7503410093771996
