9
Energy = -0.48773463 eV
Hg 18.399283252999275 14.672391771081372 13.578157803533628
Hg 14.655113675643104 12.011246027908529 16.244071996309962
Hg 12.544854648783641 9.668173664142985 14.433005763985882
Hg 17.34184843617511 15.474029096036302 10.138383706459031
Hg 12.033553308373069 14.113073333227543 17.600344264328168
Hg 13.333009702816248 10.437609790406082 11.171998412094267
Hg 11.20167248211387 16.03441390515413 14.900891202667532
Hg 10.962589230280349 13.063272603447246 10.153046376507287
Hg 9.086746032663406 13.876723043199839 13.067707021909897
