9
Energy = -0.62067101 eV
Hg 9.766394907350161 12.410655754634847 9.919359368710833
Hg 14.340795325152524 14.057994843540301 12.419972164199876
Hg 14.37735158524267 10.657142827045641 12.132060310992498
Hg 13.83235136231805 10.783059257591509 15.675938333343758
Hg 12.665063350112488 14.017603693550084 15.401486699269547
Hg 11.02330693081855 10.023619477564099 12.062732651626101
Hg 11.920340063806893 15.07895502244291 10.186322104141675
Hg 12.471829298084282 12.643540907155025 7.938117194967682
Hg 10.475438098904867 11.378073925235043 15.161959060968055
