9
Energy = -0.56054297 eV
Hg 11.696381220817436 15.559518033643725 15.559518033643725
Hg 13.162217743963202 15.559518033643725 12.540782322811587
Hg 13.162217743963202 15.559518033643725 2.104609744475625
Hg 16.428897855652266 15.559518033643725 11.803853139509744
Hg 16.428897855652266 15.559518033643725 2.8415389277774676
Hg 2.558736453369995 15.559518033643725 13.890519629957573
Hg 2.558736453369995 15.559518033643725 0.7548724373296387
Hg 15.546144488002344 0.7512194281503909 15.559518033643725
Hg 15.546144488002344 13.894172639136938 15.559518033643725
