9
Energy = -0.46703845 eV
Hg 11.092104385678931 12.88031543021885 11.087723742089107
Hg 13.92846843699865 14.1451080996141 19.035472740533898
Hg 15.188653226271834 11.091838534923104 13.122016444803167
Hg 13.400174714362398 17.553878457626876 19.567115350033596
Hg 11.363014275925918 15.707250460412435 13.130896502951801
Hg 13.42451270420744 13.384885801629872 8.49887340477762
Hg 14.679497627057556 15.69341175540508 14.419927242426997
Hg 15.214730319742845 12.809887367504544 16.128725951508954
Hg 16.462947830530762 12.10627715389947 9.99768634886455
