9
Energy = -0.6934294 eV
Hg 10.902093130010059 8.892388103382196 11.094881590531664
Hg 8.587629807380129 7.79515438978929 13.321409422362224
Hg 9.498423319194524 9.41395030482409 7.550991600879565
Hg 9.32185430800962 6.334055811346684 9.40877500631246
Hg 7.529147995361848 9.155418984996887 10.406865881105421
Hg 6.129686979148461 8.80119149520091 7.2619274527172575
Hg 12.665789173261729 10.38789231925952 8.538064795690056
Hg 7.129522582285615 11.940326197107751 8.331542491340967
Hg 8.583384400116621 7.881713247344178 4.480486007745412
