9
Energy = -0.517647 eV
Hg 8.809697472894884 12.82513983002484 8.55152581168453
Hg 10.94276861163218 10.441421064312166 12.807950028243505
Hg 14.133122784080339 17.350395650710748 12.821476488059536
Hg 11.722635054306727 13.077525336787925 10.659597987720815
Hg 14.135768465349484 9.100402828262188 13.356060315433693
Hg 15.195578935989106 16.03147426082157 15.996110796006588
Hg 10.935131763112489 16.030277599285363 12.278112435073986
Hg 15.446409709185392 10.668143048903714 16.279258461177733
Hg 17.362880900399478 13.377469348982133 15.472314455845689
