9
Energy = -0.47384231 eV
Hg 11.116501943176372 9.847820618518076 10.890245667218053
Hg 16.016120730230654 14.957732933402172 13.19905573576542
Hg 14.249617816710844 9.821363599334488 12.709093181697929
Hg 13.933519443705428 17.01930590810572 11.368166191131815
Hg 16.5295814472969 12.183407436296045 11.111127074225346
Hg 10.847032937308878 15.523071405494557 10.611362339164831
Hg 9.94884689045398 11.621008909908484 14.441723185635437
Hg 9.208195589346502 14.977576422996432 13.696467891515267
Hg 13.153638849168663 11.387352811760463 15.702499618920196
