15
Energy = -34.59281912 eV
Au 7.9432923464325595 7.967453089822057 5.215232132937878
Au 8.487573535550133 10.719927710497918 5.586477277415578
Au 6.4534462997375845 9.525766327781156 6.9593891974783695
Au 9.745579008857703 8.452942857496671 7.160647181595051
Au 8.131824548784516 6.183722386728128 7.21467091233306
Au 5.584989851734001 7.129314454232464 7.780216823269177
Au 8.53012151141592 10.779137138435129 8.301823458337005
Au 11.083097708899361 8.951128342055798 9.388647462994832
Au 6.97785563312749 5.511800593076914 9.604901255411916
Au 9.304666904116235 6.908927432584586 9.61340985181304
Au 6.9954160735699205 8.613036103572727 9.53404921286425
Au 10.776573734897628 11.699216870309247 9.527045741348486
Au 10.243196650342632 7.842493043143143 11.987656335673583
Au 11.44307437432686 10.291345663232523 11.780862663708898
Au 8.835617314514595 9.960113483338688 10.881295989125597
