10
Energy = -22.07151182 eV
Au 6.193482263289832 11.715757512637454 8.987266041976424
Au 7.620308500562483 9.62929888522831 8.145050261441888
Au 8.616762362358207 11.44252508759876 9.95176511490795
Au 11.018127248406424 10.146998276734486 9.289035385699503
Au 9.863357594350791 8.295628611191065 7.64994074813586
Au 10.855095558182036 11.900221922594303 11.322159982127156
Au 12.516081468280959 8.1160187515765 8.321780619083164
Au 9.676469140373571 9.43935918609229 11.703706185128949
Au 11.078278255118178 7.445029069435479 10.512344885174507
Au 8.426152896336637 7.770207931783714 9.983370834956569
