10
Energy = -20.97688703 eV
Au 8.102984861991846 13.48249981404537 12.544717871781401
Au 13.730034700558914 10.161848795499324 11.59729193569873
Au 13.73299968728081 9.293999406800316 9.045328057790263
Au 10.396259640766047 14.267352348995258 11.30974400472963
Au 11.238674885999048 10.345513901635567 9.537619666287755
Au 10.34175388045292 12.274527104599034 13.415189776185038
Au 9.40930349155484 11.749978173368087 10.752963907674395
Au 11.99853481244387 8.013212335947744 10.736872613442053
Au 12.26626671899947 12.364176745194136 11.316350847685044
Au 11.094636558172155 9.926341219464227 12.433763722493277
