18
Energy = -43.7947141 eV
Au 11.91873103296885 7.184702739584216 11.455623515181633
Au 12.769348562689624 9.650738002817342 12.349128543323703
Au 13.743081549401548 11.444653071059342 10.428274028693066
Au 10.922082523591136 10.720506936441831 14.126344482172959
Au 12.726319338841463 9.047931609691545 9.588160288953617
Au 9.874393320108778 8.718487442645333 12.515781998810555
Au 9.98289053205516 8.16187625506921 9.753671549501217
Au 11.889798827429622 13.537424439141894 10.216468797994867
Au 10.639339693155517 11.038304386578767 10.942204282702297
Au 12.520233701213265 12.438551838286516 12.715899097665902
Au 11.08787961871745 8.994330788761854 7.3632898123056005
Au 8.49212963843969 11.15497772187315 12.933129434787103
Au 11.931976770285884 11.447524023261877 8.322522265084244
Au 9.09491797278134 10.53045399930799 8.493130605371698
Au 7.844504865596581 9.536198815552874 10.767810372309194
Au 9.940417907850895 13.439289886503074 12.229993295622654
Au 8.090083245017833 12.314410134011744 10.42122901446991
Au 9.803424443207785 13.204210111460945 8.462315057150883
