12
Energy = -25.64067888 eV
Au 11.399957630444685 11.071153767984528 8.151844322108396
Au 6.13959261932338 9.914045150119756 9.053636614532733
Au 7.286308650043751 7.646059416618339 9.962416295404344
Au 10.233638370968912 9.005196451189372 6.869797809882338
Au 11.611906996972632 8.618290299105473 9.253335830577756
Au 9.567583411303739 6.781203461114938 8.484763043559205
Au 7.567928461357906 8.42125490304493 7.31854122311259
Au 9.788842023195754 7.730850662011227 11.137890383984319
Au 8.977348122381118 10.128261690887882 9.415794074145378
Au 7.830947575729977 9.393840030796378 11.951754596950845
Au 8.359443227476364 10.942856470550934 6.747292261654092
Au 11.008482910802181 10.118967849017384 11.424913772749782
