16
Energy = -37.88815582 eV
Au 9.69862173262114 7.7426386646549785 5.68190387057218
Au 8.470190899455318 10.204434296325326 5.3829975059798425
Au 7.521244028721291 8.455592816392368 7.303511015952129
Au 10.389880800547774 9.889986798822177 7.338215297496123
Au 8.933615933834792 6.022777751239889 7.676656914648216
Au 7.9146443139274 11.277740514265945 7.784674501932946
Au 11.341858246653533 7.352609546096078 7.882784843120027
Au 7.0900174711878075 6.883202132922504 9.44699377276665
Au 11.97031428449169 9.44268785771107 9.491004731122446
Au 7.358506672206652 12.25635099146014 10.225498937960008
Au 9.96221304537756 6.643824201404683 10.218570636869366
Au 6.907406457030973 9.544714581680406 9.866733190423698
Au 9.780504015694303 10.98025223691767 9.941642861190052
Au 7.970014321636399 7.796482988550937 11.825463699884457
Au 10.464458411281132 8.968763631865992 11.699838990209113
Au 8.183741646266304 10.495173270622855 12.190741510806205
