12
Energy = -27.0923121 eV
Au 9.836633316624589 7.25750643287608 5.546387006161903
Au 7.2508028544406615 7.114183481761077 6.241861392232115
Au 8.747627806483083 9.455155182195758 6.798052005269217
Au 5.866803871568466 9.3449633960797 6.861629331836926
Au 9.374004947155953 7.0386781121384 8.21839223633475
Au 10.088533821929392 9.991053759783206 9.098680635348694
Au 6.69618664712999 7.6511790615432 8.920939725321766
Au 7.340657340076654 10.444973891387976 8.923566851077656
Au 11.380074843342905 7.694942591348504 9.936815887430289
Au 8.653562167125413 8.086621458127176 10.682301281833698
Au 8.370690030617446 10.738575332038996 11.405110488109118
Au 10.807308421807091 9.595053369021857 11.779149227345407
