17
Energy = -39.63267535 eV
Au 8.714096705859166 9.256157048334119 6.235358808582558
Au 6.838749182762125 7.413063358008926 6.938644332946518
Au 10.315685327707167 10.579368050869478 7.96344425357247
Au 8.0594752353218 11.779746162786127 6.977407433859381
Au 9.15442586335802 7.761295010719692 8.577884684408454
Au 5.95815748379111 9.9747427907962 6.375600333964291
Au 6.934339994993418 9.339011261134559 8.955026889979614
Au 8.213051286215999 11.729638636120534 9.789396013553
Au 10.745538994224566 11.209550269524597 10.589129293038416
Au 11.651263112834117 8.677524354357175 9.364384473153535
Au 10.107421879416833 6.954687583140768 11.023882174823786
Au 13.15057594260464 10.123147449909759 11.130627061258913
Au 10.861707362344816 9.213732484162367 12.648904641639966
Au 5.734206835108272 11.74028028042977 8.489473004126673
Au 8.667052811234306 9.301588934058033 11.090681180437535
Au 12.698985875578998 7.282180007596612 11.612316822592343
Au 13.506743159313432 8.97576337071959 13.549315650731511
