13
Energy = -29.39214651 eV
Au 13.555524906972915 11.190922780425955 10.272594314998031
Au 12.861748110226092 11.249820837090539 12.906611776739734
Au 14.096355129561378 12.513897447587063 8.064776124847912
Au 10.861911078778464 12.122835232752458 11.179443926275917
Au 11.528036406225683 11.957380945269648 8.464275402879268
Au 13.05589184087527 8.815357990399676 11.516416850259084
Au 11.012179454852816 9.58544176254052 9.849008176129537
Au 9.00806874161052 11.419889726816827 9.14637699720128
Au 8.169516569390462 11.62172740397597 11.90964607546883
Au 10.190470263915266 10.828506222209834 13.472270424266949
Au 10.40126111056583 8.27421070851861 12.159124833228011
Au 8.335818897233572 9.077107604678329 10.677260151690428
Au 6.467740674353032 10.887424522296373 9.926718130576331
