13
Energy = -29.73972483 eV
Au 9.913244874116222 9.549649033172065 7.97677204433385
Au 11.882098551615925 11.320352912746674 8.609754687422353
Au 11.2777497988881 9.306804528412933 10.494119869110117
Au 9.313471206455521 11.570152982067373 9.758264611789953
Au 13.012608964397645 13.534852287025675 9.574227467372316
Au 8.60747531884551 8.882294064397035 10.296547755424768
Au 10.819293135991577 13.193587621696377 11.259284656179245
Au 12.984563048041164 11.272211979788091 11.282054386623635
Au 13.352797315450172 13.850825049718768 12.28175072762111
Au 9.405809179076307 8.370039651259278 12.816999649010684
Au 9.545275727122357 11.066033653856525 12.428215505419749
Au 11.771075812025426 12.227521628419597 13.777632707693563
Au 11.839307600816237 9.5804451402815 13.16914646484058
