19
Energy = -46.22932643 eV
Au 6.582253348992761 10.195010634024802 11.353184464568827
Au 11.22336489355074 9.121355635587964 11.435378727725825
Au 11.042012269890774 9.715394907427969 14.241869392617357
Au 12.600910440393752 12.011284266521711 14.217335402827223
Au 15.50465703880677 11.73662472577477 9.605424526282027
Au 8.401708712863167 12.211425304749692 11.171374858813095
Au 8.824718503426606 9.758256655669268 12.77445245586769
Au 13.489274092624433 9.95994613581045 10.191753999444863
Au 13.463444007344213 9.55337172906063 13.029346218725763
Au 9.939785993920879 12.199740057846897 13.647040391082067
Au 11.218019213770036 10.808255920556988 9.11882447300543
Au 11.983733520353997 13.682864262830112 12.125031142425188
Au 13.038855474018144 12.885864052212112 9.62957814727416
Au 9.382590546548569 14.48304587513059 12.290709464322507
Au 10.452302775926885 13.619137313669953 9.847956117698677
Au 15.81013259223338 9.999380445379712 11.729786888285577
Au 8.892924216520175 11.955175167200897 8.354108785281976
Au 14.270735343674668 12.238465068795556 12.101291373066307
Au 8.921783221990761 9.671837325706244 9.987347583729871
