10
Energy = -22.63480889 eV
Au 7.382856957274892 8.45992665198894 10.445633159576259
Au 8.102650831268356 11.04204269219362 10.36599099733771
Au 8.861945847278117 13.61322219557626 10.288442090187468
Au 10.762087142223015 11.694111306937858 10.345096290636285
Au 10.01175704174327 9.079651406297238 10.425723028535435
Au 12.671194958543074 9.731727510006467 10.405042329790545
Au 13.390984879071535 12.313909666421559 10.32823677079266
Au 11.501625470100773 14.272278396744776 10.266986820464128
Au 9.272231549598162 6.501844588155538 10.515742472131029
Au 11.911890322898518 7.16051058567775 10.482331040548493
