11
Energy = -24.20789566 eV
Au 9.843954922812356 12.729882201223718 8.780964373037353
Au 10.16235810294821 11.198038980885212 6.5149501029044075
Au 11.529603488410384 10.553415059062427 8.966998055123252
Au 8.7932382575697 6.732474896623255 11.483115541036346
Au 8.278831367765125 7.563350281519256 8.864113112592102
Au 7.760213277049905 9.32805358286307 10.902382245745086
Au 10.393573675231154 8.570887942971716 7.432002156276156
Au 10.671193084157318 8.332413407040638 10.220687149026725
Au 8.43766178605462 10.365928665709895 8.516974737371036
Au 9.797429775190858 8.96910211127845 12.750666054512017
Au 9.835329262810374 11.15983975309662 11.070533472375518
