16
Energy = -38.18037322 eV
Au 12.405391436270484 13.346515988667374 9.668086622541159
Au 12.741806013481112 9.825979318933662 7.409136308522073
Au 12.990250586293255 10.678351211321182 9.999301721126091
Au 11.405464965567091 12.016905165773814 11.82979005254591
Au 10.948614577810794 11.756861653237776 8.055125784055356
Au 11.779308039215891 8.244587174953802 9.397784299342318
Au 10.136346633919795 10.652904424185413 13.861847541588283
Au 9.925046544109936 9.324746215663643 7.325363468397236
Au 11.507786166313469 9.293162701677206 11.912210526657162
Au 10.460525510721785 6.815286671338191 11.362834936433376
Au 9.572252468135005 13.272553494490886 9.921458249534085
Au 8.888896426346022 8.283343565430265 9.630938059560897
Au 8.441147412871546 10.916961009571478 9.035939986406047
Au 8.566900451577684 11.467450832556626 11.722351147005513
Au 8.759413281068108 8.726859130652226 12.430641757134834
Au 6.740233183514583 9.601401744904459 10.79044523739798
