16
Energy = -37.17757808 eV
Au 11.00768780456978 11.708836866488936 9.646827691131154
Au 9.186759307721525 8.251698417345391 11.512331502112227
Au 8.334243080632588 12.263034256588455 9.492743464305786
Au 11.258862606570986 9.843417684457178 12.068372606447836
Au 8.764104010620919 10.831002088043684 12.0461053876499
Au 9.490273565936802 10.729300644629532 7.689639763635981
Au 12.147681357030873 8.351338352926408 9.684572733479321
Au 11.5466694255554 8.994600654647448 7.084457862455073
Au 13.36192422567059 10.80700241829041 10.620899414188534
Au 9.592805007049579 8.223305828252544 8.779343027332104
Au 10.298237427419409 6.134954325432889 10.278434756158111
Au 6.984756294811148 12.88078640976354 11.743755959502744
Au 9.572280859698953 13.495613130991948 11.815689489790497
Au 11.331410438807865 15.096881319235182 12.934958396701566
Au 13.620507671658501 8.364308394052765 11.879360325509174
Au 12.309050856995997 13.083139592493454 11.542918377666968
