17
Energy = -40.71976567 eV
Au 12.316958936810442 14.375588428103129 11.074649510785479
Au 12.606567013393697 13.02216001863071 8.714731238571671
Au 13.561300922935015 11.82963087798558 11.021471595436577
Au 11.263898405752986 12.617124925842964 12.881123274731122
Au 13.496781708303843 11.122873801705214 13.657487787356185
Au 9.997935214210752 13.137391776044666 10.516399047540599
Au 12.38814074050516 9.453894028687579 11.798443299241566
Au 10.169876931304502 12.205169696499437 7.893790588470773
Au 10.922159573189571 10.247901834794636 14.171334996412464
Au 12.113177913505735 10.355659186783438 9.156273380715753
Au 9.092685230223752 11.04465138451932 12.164518642725042
Au 8.037121574984429 11.535362955088408 9.626438526600783
Au 9.584904728412065 9.622396197189378 8.242764981991437
Au 9.85704749267903 8.34159094641921 12.593556898612041
Au 10.973343332018949 8.015381063680582 10.067577879482615
Au 8.034139106220472 9.020241632307412 10.658448204266943
Au 8.72969542440905 7.140448047190851 8.810206601436828
