18
Energy = -43.62458073 eV
Au 12.226696561697644 10.951006283450852 9.010462403284693
Au 11.303797524606166 10.156632121034047 6.598134234377856
Au 12.629873252252441 11.532866222165596 11.573853170550647
Au 12.183804793622619 8.171504387813078 8.295889799656928
Au 10.139198295088182 12.395758823354116 7.677343381650463
Au 10.280580383697554 12.555864092601903 10.327543881609236
Au 9.7158219603691 7.898605867693403 7.098592339913361
Au 8.49789296993843 10.402269315721158 6.73087174155168
Au 7.9721655928716855 11.3224466624824 9.214352053245513
Au 7.472814904570193 8.585302211870516 8.525976569891869
Au 9.819388538268292 7.510784496386638 9.77396382938637
Au 12.120799414434249 8.796519386160691 10.87719705901316
Au 10.386416321403702 12.217945526323591 13.011385151520065
Au 11.606960011657943 9.704015782491204 13.355486657951381
Au 7.930541348861544 11.93005534008262 11.806874958520032
Au 9.958815392738305 7.715640802300217 12.420045814920863
Au 7.917199138543098 9.180081651108688 11.079400818327615
Au 8.800822201065005 9.955821045236778 13.516738774567566
