16
Energy = -37.88532042 eV
Au 11.837853811931085 7.748864786316861 10.628324774518559
Au 13.134806358972044 9.638917253764712 12.262275961406319
Au 9.190261333265253 8.496532350722461 10.132640019619528
Au 10.404640559570216 9.148178587662931 12.596612138264756
Au 8.822713316810182 11.447096644794431 12.491341650896052
Au 11.222344004174573 8.926238752900197 8.313703828267938
Au 13.542897489318293 9.819046697488556 9.581995628913385
Au 7.687577322333728 8.972736044733205 12.478142855534953
Au 11.489925400943312 11.61624133800884 13.141890021351234
Au 8.907313223111604 10.41162447960175 8.021956269227358
Au 10.952852526856573 10.619349696590765 6.23544396480163
Au 10.42197559907297 13.009209757189913 10.839677040486798
Au 7.7332088435946895 13.195905905816549 10.747531167621348
Au 12.974469246174058 12.152069513716878 10.871465704392017
Au 7.401927578515844 10.554086277991859 10.19028690684993
Au 11.576638950977722 11.723272810994855 8.613741521403929
