17
Energy = -39.28001275 eV
Au 13.492884976161486 9.565190769022411 8.408889515501233
Au 8.51171498507977 11.158420348237991 9.278707375989582
Au 11.337128549047936 7.904349969688526 7.641499967130124
Au 5.7621576189301456 10.916306028566284 8.688077859304407
Au 10.95410513429885 10.60903122072425 8.265658450653538
Au 14.94643833294705 8.222619876396973 10.326167739598166
Au 12.983044964591032 12.046680846733027 9.4907430902905
Au 6.6753377798144875 13.211009763408695 9.779456635698988
Au 9.694939089457343 8.560601463737529 9.799627451566748
Au 12.27958207291168 7.666764005365882 10.179141548769824
Au 6.301141549123127 10.969689406566365 11.414812768825351
Au 8.498596785239174 12.587996954461467 11.82313250920138
Au 6.970489055693303 8.762013673710378 9.880784402453601
Au 13.172581509180159 10.047750423396488 11.345609698828165
Au 10.787527542529238 11.366570626416152 11.070136206596617
Au 11.011502362748207 8.65360403583592 12.418837851767671
Au 8.56184008576008 9.692412981244551 12.129729321336475
