16
Energy = -37.65431111 eV
Au 9.89070509011471 10.652068656906515 7.585218241020727
Au 11.895915628716878 10.5092029204279 9.356594000392963
Au 9.363066368086916 13.278213758391276 8.160408500159008
Au 7.29748042960191 11.436873635202968 7.5780674606667615
Au 10.208395300224009 8.161950587173914 8.520524112530703
Au 7.681486166212041 7.341558223129261 10.17810551513263
Au 12.66622688924595 7.881588946424886 9.574195604002131
Au 7.632073361049752 8.796062996847194 7.8286019468732615
Au 7.127784424787291 10.05700198317051 10.26000105314833
Au 13.897783791202523 9.935159220454711 11.085125485920459
Au 10.222174446026877 6.627667878047399 10.825680650607039
Au 7.055459358238571 12.724830313041641 9.988204845558645
Au 11.493665192991891 10.855948939436333 12.128262600215322
Au 9.536115794283496 11.684328389922145 10.388215019411376
Au 11.926869693027054 8.16961960023278 12.248630585618873
Au 9.392203409858611 9.17532929485888 11.581569722410592
