18
Energy = -43.72463655 eV
Au 11.488521048502932 9.90162679623133 15.353410697077267
Au 10.784466880215332 14.2744929370152 14.26509261933938
Au 14.49117972804043 13.991852039201023 11.354922887453197
Au 14.554160656369548 11.837171165532716 9.646460434884428
Au 9.574613466966985 11.90617285308467 15.009059122234186
Au 9.678697003278257 9.756842076047214 13.275589038223814
Au 14.54668805990878 11.276051901285019 12.277118278284446
Au 9.631071133390138 12.469925927699883 12.373462192187393
Au 14.003218559444976 10.84390306402881 14.838774793459443
Au 12.462275409950191 9.426388025464966 12.874939628262853
Au 11.980438547445331 11.210997310503002 8.699324201048853
Au 13.341799852440303 9.48380559819246 10.365696502359837
Au 10.632870009041923 10.288377902760745 10.850901782647725
Au 10.13232369704844 12.916622195407461 9.800030817719637
Au 11.663272929821208 14.360289799612124 11.760421835405081
Au 13.485447041307621 13.455938784637423 13.755555357689746
Au 12.151189569799685 12.579292139704469 15.927289900723022
Au 12.65996226409461 13.87485423764089 9.306338061456636
