19
Energy = -46.26189789 eV
Au 8.321217112085856 12.680480714702332 7.690711433137589
Au 8.095652744942193 7.772975093576837 8.232097350627814
Au 10.908642564436782 12.353619596062385 8.424460679281694
Au 8.565344626948203 8.894624361716858 10.666833266679713
Au 13.136869160377552 8.668227177785042 9.931830782400924
Au 10.675250356422115 7.954896498294473 9.104160102199922
Au 9.357065437185922 9.7605421864888 13.117266482920728
Au 12.11238717654202 9.993077209588908 7.758701124634274
Au 12.783397835333721 14.091391922214532 9.309150963929032
Au 8.564050967957378 11.781428851393006 10.18935739947688
Au 11.57035149956936 11.570593676131269 12.672646131136204
Au 10.741319591849246 13.515776084974764 10.974639468568059
Au 9.333622301698034 10.143889304304901 7.993828436632036
Au 6.989732270173741 10.65832510372729 12.112503350506422
Au 12.897301111396226 11.464824178703848 10.151910509095954
Au 11.780961680281527 9.312223888426526 14.230046189908581
Au 8.992994997673213 12.524612226025013 12.785441828286666
Au 13.68378969464379 9.883025563786873 12.27456401824505
Au 11.162048880364969 8.176372740036529 11.781035191746813
