17
Energy = -40.53405676 eV
Au 11.255848592709084 7.092075776203834 9.620793518778957
Au 10.313909947093643 11.31755996025876 13.130046832456248
Au 11.1219758025043 9.617692581288408 10.976905935536907
Au 10.97823019475299 8.879380418738055 7.488482936679778
Au 9.541693398915216 7.446331626053805 11.72944961507097
Au 13.21715907804185 9.00440106618883 9.236154225736342
Au 9.197174335938065 8.986523108706463 13.928458868617577
Au 13.391706439204281 11.236489017537224 10.815089614436973
Au 8.859925813103956 8.480261042925916 9.273053193531874
Au 11.806418799805886 11.313528529700678 8.554006029163347
Au 9.152553489813645 10.877073099492762 7.938427659777093
Au 12.643112963248319 12.684148966903422 12.97376646402555
Au 8.363010451700529 10.141476805501643 11.59335049152188
Au 10.900621726710852 12.719941054969583 10.87628277830393
Au 8.295355051269057 12.45588649830789 10.1825127534561
Au 6.795183001701524 10.29820296939724 9.315805741496177
Au 10.104260870008401 13.464882712615042 8.34245150147936
