14
Energy = -32.02990019 eV
Au 9.817835649975391 10.046933699510374 7.650589613737305
Au 11.941187017826143 9.096902541910273 9.351348747256607
Au 5.906157205002353 9.410087157546494 9.085832458400533
Au 10.83788805464603 11.747704644312618 9.557928503328046
Au 8.015162827706856 11.19025308580661 9.414307686467396
Au 9.596041606949138 7.411330419332532 9.28548092695285
Au 6.9311593871659865 6.912900522612577 8.894932852008196
Au 9.454088293899202 10.795042984586843 11.705396629989577
Au 12.244093942157468 10.51151229238129 11.60946780092425
Au 10.558874957750568 8.296619751617508 11.719408543620505
Au 7.826572530997455 8.713696436897377 10.948966998403224
Au 7.18867608502624 10.274353528647719 6.864202815882864
Au 11.215099889191166 7.752965884477918 7.134365941540584
Au 8.41919478036765 7.791728897918805 6.72980240526748
