16
Energy = -38.01366598 eV
Au 10.81668247161539 9.304723398748415 8.818223878494996
Au 10.793871089931388 13.908222607914364 9.33425366602321
Au 10.197220233611107 10.60956846789256 12.67891643016753
Au 9.143015756033675 12.593772659522207 11.077626021219134
Au 13.490689599385744 13.124581217526574 9.26928643962944
Au 9.083340070079483 11.465663296117672 8.46791352345586
Au 11.275625065099224 8.036449426947556 13.230734605494135
Au 12.492636986680834 7.988821246172048 10.669366989799158
Au 9.832471649504143 7.695742736941744 10.753421583561794
Au 11.836219204086513 12.295230262796363 11.313300330204077
Au 8.213151842860908 9.901236275647337 10.689587925048624
Au 13.337949755691684 10.454032286637139 9.759795144635985
Au 8.557595818619157 8.465654751541706 13.057263270970772
Au 12.916289552703638 10.06643958637739 12.48703220323411
Au 11.64066058461077 11.674854177215826 7.8113342290245145
Au 6.798331497501275 12.022703927609045 9.802138260316028
