13
Energy = -29.52813441 eV
Au 10.485996134409735 6.946343534931494 9.967167865926992
Au 11.062582720560002 7.5989138483710645 7.457058374340385
Au 10.85226115191601 10.408830253449123 6.918836643356528
Au 11.952770115062464 9.453712229322324 9.34101991544109
Au 11.688631351950269 8.632400577155819 11.904334055187446
Au 10.009502589992723 6.56833460722363 12.591521307561182
Au 10.660090939799556 11.029376943199193 11.143469000663085
Au 9.153454770209246 9.18609850990121 8.73482267217221
Au 8.756944395243082 8.678196420599042 11.43713444472438
Au 8.971690992383092 11.89957396002214 7.988869963905923
Au 7.744968487171613 10.873113475866882 10.37831342750976
Au 6.9339866035150415 13.195316676153665 9.168096224506172
Au 9.290825013806112 13.212960970169986 10.524499971081728
