13
Energy = -29.38349753 eV
Au 11.42490369279638 9.570574472535467 9.516244822557564
Au 10.639537943036883 7.214121848866983 8.448057327962923
Au 11.38089447306077 7.3308616763093095 11.1957790990682
Au 10.865885399360907 11.477935923688337 11.34094172236062
Au 9.504501066589478 9.41776167257285 7.378543069494819
Au 10.2084369351948 11.894141911797442 8.608066497225922
Au 8.189625181941222 11.32014477678409 10.389072040572353
Au 8.767026345318666 6.626135785693975 10.380170299983686
Au 7.647494520115375 11.424710673640849 7.654669145942751
Au 6.825372769876441 9.023652030566081 6.616844695692811
Au 9.363699164297076 9.120564903440387 11.4425211851842
Au 7.4183118737604286 8.939123747335017 9.358464738152566
Au 7.969874618227918 6.796542550582707 7.742304545006745
