10
Energy = -21.42778402 eV
Au 7.046863021628135 8.353726609043704 6.490328011906692
Au 7.575784997064814 5.665832355509813 6.733794492142515
Au 8.795787631799689 10.169390112486823 7.262041168540092
Au 9.62602938991447 7.51597954362495 7.463445553974263
Au 6.9883372652083295 9.11697594461577 9.163535269227484
Au 9.146944778244885 11.004372984670683 9.873276100820078
Au 5.414860992027655 6.70842190569973 8.008299042425818
Au 11.204095310717209 9.814337627835913 8.570203805755849
Au 9.49795125426702 8.294209091028913 10.150738613587057
Au 7.793469144821814 6.446877611177586 9.374461727314575
