11
Energy = -24.90736678 eV
Au 11.72880151920024 7.015851495345573 7.855413071201723
Au 10.632944607623784 9.418693935924878 7.885026197263332
Au 10.495843250022531 7.780286008864059 10.055338404325452
Au 9.551484650645616 7.625940741882487 12.58260010932809
Au 9.925901900189944 11.857453158896831 6.904872715116302
Au 10.449697289845307 10.021430080982483 11.705181530470119
Au 10.588709837776166 11.647921038128985 9.52503442398915
Au 8.081497075892509 8.96023447273208 10.722384981822007
Au 8.205062923371635 10.612668203341071 8.562828127527498
Au 5.892193223449923 9.914956529724625 9.612716144315065
Au 11.718212437849777 12.32974704963704 11.799212452937988
