18
Energy = -44.17881335 eV
Au 10.516533760771205 12.28670574318675 9.208871663485557
Au 6.736818737610287 9.089265025454313 10.195617265636406
Au 11.975928171099175 11.612415809019996 6.922338263950492
Au 9.30100228557971 11.035330506614363 7.025215968910817
Au 8.690374911958699 7.061959388389139 10.459199251657333
Au 13.222018025661324 8.545512878019203 11.058251980836072
Au 6.576822920706223 11.263131366960762 11.737826965829587
Au 11.093091227673881 8.943497751483958 6.93982664891243
Au 8.658645085111528 9.453072029559149 12.196325125044568
Au 12.3532300392979 10.174674107587885 9.138839898113032
Au 10.746318308008933 7.790136656447852 12.031848658130354
Au 6.603029292380618 6.916157292887735 8.621460319359294
Au 7.772056764501495 11.55845425693371 9.19800131644564
Au 9.15577481811987 7.305488112496532 7.717693926935308
Au 11.302548819195872 10.493754307178797 11.703640248372048
Au 7.297789515100871 9.364951686479474 7.4737993562180325
Au 9.187479040248629 12.107443286960583 11.53269840118535
Au 11.305666008722353 7.49317752608891 9.333672472726803
