13
Energy = -29.1382377 eV
Au 7.306857883897298 9.952092863163047 10.274332724391115
Au 10.510200977801244 9.400687396751689 9.384813702635778
Au 9.148255232810412 7.918165728024263 11.167302516067908
Au 8.848875017844298 11.596689415434586 8.86925983892972
Au 6.384670255872058 7.557317893434151 11.033058418516639
Au 10.702254035017612 6.720842966823048 9.125669723932765
Au 11.06082329285014 10.962303351991297 7.234255452208335
Au 5.525959441130184 8.006260175214639 8.399126690368982
Au 8.03713153770624 7.081989693225073 8.789816364845823
Au 9.787108105538737 8.670678200516953 6.751708389630501
Au 7.243699372297867 9.934881897363397 7.512224639137397
Au 7.289704587879575 7.567052581539874 6.184953561764476
Au 9.631328289914956 5.976649468994218 6.685789483362027
