14
Energy = -31.94147063 eV
Au 12.089873277800455 9.823240707526113 8.18981537774778
Au 9.672191345727908 8.441277946329205 7.911447329912664
Au 11.709589978074952 7.491596458124732 9.574291457941994
Au 9.965944553003794 11.062981816010806 6.980613639694327
Au 11.849669931934985 9.935981225899091 10.970490293146973
Au 7.454858544925148 9.986066027633845 7.164340735602869
Au 10.840066454514945 12.003915718262208 9.466380163506729
Au 7.072385591277757 7.653387372399636 8.565757110233779
Au 10.185591900927777 7.945995845302674 11.87658811937603
Au 9.194663555282904 6.400071571861556 9.762698723015847
Au 6.484604555062379 10.104966617114176 9.79036279187065
Au 7.501102333220433 8.045181365716536 11.30533146087142
Au 9.082537626117897 10.299083151561163 10.821415612479024
Au 8.163763246360169 12.090001279514684 8.886245535884601
