16
Energy = -38.01809816 eV
Au 7.579053035977098 12.433184030506222 12.093466762963944
Au 13.126077116253299 9.230213765070593 11.696605427164531
Au 11.251095971676476 13.125609446180913 9.106836663284485
Au 12.941198971536226 12.37312361536879 11.324404443739956
Au 9.109850683791851 10.426334188737131 13.10420861317186
Au 8.128718668125352 10.273781223828989 10.408796071610443
Au 10.634463632813478 8.891424311947311 10.378218608032745
Au 10.0151872845821 10.734895547781642 8.489663466044007
Au 10.270000483659189 12.651374124900546 11.729022087359995
Au 8.552938574400946 12.935583011955337 9.512841792164965
Au 10.991804886729177 8.29274382432793 13.117285712425979
Au 11.768838434906865 11.021602440438178 13.305080449658787
Au 13.866611793590279 12.63578769534927 8.685849645050297
Au 8.51693565149599 8.003358057065807 11.852720054200951
Au 12.582446460648075 10.266767489062525 9.072963823595112
Au 14.976098296288175 10.77310911337191 10.485391161678072
