18
Energy = -42.44911796 eV
Au 8.88437062509758 9.44889723707623 14.834466697844649
Au 14.022177887380446 10.850651805076469 13.795555345069033
Au 7.8104074938551555 9.5267602356258 12.177262456487336
Au 14.487983298697277 13.51404153867833 13.391455537402052
Au 12.435921190893161 9.666853038637058 11.832407953741761
Au 12.235457585604587 11.02684791368304 9.407212198388754
Au 14.266019952541294 11.74205313878397 11.182392656478232
Au 11.83747854090207 12.754702788241339 13.77263718885846
Au 12.34852369949163 14.891475996381587 12.13466316927277
Au 15.472205583125973 14.217572005872473 10.836937459687094
Au 10.205914057841085 8.256834078541194 12.700673562012936
Au 14.816461950124376 16.112182461601208 12.73232038576711
Au 13.71620491676138 16.207757396730294 10.086264088845216
Au 9.420307881068947 11.607207215277112 13.144445392284021
Au 12.972876152765837 13.665189852352576 9.59503324412182
Au 10.821905630587517 12.840526759239713 11.140064037125846
Au 11.473730780945752 10.093209630675853 14.445618734878488
Au 9.928437395560321 10.258762530641707 10.674763217323415
