13
Energy = -29.59418801 eV
Au 7.318511295526115 8.069639450984912 6.628777927184169
Au 9.710623962979119 6.4888278700163715 9.930006448309422
Au 10.790049607224312 8.975324153675256 10.249938757416542
Au 9.84432797845478 8.246597171189466 7.751678894104899
Au 11.550963133223354 10.298458152950074 7.953558208070857
Au 7.410374895828697 7.860527454628821 9.308890405003487
Au 12.300038794427902 12.71744341156599 8.94314282778341
Au 8.233516673604248 7.853924480544533 11.91044158234582
Au 9.971965500666771 9.897638700053037 12.708249149371438
Au 7.952381006544033 10.344742543702237 7.966299257181501
Au 9.675432249357314 11.960279452309742 9.219709812671935
Au 8.123807336008229 10.315956928123455 10.68533429335325
Au 11.578612513062874 11.431245177163378 11.204577384111
