16
Energy = -36.97002813 eV
Au 8.601918064191716 11.598870156923352 13.250009116140824
Au 11.49734077284683 11.06945276071262 13.476950756823813
Au 7.742520771739328 11.044598457137946 10.756535898256585
Au 9.221332594179536 12.29224384780564 8.698291860112251
Au 10.035924035742172 8.753241004692487 7.004060354058357
Au 9.78921720289133 9.171488554417964 12.570263659916657
Au 11.106098002500067 11.209671291018434 6.872829403592804
Au 7.738109122728844 9.917439635364499 8.196478680046491
Au 10.065406402887044 9.922150675339603 9.614056267524525
Au 8.936273400825916 6.878190544928836 8.568169544216156
Au 12.391851100916654 8.951744694668747 8.587708451167689
Au 8.076564977520018 8.11325700326852 10.826553889249313
Au 10.861387390319193 7.51164765463322 10.49574031147226
Au 10.326341660716224 12.4012128290917 11.326307807511897
Au 12.005004093391339 12.12412724030592 9.266640082074169
Au 12.346144857513695 9.803792083298873 11.247302616552107
