13
Energy = -29.66262723 eV
Au 10.136335627681875 7.36957287542194 7.726094664821312
Au 10.178867972873585 10.034555750301477 8.414594111419161
Au 10.752183707275385 8.19393673235829 10.59000292026569
Au 10.688266230180902 10.821741758945311 11.00850901107854
Au 8.39096894627022 9.120688956715256 6.656263110394018
Au 10.980880251566967 5.691381083739684 9.69552531591692
Au 7.68156254312228 6.076345641926827 7.440559205972937
Au 6.187457634950486 10.941695394255714 9.517452858496451
Au 5.868859105823315 10.283294843541132 6.906816691700475
Au 6.043361440979021 7.724588344540791 6.078371561495174
Au 8.30355228185863 9.585012907799872 10.508520328804916
Au 8.446214908289537 6.766447884470269 10.016199881901796
Au 6.600198614395457 8.319305436420125 8.786951539286173
