19
Energy = -46.38285312 eV
Au 12.930117198080072 10.458271211699081 6.951430192271647
Au 9.57287065469303 12.207783755244886 9.742909122542056
Au 10.492433806373876 11.383048836815188 13.335424257425377
Au 13.014566450299585 11.425856294284225 11.735043260000223
Au 9.955581014774014 8.134915582718222 9.984486779482065
Au 12.185016183346983 8.346216209926222 8.540519018728434
Au 12.428753707680132 9.580363420581408 13.790412067034536
Au 14.069340637062322 10.130175596573185 9.580362403946879
Au 9.032281659233783 13.396354131941813 12.213290920024551
Au 12.336627947061274 13.365076323959329 13.525066736570858
Au 12.39647388626014 8.665890206399354 11.243299035092308
Au 7.998983674722654 9.975330438425617 9.209552528910061
Au 10.66315522617716 15.453825902566791 12.821441756530989
Au 10.333349158573167 10.337123801672474 7.882604889944244
Au 12.248222276793413 12.12441737349548 8.971349688299762
Au 10.028458170289072 8.6850916539572 12.737772742902353
Au 7.650216663833894 8.273119682570703 11.448079589506435
Au 8.227073457832132 10.872942282838917 11.849493006073153
Au 11.549095454093964 13.778373642499995 10.886518273802439
