12
Energy = -27.08427889 eV
Au 11.72873885344922 12.764021671877728 8.88329284526291
Au 9.334755988365947 12.934505241081531 10.2201074567262
Au 11.028125524498114 10.841143913382627 10.813184102052952
Au 12.329733613061347 10.155357361646086 8.340353028172972
Au 9.617298184053471 10.95280409713248 8.333203372824766
Au 7.828961529054835 10.771119830539863 10.913030007951631
Au 9.522816063331133 8.816655456817472 11.817479661540348
Au 11.609511773381186 8.189811737902566 10.203020254434279
Au 6.982181168371867 8.04685620073707 11.288097192845154
Au 7.902105221903676 8.904955459435191 8.899172160824651
Au 10.283354138768523 8.30448174213115 7.775973594254329
Au 9.230929242584537 6.711840046401438 9.952470037699289
