17
Energy = -40.91908574 eV
Au 6.97713312020327 11.454861311753097 11.609470826698756
Au 8.697093241636235 9.336014172917084 11.660515706592022
Au 12.599779266131268 10.169904534450184 9.49838753446164
Au 14.041991857800832 10.198307133793897 11.9268234809834
Au 12.285308580947868 12.201479570111935 11.438840990976571
Au 9.69427320252004 11.826906721948463 12.422562586347901
Au 8.712112005738444 7.732797294736124 9.226689919077884
Au 8.738146272932182 12.371619438894738 9.49802578491633
Au 11.411807219679213 7.822301096421079 8.75697381511995
Au 7.290372502613717 10.025733148385209 9.275566171723781
Au 12.986786825833585 7.8211859858762045 11.1292725465581
Au 10.575416655574529 14.140577484062506 10.671063216916908
Au 11.326189258648665 9.67853815780807 12.352474069982035
Au 11.387695358061782 12.465339710748164 8.686616694148983
Au 9.972732962281297 10.130581267236783 8.458333822089571
Au 8.100021857254804 13.938595408178394 11.761377500385366
Au 10.359121130258522 7.210389577294945 11.412453698087237
