15
Energy = -33.72496673 eV
Au 7.46943160340924 8.87969380293408 7.321891085226332
Au 7.794083607977304 11.593630041848682 8.071668744438956
Au 8.110059803311165 7.188997996683912 9.680188748038265
Au 6.413059577561782 9.744236210255483 9.696965046857835
Au 9.45567706456102 9.432232753461072 9.425684034124501
Au 8.158552700360115 11.69438963349925 10.770854791054544
Au 9.84471438378418 7.578025325582947 7.090867382246714
Au 9.805741623763218 10.373639790173037 6.704127686409394
Au 11.245886236873215 7.041370493621175 9.389609431694335
Au 10.70623448098796 11.744432102159646 9.196295763341357
Au 10.21969036943198 7.794430671720412 11.786069259863888
Au 10.245865654927218 10.580395320222586 12.127480823319376
Au 12.140608175633442 9.479518774438787 10.499740630625672
Au 12.03899603233379 9.21357024571097 7.785614414731579
Au 7.830461185084091 9.140499337687704 11.932004719535772
