16
Energy = -37.93720774 eV
Au 11.650640141401329 7.86124484690811 8.386059640494349
Au 8.790946125319186 8.437308477247417 8.318317122478947
Au 13.336510515365553 9.591668605861623 9.60511529628062
Au 14.134345367119085 10.894759827637676 11.976006122771375
Au 10.06705093276677 7.968922327959546 10.632839307586943
Au 10.778829369532312 10.391349223740825 8.748818972128996
Au 12.06235064015583 9.034643948239728 12.052079851035055
Au 12.560997433479171 12.180370253407256 10.212276816380434
Au 9.49549122359645 9.475323346989324 12.771137955500107
Au 8.458487381038685 10.491136885102742 10.180355772573447
Au 11.610603691890484 11.567266538718917 12.944928401451266
Au 9.923601898829629 12.776036169494681 9.632749463182865
Au 11.922526196924883 14.739237711805886 9.619645050480623
Au 6.9584730555930046 10.388001944350687 12.443128128378593
Au 8.967155811915841 12.21651223084268 12.462796257403312
Au 10.944980514720903 13.986726121648864 12.000620208495219
