14
Energy = -32.2919629 eV
Au 11.689752566725078 9.359994150971499 12.372703258805082
Au 8.976205570941993 9.365225720378524 13.43850031186564
Au 11.2245259692714 7.862442041983441 10.2573895294904
Au 10.996760621322549 11.064361016988675 14.33768848886195
Au 12.041681725586997 10.491335042582218 9.829894064320044
Au 8.555030733477427 8.633500199599027 10.880220442017318
Au 9.113937313653347 7.7174883063706705 8.351736600059601
Au 9.010400940536337 10.40730550386737 8.779383159086152
Au 9.306604453976842 11.210623206728059 11.55318723123226
Au 11.489903870123108 8.926506748390135 7.635168771902267
Au 11.772185876281938 12.2635097110677 12.020395483919808
Au 8.757520661143356 12.88264286369101 7.59247533845938
Au 11.097222007003351 11.512765607138773 7.275937167599093
Au 10.467509264524999 12.838414655756056 9.696658087923991
