10
Energy = -21.73817135 eV
Au 7.640224409618107 7.9242281920297755 8.448302272643998
Au 10.356703924455868 8.138384432856789 8.637091304017064
Au 8.652313041808787 10.402334624164192 8.19331161266864
Au 11.376710116477117 10.471784002550525 7.663645142169366
Au 10.111370214960186 12.756138758643232 8.417925035200648
Au 8.434570797307687 6.407445564813324 10.632488355143833
Au 10.670454779772822 7.765375765832873 11.346429846529805
Au 8.31477925989533 9.170627052945175 10.846113542396129
Au 10.925038894356495 10.29336671573862 10.373068381311162
Au 8.670434561347335 11.822914654973566 10.594224390193173
