16
Energy = -37.8765902 eV
Au 15.174204252103918 13.073432695594372 10.272619694408096
Au 11.360055995821032 11.06751280273084 9.050614030342818
Au 9.293925518757485 9.769343275026248 10.527742846514998
Au 7.481811588167187 11.706045893850009 10.51792829851664
Au 8.67719820127222 11.04744356559547 12.979302204575154
Au 10.601409134587854 9.083293556109743 13.206299961604076
Au 9.898774387691708 7.2426476769198525 11.32490959707566
Au 13.777659401908059 10.751709142445023 10.295289304058445
Au 11.269101371401428 11.662990215445904 13.489309616308628
Au 12.506814214753495 13.419185018872335 10.144496095565438
Au 11.692902549616782 14.242982598938587 12.720911295539969
Au 9.968221366081032 12.69154034170305 11.112734836516418
Au 10.30981670438126 13.524442074437625 8.537779521004554
Au 13.30622031136352 9.758162779958417 13.049549577613565
Au 11.922570341765912 8.892514525337152 10.621620371043864
Au 13.75029910783655 12.409946136248953 12.542592562450233
