13
Energy = -29.33740128 eV
Au 13.501838414170342 10.943481254291985 11.364444866227696
Au 13.48712731027395 8.999461615040836 8.896604404153079
Au 12.124129975989899 11.382529507168249 9.026542878342832
Au 10.875413003338174 11.69852630527873 11.477991874088984
Au 11.758288179125282 8.890467625046938 10.992488523152756
Au 10.859252260137572 9.084346467712173 8.145563540649892
Au 9.39898087168241 11.467486587395726 8.974389750186319
Au 9.438011985372508 7.742670383228807 10.126705490789133
Au 9.447823356521189 9.467118540047741 12.331163517841611
Au 8.125677660346275 11.748987206658029 11.409265589248871
Au 8.108422471317466 9.174779275901486 8.13568701849204
Au 6.566701250101755 11.209288668470636 9.191949599026216
Au 7.169738256940748 9.124854600979766 10.834720435541438
