15
Energy = -34.83175791 eV
Au 11.073314792788219 7.7986696716456585 12.36066947868965
Au 11.583385695767403 9.738161502739125 10.542494874072547
Au 8.857599877422913 9.496908864042737 11.845290221101637
Au 10.957947089119694 10.384821607252881 13.363745085183972
Au 11.456254205152538 6.009559180470506 10.442395043711642
Au 10.124713618549563 11.965755099979159 11.28654116447782
Au 9.372549221608958 7.631024955027812 9.959614157919638
Au 10.524365465420104 11.29966194455809 8.620819371325297
Au 7.525255964657953 9.522377793560185 9.493649083250029
Au 8.085179925990278 12.324180698215885 9.630280856138913
Au 8.120122928220095 10.937592740282387 7.111405555099542
Au 10.472462405456012 6.190129421518275 7.893614763998127
Au 10.467457565106928 10.855550202506146 5.89796871710194
Au 9.845562936784368 8.75090110809527 7.499499380879466
Au 5.844807978423887 11.40568488057507 8.362991917518748
