14
Energy = -32.34075479 eV
Au 12.77519342991406 11.841996488904039 11.03544751953183
Au 12.359747486298316 8.992184948370493 10.154530011227635
Au 13.7212120010529 10.779635563652347 8.599134859346803
Au 11.109980420208664 9.850330263962146 12.358586382691202
Au 11.052734395989013 11.548038065140856 8.939012333392249
Au 9.88994633789618 8.117031141205183 10.660850335191835
Au 10.08678536062377 12.244072925098388 11.37057936800866
Au 9.298947700282284 11.252873580191787 13.811461551516718
Au 7.270039418159922 8.164906547668611 9.884651378307206
Au 11.664884018658622 9.313650113904322 7.477373218649531
Au 7.658931073197153 12.42799323830177 10.158910774336771
Au 8.07799273851865 10.096269329913797 11.698346373814909
Au 9.351473813736979 7.998765914604225 7.884088568510479
Au 8.657703996742082 10.34015389853638 8.902819868828901
