14
Energy = -32.36636084 eV
Au 13.628339418219095 9.695713696188136 9.482844595473532
Au 11.991688319080453 11.386297352177593 7.506098549590955
Au 12.91369946188003 8.89428062190741 7.010141977955467
Au 12.032861327352894 10.004035772950333 11.604418274124539
Au 12.661493973597755 12.243177387796425 10.010647821172695
Au 9.983237208095092 11.918563861737503 9.231548221725303
Au 10.932776983319787 9.131779244912057 8.916190642396012
Au 9.962012451907185 8.189657783594605 11.285183707269267
Au 10.706412163835278 12.481633483617209 11.928915539699153
Au 9.715130228550057 10.274736368664696 13.1717242778975
Au 8.351546871033127 9.689875041155092 9.566609705547211
Au 8.156102066013371 11.807305620663168 11.394501949615053
Au 7.639145425499272 8.690030948192298 12.567984887578183
Au 6.059003000742348 10.210170152560837 10.931039483124245
