15
Energy = -34.11663323 eV
Au 13.029692655267956 10.462232126333523 10.773091398826608
Au 11.126045697314865 10.651101950054523 12.918066233983149
Au 12.143261966086245 7.938557921691434 10.100527382311304
Au 11.24640367982372 12.618012287947476 10.820494995603173
Au 10.882549179075628 8.518828840027684 7.730498327350226
Au 8.972165673437557 9.00218474346585 12.418961860658161
Au 11.696446763987879 11.149236357686004 8.307221862374275
Au 10.328595042247287 10.026923733639919 10.349370201787446
Au 8.720239613497872 12.250014870850073 9.83079430929455
Au 9.366929573888548 7.417633057577039 9.908707189475255
Au 9.02161596343557 10.586485382818552 7.657942496747375
Au 8.316980414483481 7.906118302005679 7.258077648781304
Au 7.490463137516647 9.790738100549122 10.20116021516859
Au 6.708104897813255 7.315781923121255 9.432421274302188
Au 6.396195463733508 9.865572111041066 7.7429853197986365
