11
Energy = -24.16647813 eV
Au 11.712218318456802 10.020761366838064 9.376363313893734
Au 7.739453445012396 8.370515093873259 11.095622106362681
Au 9.26214406327345 10.48328747394904 10.528830467508545
Au 8.328219847855127 5.847704494467482 10.25763481071014
Au 11.514179726405308 11.684232669292328 7.26587306335002
Au 10.252886233919714 7.82133294771831 9.902170305065852
Au 7.29354491216067 9.686189663517835 8.593660227995176
Au 8.45188748711374 7.2478008024635185 7.8422843216017935
Au 9.993080947395374 9.317862134413213 7.319319780540689
Au 6.043377921601107 7.2999794724129075 9.250130421850033
Au 8.947638674887418 11.758965302973728 8.106742524959936
