15
Energy = -34.82253006 eV
Au 9.737978475713698 7.90717912916204 9.698993040592491
Au 11.032267060495952 10.976910328135668 6.751446276753965
Au 7.32715220974926 9.134308021863495 9.008544520868497
Au 10.171078246512714 7.909436794744669 12.362648439842491
Au 12.826851544354366 11.202940008918171 8.995563186668562
Au 10.97787524191495 13.241023946675003 8.229342985702107
Au 10.708736918186045 10.603896944683935 13.000889734615088
Au 8.258620153644413 9.551878022799267 13.664631875881557
Au 7.475424443780501 8.088887606645276 11.482531122514905
Au 9.234616320371394 8.961744664337091 7.0746043059285215
Au 11.921944574544979 9.333785920829316 10.813025462690907
Au 8.388298275073577 10.715751175693176 11.21008220770218
Au 11.872618906281721 8.755669440609177 8.139392546085562
Au 9.019136762367092 11.322311344665282 8.633828771131519
Au 10.785642935150827 12.006903462815123 10.69572320210624
