18
Energy = -41.60400277 eV
Au 14.960449746632506 9.468624872924197 12.479120010946184
Au 16.31911875347936 9.79328908752511 10.132709413528373
Au 16.303812331088118 11.860035039490867 11.9398565242761
Au 12.265386089917175 9.484597708858505 12.407114620581364
Au 13.540771011692538 9.19578088384954 9.982594806012116
Au 14.905212519392633 10.276313706817227 7.8951401330823625
Au 13.667533307615235 11.991311886544082 12.720543214797745
Au 14.267997548586541 11.93157897368449 10.011970061558198
Au 10.87727410406734 9.62348104034943 10.043145115656928
Au 9.002737688067336 11.271671058918034 11.00886892875343
Au 11.646642926234273 12.202082771495647 10.780134722683295
Au 6.53999468208227 11.245132414376853 9.776090336210904
Au 11.11829938506828 11.653647657415647 13.57350664040162
Au 6.554705561122605 11.685238725989526 12.417984394513844
Au 7.584805105990314 13.647753050423722 10.549611226490965
Au 9.819591176412516 13.730386847552584 12.136597794789832
Au 8.545854503606867 11.948718506720011 14.185804514653366
Au 7.343852945469808 14.25439515358985 13.223246927589399
