15
Energy = -33.89039974 eV
Au 10.246043397360552 11.04466529642648 12.61427338723383
Au 9.340263702501982 8.352093009110373 12.55655947663603
Au 11.920356949063022 8.951100839079267 11.534067535616995
Au 9.683959446927258 9.786216532486357 10.105402350631563
Au 9.00667834018429 12.459148046731364 10.443189630155544
Au 11.795217435425002 11.59769371622693 10.324916802864156
Au 7.555056755482194 10.45442140605913 11.884727879030718
Au 9.572945993605884 11.513160476134304 7.884359959146647
Au 12.332112258688044 11.320190716813897 7.696630054019442
Au 10.169230214762521 7.061906101959997 10.077346670643076
Au 7.229065588300852 10.530137925150516 9.051047231854314
Au 11.918985003384297 8.795956778622356 8.76834624081732
Au 7.480417484364949 8.010696897355869 10.428028972281966
Au 10.6683962509747 9.441428342110452 6.3843173240146225
Au 8.723020152129784 8.347058672110059 7.9016200031830035
