17
Energy = -40.94029983 eV
Au 14.424664668730145 9.661002099527183 11.476257749136767
Au 9.711878777815016 11.206486770470555 13.517956827251572
Au 13.161886812478231 11.679024428846509 10.213596136265211
Au 11.73051418073848 13.671440854230053 9.053420958073389
Au 10.77253764522053 12.614541173950977 11.426870674938389
Au 12.104312296410871 10.517999209461204 12.630183841877129
Au 7.987141818267769 12.283509306015175 11.541396021967191
Au 12.30027834639825 8.986221173843127 9.824002933329922
Au 9.181593587976247 12.722385749202077 9.112329031776982
Au 8.183447004231516 9.579597997401423 12.039393118115601
Au 12.560767116890606 7.7888496444578585 12.354864654855401
Au 11.391091763624608 11.021870052977677 8.204388930480448
Au 9.829218892238739 8.8542536557537 8.674775045945784
Au 10.166372304941724 7.770039522758681 11.20968127693489
Au 7.641797247478188 10.465965359795211 9.460705288411065
Au 8.86607293472423 10.925570212482409 7.03871259041435
Au 7.668431215028359 7.776840165174889 10.073695349704462
