11
Energy = -24.12612229 eV
Au 12.125093380859788 7.725287931628956 10.821575536353475
Au 11.643117432237375 10.411493719785982 11.078963907993925
Au 10.656514437913268 8.818221242055845 8.735596830846466
Au 9.648462384938748 8.591679512405271 11.737940260930195
Au 9.916352961642243 6.398367925444135 9.914789440634447
Au 7.99545602781606 8.36577086658527 9.556721269236368
Au 10.939069583156527 11.485207189977466 8.616588044455076
Au 10.572787310827716 12.93322506521709 10.95793154651471
Au 8.686940491367848 10.907749748168952 10.781661438503399
Au 8.434437036320418 10.547239664954043 7.994181211587844
Au 8.613947096813561 13.102391712473214 9.058920047862626
