17
Energy = -40.07114094 eV
Au 7.018154270698244 12.844487811571861 10.973340237491314
Au 11.467214304520198 12.772687330972431 8.096523251075103
Au 9.18067140096156 8.01845585926067 10.671033814048949
Au 11.820309061394479 12.241107366856122 13.164069472010969
Au 12.979994860120511 9.68096322653116 12.283613904632093
Au 9.401825379919915 11.612190255390809 6.758989736011268
Au 14.182387037456396 11.324835832395102 13.938977471201511
Au 11.643228453225873 13.409157681087407 10.685570267533286
Au 11.99728342342483 8.244713880510668 10.183992850859216
Au 10.972064676568769 7.842328589590871 12.786539445986193
Au 9.223746452207543 12.11483496586931 9.516154370512364
Au 10.152511027087852 10.332694199356638 11.954611750121295
Au 12.315462882431506 10.908888633245121 9.892724239249954
Au 9.69468502224456 9.589761851712042 8.46697772647284
Au 7.649298026164189 10.206441972548495 10.75568217869394
Au 10.433235380160687 6.996473218358353 8.400282523063046
Au 9.392702921808699 12.984692779328585 12.261438753496023
