10
Energy = -21.5849431 eV
Au 7.572042124388711 10.60215467554144 8.295214627948742
Au 6.363060091287511 8.176358576372685 8.750678788193047
Au 6.602552200259567 9.127192308745874 6.084619664494855
Au 8.140708995682047 6.951455835686097 7.057447862825622
Au 10.171633379987446 10.101966524038387 9.159074027315127
Au 8.043833247848577 9.26987090864063 10.683969388688155
Au 8.433205442992277 6.687823905329665 9.812528376821241
Au 9.368506304669381 9.366537018283905 6.614804236345269
Au 10.570122358567817 7.517909462266738 8.30021130263624
Au 10.568015876560883 8.032410807338792 11.075131702487367
