10
Energy = -21.90315511 eV
Au 8.961772338500715 8.017974246987992 7.753367633879395
Au 8.656098238660675 11.39796906834993 9.548151052268725
Au 9.201714648726279 9.44228075262667 11.464334082431265
Au 8.803572493045646 6.931527639216851 10.486865116608955
Au 6.822374762573368 6.582953286075418 8.767790758044368
Au 7.181959976109536 9.211793260927957 9.555124771456077
Au 10.952953274406418 12.727785797698955 8.752986445278653
Au 11.372527513287379 10.742295637134625 10.46402371919556
Au 11.049160226373596 8.185936393773908 9.586264937344893
Au 10.443362438418832 10.197578861483725 7.745314413306791
