17
Energy = -41.1155276 eV
Au 10.718810193363943 13.413639532553656 12.844458492884483
Au 8.16663930946488 10.033694276177906 11.226081924226847
Au 14.200464938765236 11.496072789855788 10.235488040847619
Au 9.928671765658525 8.522995609505987 9.669727063539629
Au 10.218193935385342 10.692575467921236 13.143640330030728
Au 11.256912540385716 9.459163284856501 7.519939987799788
Au 12.754810580304952 9.217486776578223 9.850653907855905
Au 12.359981309416494 8.974919602050926 12.62128619438971
Au 11.790602838545253 6.897887948903016 10.950327138775029
Au 8.179480931050401 12.48004562836018 12.538019770546073
Au 12.480043375137372 13.642933628319641 10.734919353915096
Au 12.784902931076047 11.583460800306023 12.603126608785326
Au 9.821285817673601 13.151567817231367 10.214651949069522
Au 9.181124843709176 10.967075727110847 8.557469487666692
Au 11.832453826398762 11.742831378958329 8.875620423530195
Au 7.259508007595008 12.279539264618428 9.922983499788414
Au 9.674956519471486 8.103170157283724 12.337676580811848
