10
Energy = -21.94886489 eV
Au 12.165702498063906 9.345945493910934 7.202745271602496
Au 10.585276255731083 10.86460185650404 8.88731635297171
Au 9.177822334144336 6.612346550132756 9.200367491788205
Au 6.63987305547631 9.289234594150388 11.587694276683745
Au 7.364529231045028 8.685153993361794 9.025146219576014
Au 9.251835267791218 8.51029091181122 11.231918718221632
Au 8.093871099915868 10.982351459880602 7.6582689637622
Au 8.41062566793165 11.006463627809334 10.42888456751412
Au 9.5315291101659 8.643944568358902 7.338930966429984
Au 11.346593285273812 8.319813128876161 9.600960970490698
