13
Energy = -29.77671704 eV
Au 8.555511730450641 10.710558271870338 11.175382137340097
Au 11.350916807819576 10.620733190917523 11.297054621719228
Au 7.413730109519406 12.851494352837014 9.955349071048488
Au 9.84005833366049 9.55558224088254 13.27518194567589
Au 10.112434868700442 12.820184516332045 9.999650002539205
Au 12.804905125856983 12.633260269990927 10.204801571335729
Au 12.829271678792868 10.17711693198272 9.026692998066535
Au 10.089529737626952 10.266816370158223 8.606622915682642
Au 7.327099072113131 10.420975300683603 8.737627454389106
Au 11.561307273396663 7.877502496679591 8.778494408460402
Au 8.386856944876229 8.010303689576832 8.601819510356966
Au 9.874724529935161 8.214485991383528 10.950770120939069
Au 9.855775553297926 5.909235267602849 9.447092596305005
