14
Energy = -32.29145541 eV
Au 9.751929115592716 9.958401912215068 8.274256846077899
Au 11.955903088053843 11.605670978069655 8.255526697103608
Au 9.276259871318443 12.401263232407914 9.423478210729032
Au 11.643719605804508 13.802481927157677 9.785070396925002
Au 12.038702773915322 9.282354487224202 9.727174167534226
Au 9.74792644240613 10.21562145215787 11.045484145720254
Au 13.258213583754157 11.657663745499464 10.687885446920724
Au 12.760996614842982 13.91303938492491 12.33181167863092
Au 12.255324059040694 9.671642338380336 12.412894910137316
Au 10.171439502521052 12.832073293751247 12.00915612392581
Au 13.96004115330847 11.623361337821068 13.366339889938962
Au 9.963410516583957 10.596805310435355 13.73425903676394
Au 11.490239899796245 12.790969268259946 14.429204624795952
Au 12.344277964666661 10.267035523300615 15.135842016401522
