10
Energy = -21.78409323 eV
Au 10.614126682291978 7.272147277406933 7.3288323753087345
Au 9.121401781096298 9.625015450193327 7.252463722897652
Au 10.98809518985028 9.081309223812429 9.317752076829512
Au 11.245780668761485 11.336573987246469 7.700331174523808
Au 6.918000384038661 9.720127061455035 8.915368805372292
Au 8.460018489739577 7.332442316003473 8.85004000283642
Au 8.56481338619643 8.958567618357655 11.125840708687953
Au 10.68779435956687 10.433488024118104 11.646838066713434
Au 9.135165813074483 11.257296463736626 9.475776481775988
Au 6.54274275531068 7.284302950947833 10.691656622509475
