11
Energy = -24.12390046 eV
Au 10.222378660676686 10.711378960161696 10.17038973609792
Au 10.784873976863977 8.042207224531285 10.474757165190141
Au 6.599715903347165 6.653088508314855 9.492637778332274
Au 6.64033863829146 8.8778145769397 7.9546528706003485
Au 9.082978503434573 7.403076751248518 8.265621976192943
Au 10.382321881908167 11.842321862808666 7.617948946801882
Au 11.228357211815862 9.210453468019368 8.027751230877431
Au 8.854355356182012 6.186199672449807 10.856365157173121
Au 7.915135463952776 11.171755496567934 8.761038372762737
Au 8.066480178383003 8.926654176210963 10.442545008088452
Au 8.914448301365132 9.666433378967904 6.627675910324139
