15
Energy = -35.15688978 eV
Au 8.14395895023926 12.688792851416483 9.189926018627
Au 10.108976150981961 10.516545801505648 13.201093225409945
Au 6.9461250421497365 8.317327250518996 7.992365192635546
Au 7.072094226184183 7.57377433538254 10.649098054993553
Au 10.225682115795152 11.286095740344802 7.9592871684716755
Au 12.632799687901928 11.355948420226174 9.386602184839141
Au 10.137389286763364 11.645220005592286 10.754939278478442
Au 11.530468668239163 8.961983110523684 8.620071780889436
Au 9.474300503236949 8.399498103302008 11.66769735801869
Au 7.976259406270594 10.061456840564755 9.93813001941824
Au 9.459714300509571 8.880453137013093 6.798006575808196
Au 9.370602402348174 7.321222200644631 9.080470056859825
Au 11.987150215593887 9.627087471237218 11.388060203319856
Au 7.525138563687779 10.85766189672155 7.234988864254686
Au 11.731272585590089 7.034389959386135 10.551570658154525
