10
Energy = -21.91474257 eV
Au 8.590340658697633 7.115422142519313 7.069570755520022
Au 8.152335732173539 9.447072853123439 8.317083572753388
Au 10.770216985387915 8.586272168624408 7.2309210662106915
Au 9.716290660900059 7.628160968188398 9.681174913035363
Au 12.750165360123125 10.226219655422044 7.70140766218474
Au 10.56452820506536 10.613625531496435 9.130446051242481
Au 9.365630414769612 8.301501288245971 12.178568549910606
Au 8.178965522927024 12.07529791752035 8.85320250044729
Au 8.516473530015015 10.47773338238798 10.951046533817653
Au 8.114518478557015 10.23799191724047 13.553921972605249
