19
Energy = -46.34195206 eV
Au 9.210971975904734 12.01602309969916 13.494648000008693
Au 8.87786238156251 9.802666807922591 15.13286390073838
Au 13.897704242959046 10.185134945129509 10.917868396628204
Au 10.359667132471115 9.530563453470808 10.004200953973106
Au 13.070192262902113 11.997993089929189 12.770721218194506
Au 9.224828437343795 9.345643572721203 12.488477424990426
Au 11.822089980271635 8.590480465019306 12.163715097385932
Au 12.532901087408796 10.48373731092901 8.480464398158473
Au 13.182150968183732 12.758440748584754 10.18912512165608
Au 12.685337571018817 8.041782264394504 9.622738909642722
Au 10.33364247912913 12.112892072508117 8.903249837606356
Au 11.399598006639797 14.70476135913689 9.417176932030422
Au 8.848113662844025 14.10752696098717 10.276937009599445
Au 11.401460906312968 10.332139534600406 14.369942165635006
Au 10.953269136199346 13.556576053041182 11.915864586933193
Au 8.601462672305024 11.485415034981173 10.887614732653985
Au 12.54680105595869 13.040691149843678 7.497871053750546
Au 11.414301881664551 13.146328842197653 14.625330115328278
Au 13.92955022464634 9.541972219485638 13.639708090879395
