19
Energy = -46.38704397 eV
Au 11.727113988559635 7.114246465287943 9.856746033740572
Au 8.960623197857121 7.10072521875884 10.177978514018708
Au 10.11495780439425 8.169867518765562 7.850859525915123
Au 12.64570728670275 9.459729377153106 8.727114123406306
Au 8.24533837321773 9.031639155998926 12.093894660746553
Au 10.615310491196794 7.6418383802274015 12.397958818094658
Au 7.404269211813728 9.194512490741936 9.34733912073757
Au 8.206086044117544 9.84201474056379 6.801136595330669
Au 12.825010030356342 9.07725508216352 11.51866315244876
Au 12.25153790987477 11.672084061801284 10.771773952136433
Au 9.55292118965437 12.467594567309165 11.310731704344018
Au 10.73235353635711 13.222244211740048 8.98807604717819
Au 13.091042485221177 12.09201732449499 8.149458408144802
Au 8.331219276750309 11.40423766721243 13.549104856179486
Au 10.796508255149345 10.44614147947107 12.847637378761238
Au 6.9879061433937615 11.305800432982403 11.097710185747886
Au 8.387609399350653 11.804694938027717 8.773976463666614
Au 10.177603387374809 9.778798469552449 10.14099110656892
Au 10.687014311854318 10.91469074094362 7.3389816760302775
