17
Energy = -40.97379414 eV
Au 10.748996667887424 8.385097597411853 6.912494106619563
Au 8.415235237537537 7.973038104604785 8.5108815872341
Au 8.418154970041961 9.78526471251792 6.38784462733417
Au 10.684072604042797 11.153786778457189 6.987715044700129
Au 10.883688924566586 7.036278992010663 9.24309432876992
Au 13.422722033801406 11.70520001302765 9.909735557871413
Au 6.305770181610532 9.679404396025278 8.133688178442629
Au 12.046912768237044 9.54865315239771 9.072389224983377
Au 8.961469110185693 7.253994799812866 11.13435994096528
Au 7.374923841650354 9.797744489439118 10.628094216197379
Au 7.041055296848286 8.210211935655293 12.770178802486157
Au 8.420290268578539 11.431916271770566 8.655563546906366
Au 11.542485671411443 8.1879028562376 11.631535770327574
Au 10.855968931222197 12.367818827596825 9.373790424441136
Au 9.375112716240412 9.617149208848222 12.672908930764642
Au 11.52176500877612 10.893852971240099 11.670808602179141
Au 8.947512897539385 11.979942048509704 11.333998818627967
