14
Energy = -31.87868836 eV
Au 13.465268301238845 10.687635729129454 9.647163742439918
Au 11.765655016528044 12.666998183810671 10.311810485858087
Au 10.183146873173564 13.103426086364633 8.165433685957808
Au 10.849294727498137 10.519551282574723 8.364145421503453
Au 12.885526326266117 8.822433482549672 7.710368628861904
Au 11.97500388165082 10.614303980444621 12.00789951729215
Au 10.193587986085525 12.985143230603516 12.598806952937963
Au 11.58539071189206 8.466261867009278 10.08481077624075
Au 9.368627456553469 10.461022436022152 13.004732264980104
Au 8.287945913151745 9.617123358620317 8.76109408887147
Au 9.088290867897737 11.712174602767012 10.380964407672929
Au 11.024231091142733 8.157101919174622 12.855123012569635
Au 9.119344371850692 8.540331297011603 11.06490760851457
Au 7.028949477337021 10.202245604564059 11.581093915390618
