15
Energy = -34.98191051 eV
Au 11.624793110793734 9.183155887355708 10.701386443977892
Au 12.692196494200628 10.838436265248076 8.71685461916903
Au 9.695700337142409 7.811439240062457 6.728014781147943
Au 9.500051788032017 8.128540422740151 12.153628099678725
Au 10.625367097285437 10.431168663428728 13.014838525778666
Au 12.014551634061053 11.956211040036617 11.151724876152654
Au 12.013501880422755 8.18196838138618 8.183759672916992
Au 10.701393069593324 10.382359011963157 6.837526563585438
Au 9.666840782133681 7.5582810085293675 9.463833362506008
Au 9.351869964078706 12.52374018763379 11.71535349419788
Au 7.8772862802916475 10.3219748835687 12.573133211289143
Au 10.059284865516629 11.745368307640865 9.118340460449868
Au 7.317134720683285 8.657692851206573 10.411688092400457
Au 8.342623710855943 9.757804591574061 8.10037657844814
Au 7.469830945071485 11.450033487087117 10.085439195487133
