22
Energy = -54.98596181 eV
Au 11.857461404490683 13.470011687169182 9.666690872363665
Au 9.62426944099517 15.107303861617366 9.74722684850592
Au 9.044721995413067 12.67913894463473 13.77612674284855
Au 11.769640138432672 12.952344504178733 14.21867672810936
Au 14.402191157550822 12.009464150082387 14.135860200647189
Au 13.677292573430668 9.064029969511774 9.62171464763532
Au 16.15365072169821 10.100647770901368 10.193397626434715
Au 7.753465726634944 11.34721158122088 11.717638689288153
Au 11.55857084562895 10.804998780399446 9.060032604831267
Au 14.016166400085888 11.900238005558267 9.821147438860969
Au 11.157237217125955 8.06278107579736 9.07780577470753
Au 14.271917919307942 10.01325783113984 12.17926572451513
Au 10.309870867206548 11.078261769185278 15.637194185422338
Au 11.75640581443784 8.872946062351291 11.665673363592585
Au 10.769935243508339 14.368453202213486 12.134348732336209
Au 12.325711023951671 10.167768639005645 14.021589967766142
Au 9.374259355840731 9.646507706487581 10.40205342801532
Au 9.327044722547573 12.347066185100699 9.679174632641285
Au 7.990844942762297 14.053279597209439 11.685094873698828
Au 9.711650176916677 9.96580315923249 13.157993686410165
Au 15.872540877681027 12.39250319665218 11.805491767144733
Au 13.343342644798183 13.514119808202635 12.041482409467383
