27
Energy = -67.70992389 eV
Au 12.89599603578039 13.056899459658627 12.742975843199035
Au 12.941270709265329 14.957366554683997 10.722206466183867
Au 11.768352811026904 10.757576942152616 13.792393372620541
Au 10.037879235161187 12.628191162813057 12.616228039436107
Au 14.6905036466826 12.810414569620919 10.379040393047436
Au 9.141030553267221 11.06432348449894 14.724662223258772
Au 13.716656224716981 10.54548957378973 11.662094696352176
Au 9.798568121285168 8.588228463399838 13.546134163379246
Au 12.365608135673565 8.321598658536198 12.542508979204635
Au 11.816206288840219 12.362368748811583 10.264635827980225
Au 13.059152682697514 13.721010771976333 8.180586496432507
Au 10.156471921194944 14.638895575982433 10.689682060791258
Au 10.567810888211019 10.101123853443099 11.118359245728803
Au 7.195919669375793 9.148768451130316 14.347386727347114
Au 10.300665707440944 13.356378696156638 8.10555770281437
Au 8.648011237223509 12.366193505604564 10.19093458732571
Au 7.876228457282885 10.767340700681117 12.241585864719188
Au 13.740172159688477 10.987968082910925 8.561576957667024
Au 12.72856336614757 8.696533571312358 9.830620044648333
Au 10.21460835449685 7.306853828806165 11.132289509032985
Au 8.266405029345478 11.529097936085167 7.635708115565072
Au 7.521717215918953 7.982685676882528 11.871106986869743
Au 10.842567340028387 10.61212241223102 8.24506381430503
Au 8.13291028692902 9.642540922484272 9.64813423872586
Au 12.743784817381734 8.934250448610262 7.086429324253993
Au 10.452602832912005 7.885902329959845 8.406287457792976
Au 8.117751426876604 6.9047120655890755 9.416142013623633
