21
Energy = -47.54341433 eV
Au 16.127278278570913 12.642361202539838 10.506101988702133
Au 11.958352935727797 13.308846970315251 13.057641778720662
Au 13.07961017784301 13.995369817805221 15.460771841140783
Au 12.81874766148302 16.060143154295503 13.413411784599003
Au 11.520525818063195 14.378054282580965 8.445412150424149
Au 11.971822721954531 15.339845050324303 11.004883631390001
Au 7.35859572062837 7.735723124659551 13.910827091511027
Au 15.738562503240358 12.969998266882657 15.136203360138444
Au 13.510572092894751 11.55123734430335 14.32462881899899
Au 15.424369992694357 15.561958962180473 14.391803926037134
Au 14.56296671610456 14.852214317588198 11.612026245263952
Au 13.48177277889883 16.65092597651504 15.939885788568569
Au 8.76581322736134 7.183434874008304 15.954355072268196
Au 13.8241253795654 13.422928365397786 9.345083039053897
Au 9.469252823728832 14.566330978133765 10.215460453607612
Au 16.008111477780645 11.205107998367895 12.742091597577657
Au 16.85561095231569 13.951575983337612 12.800775618582733
Au 13.584162810836549 11.523140101081022 11.437119742330413
Au 15.7273749832997 10.233664710796136 15.202432580028956
Au 11.283970138483774 12.517649047789938 10.547362044564183
Au 5.47747921442825 9.247242650252742 13.100162823423913
