29
Energy = -74.15551984 eV
Au 9.17026647936127 13.822796612892208 13.766293533968762
Au 11.85885182231517 8.984705701776477 13.955035410265898
Au 7.933117872062949 11.606844147268507 12.672325885403609
Au 10.478143348932324 11.365806863255614 14.057965215403508
Au 9.314257002041053 9.108947983447234 12.861196823510234
Au 11.325325139649912 7.242075321290547 11.903660509343922
Au 8.752875395354993 7.268666624811951 10.859194374196413
Au 7.954053944735213 14.198396043672503 11.300902762120801
Au 7.211678127167581 9.475884943005598 11.086318895027867
Au 10.43485355286815 12.477792601911782 11.487622986763197
Au 11.896139665474516 13.73740103351097 13.767853114400957
Au 8.114995871106732 11.867380629279495 9.859113985457894
Au 13.278895936479378 11.292221061993676 13.535974982930718
Au 9.103090582623409 9.44470114394344 9.04940012836623
Au 11.341461612574788 9.988624589562571 11.03012579588888
Au 10.87524282769582 7.346735764573422 9.130559066629301
Au 10.397155166396411 15.398742881122953 11.617202589053068
Au 13.836921482410519 8.973227859250947 11.999317510369355
Au 13.482629100926044 6.920885127488216 10.205793632199121
Au 12.917275835889466 15.956208997523712 12.457138407082315
Au 10.021013395570497 13.980782302137873 9.187882333204149
Au 14.43686988542607 13.663574871390974 12.624302478828838
Au 9.669043943233838 11.81142494425892 7.524152567470408
Au 12.625988300950208 14.078400479118093 10.456497082467306
Au 12.004226289461581 11.910692997624121 8.904671226472896
Au 13.99177382893175 11.628997379167767 10.85775733841652
Au 11.300643964674142 9.614128902288378 7.38733285905029
Au 13.502071087664586 9.54362661590274 9.186678301614537
Au 13.033285617947653 7.46897523910065 7.494478012619845
