21
Energy = -52.18741256 eV
Au 7.776285571250649 9.441998740876322 11.972358044527667
Au 7.284312979200381 10.54047986183331 9.47211199037293
Au 8.772257561074467 8.27733202711874 9.705283905876346
Au 7.644714504553492 12.346303553980851 11.56421172174202
Au 7.278535747787869 11.256062846885152 13.967087909689115
Au 8.50159123723296 12.937321002447398 9.031744176497268
Au 9.534180683522944 9.62301452377012 14.123452696339612
Au 11.188203700553697 13.000901803585867 9.088402723164647
Au 10.302125662444139 8.127114645228145 11.973594261146083
Au 9.915422273403042 12.23635237892739 13.27826908999439
Au 11.441278640095167 8.46363592637102 9.394323126202686
Au 9.798955757764995 14.086721281653196 11.243376568683786
Au 9.890394385315268 10.569943885067177 8.469363315993503
Au 12.143505296334581 12.776807333761623 11.774975248568362
Au 11.895476534639434 10.29639604356056 12.956825261672513
Au 13.010037462061057 8.125199514227186 11.655017027884396
Au 12.590925203074818 10.760838511774685 8.307277314471936
Au 13.85843147855085 13.065830882012367 9.61629945272881
Au 13.822741799647991 10.705621327648508 11.036286870624565
Au 14.252392227832678 8.621818690883012 9.22620347770105
Au 15.317761169684278 11.015816306261451 8.519341362522276
