22
Energy = -53.58298908 eV
Au 13.110502606671307 11.911019570056746 7.817780045715095
Au 11.242925951422713 10.042324553941771 6.987774724035956
Au 10.680196211578593 12.668055989485616 8.706039117097873
Au 14.224128730687212 9.449236535345305 7.657736421645909
Au 12.062471404887761 9.367523935718733 9.45669498900687
Au 14.575387010245139 10.820121657009933 9.960716491123161
Au 8.68693105137052 12.412347767608347 10.629733519252195
Au 13.055388752028371 13.422523602689953 10.066431697631142
Au 9.1827408483306 10.306157646844012 8.67427837141237
Au 7.19015911931275 10.07348982296072 10.467042157233138
Au 9.752553421255909 12.347281081035948 13.392156873267082
Au 14.419118127622468 12.357637876571543 12.152407517971621
Au 7.12537524558246 12.379251061778957 12.914579358924218
Au 11.29076108010395 11.541581053511331 11.207071355384816
Au 13.010563007282025 9.463272654447096 11.988980408855229
Au 12.029980644627676 13.885529843836359 12.62309325977361
Au 5.447703957693137 10.240421901306837 12.47892929947807
Au 9.871641225840659 9.123280940182433 11.07386467156149
Au 10.704089606382759 9.444463942943877 13.649408272033607
Au 14.750470548627137 10.284575280661235 13.880091817620372
Au 12.365154351779326 11.561669620243412 14.007409497418516
Au 8.107307574796469 9.828552010515788 13.132388293120227
