26
Energy = -65.34587929 eV
Au 7.224302373664016 9.174737458411238 13.628530459467827
Au 7.792056188536603 11.716021289043626 14.20819163793507
Au 8.335603084175887 14.065768408161778 15.263528998614499
Au 9.869549745123688 9.844243716543572 13.813297564859825
Au 9.01917418924393 13.761573076866625 12.663716502881744
Au 8.322152472358997 10.666886533911255 11.610873395668133
Au 16.423910105003973 11.033114077496332 11.558761977816646
Au 17.73629471483495 11.412333607934164 13.94636502154882
Au 15.02508391920831 11.000584676533308 14.008848001742646
Au 10.592436707868519 12.505771347425451 14.703412894325346
Au 12.420370751411863 10.560036784245051 13.84439558887353
Au 13.75267902639029 10.788518232324689 11.404420875167515
Au 15.90605061997922 13.49775359529801 14.741999977377858
Au 11.563762022977013 14.802800743951954 13.374360656453604
Au 17.236807437267704 13.587618775236185 12.029774712609667
Au 18.60839322208467 13.955069318544792 14.408188577059132
Au 14.18171738282601 15.43540852189518 13.629071254452159
Au 10.474849129663639 15.027912540747675 10.777219164982206
Au 11.069557538749207 10.58213075459163 11.35438033202931
Au 9.479744351428185 12.590423256490318 10.199700562193938
Au 13.235843955758625 13.045137272743647 14.759193206291265
Au 13.113475306454886 15.275552821416024 11.048178336902184
Au 14.936093979446795 13.164947030369055 10.53253224188337
Au 16.907525573612325 15.939752969703244 13.655095878250155
Au 15.721212948980671 15.736034087507903 11.220273781539861
Au 12.262149822661568 12.792465261422917 10.126742024769483
