28
Energy = -71.00089337 eV
Au 7.186788959807055 9.82150777280055 14.435180425868358
Au 6.478860193395012 11.265907878626969 12.175660786244077
Au 9.835735453744714 9.293686878996768 14.082468681346215
Au 8.672050090763717 12.016713262422071 13.844086570783366
Au 8.096355750245026 8.872215123407518 11.964585006528013
Au 7.980440850063513 13.811442291631858 11.805631606348935
Au 12.508874341067083 9.032728566333018 13.564203795098303
Au 11.189143006062142 11.400426620453391 12.801875329152631
Au 10.381847247759431 14.078009906696915 13.29406333080699
Au 6.706058417252506 9.895336122165334 9.805803504100838
Au 10.768901573885529 8.10842137756231 11.656448033102913
Au 9.216512629036156 8.696243919244344 9.38305528184027
Au 8.951660957599982 11.35958895156442 10.793478100366888
Au 12.945713564281359 13.529603796592175 12.271026780340286
Au 14.628614484897174 7.4070817203131885 8.880373168234975
Au 8.387509235592788 10.969635977838847 7.907715900372421
Au 11.841884314840774 7.824499619881651 9.089408173382632
Au 13.633735663812176 8.089232554715178 11.296884963510339
Au 11.447342524341408 10.500762600302382 10.108029259193176
Au 10.721033596389084 13.556116740373836 10.610199730737218
Au 13.795218377603113 10.891412498210506 11.846750629598407
Au 8.32986762937449 13.561196119681577 9.105560212921114
Au 14.385928596782453 10.102755141520097 9.266795275375884
Au 10.777506371690219 9.744991052370409 7.2828764739994645
Au 10.708921877026283 12.530692493006889 8.049454985021182
Au 13.293850001167426 8.736484647188828 6.883616589297894
Au 13.269648404800876 12.611026533483086 9.67716778031028
Au 13.03817602285467 11.460718190937522 7.208217504818511
