20
Energy = -49.24856556 eV
Au 11.754171377892387 10.180080002366362 14.800305691691598
Au 10.717328525313652 8.855465674673907 12.727562569630043
Au 8.008495063703386 8.944911192908151 12.134739833008839
Au 13.102109818688714 10.561343503423624 12.393416849891885
Au 9.172722557310472 11.014358997626665 13.621384286773237
Au 12.567332038576465 8.223023849969877 10.796024846594591
Au 9.879625670061333 7.919481305822689 10.351003934851136
Au 15.08542395204794 9.226358845722409 11.034143668248838
Au 9.438275185377243 13.476387717715545 12.004642935713672
Au 11.476842303881277 12.523176144650202 13.447995776627579
Au 7.603392951152425 11.59943641747265 11.450151744812386
Au 13.419137241685863 10.790934259432108 9.630028409660602
Au 11.769159712056634 12.684307636955182 10.765623408604528
Au 11.451779728048965 9.30584852204861 8.461435922344181
Au 9.109213272776756 8.092599981055292 7.701842554553152
Au 7.977543581592646 9.837660522829841 9.484287687436725
Au 8.986417091299199 12.646132801476279 9.367989954880974
Au 11.67040974568232 12.102886454218929 8.125055303059693
Au 9.34764648220991 10.791573693196462 7.282792786025011
Au 9.718740126337606 13.421458890503777 6.816833777388703
