24
Energy = -54.33803049 eV
Au 10.342968422989474 15.440259579869593 14.237861948262761
Au 1.2577687367495742 15.440259579869593 14.237861948262761
Au 15.440259579869593 1.3187793925783966 14.235544692499664
Au 15.440259579869593 10.281957767160655 14.235544692499664
Au 10.96431971679387 18.025807965733897 14.237178709578327
Au 19.068461649660133 11.810962742413892 16.64413404722654
Au 19.068461649660133 19.06955641732516 16.64413404722654
Au 11.812057510078919 11.810962742413892 16.64413404722654
Au 12.88943439216988 0.5775464160689223 14.238712607973564
Au 16.768347026329 10.482785283355637 16.642896846645378
Au 10.482655508730046 14.111560454089679 16.64193194741234
Au 0.6364174429451767 18.025807965733897 14.237178709578327
Au 16.768347026329 1.1179518763834106 16.642896846645378
Au 12.88943439216988 11.023190743670128 14.238712607973564
Au 10.482655508730046 16.76895870564937 16.64193194741234
Au 0.6364174429451767 12.854711194005153 14.237178709578327
Au 10.96431971679387 12.854711194005153 14.237178709578327
Au 1.1180816510090004 16.76895870564937 16.64193194741234
Au 17.99108476756917 0.5775464160689223 14.238712607973564
Au 14.112172133410052 1.1179518763834106 16.642896846645378
Au 11.812057510078919 19.06955641732516 16.64413404722654
Au 14.112172133410052 10.482785283355637 16.642896846645378
Au 17.99108476756917 11.023190743670128 14.238712607973564
Au 1.1180816510090004 14.111560454089679 16.64193194741234
