22
Energy = -53.3613849 eV
Au 7.564164694063893 11.46513645515128 13.517950015072008
Au 5.937642557076081 10.961099669380113 11.492332504908786
Au 8.219484708174608 9.456553388309134 11.60074511525184
Au 8.870437922464417 12.081258867247069 15.730172836120799
Au 9.92801218855446 10.731181709214948 9.529359061975471
Au 9.902371460374617 13.148089948718644 13.401781903484826
Au 9.614820110942006 7.971461680699562 9.770616128783438
Au 8.248415219686429 12.33633466397137 10.966289184102067
Au 10.915896377474244 8.997930453032886 11.917105698307783
Au 9.986250027356894 10.226847674681274 14.075247026625664
Au 10.810067291863911 13.091615997522355 10.83467142334712
Au 12.239706038704748 9.113739617207363 9.544202744033452
Au 12.296631345276484 11.898247023597389 8.935021218316832
Au 12.229868840927484 11.154708935891936 12.752125641671512
Au 14.65023611022355 12.341541457783817 13.243003839932669
Au 14.139146251884304 10.72896910108537 10.650825200381679
Au 12.424151899046949 13.979719884907794 12.831735742876745
Au 14.044236870844202 13.679783883543474 9.757163641243569
Au 16.23893552031932 10.323744019789594 12.366359179852282
Au 14.916971409927747 14.817332805202875 12.228977837474263
Au 16.283869628097044 12.535796986800964 10.895902364700667
Au 16.48042483547163 15.063981070886383 10.060858651878082
