20
Energy = -49.1864678 eV
Au 10.304610852145318 10.791261606407529 7.008154658427328
Au 13.245049141588122 10.247255796628583 6.677173908207809
Au 12.190422352137285 11.822449151810032 8.705012397989707
Au 14.025606333110588 11.716791605312753 10.768053209885236
Au 7.46746892649843 10.277419085781183 10.646252552374598
Au 9.288660080032772 9.120003253972115 8.991686358332565
Au 11.619990294763666 8.417574399585304 7.8447688859942515
Au 6.930604151666026 12.679360492999063 9.644454094163805
Au 9.546783814018818 12.179473362174448 9.220514663775878
Au 13.762023424206479 9.44851638834452 9.231156868967224
Au 11.517492231135542 8.136237838664936 10.54726548350376
Au 11.450782422185217 12.661243472747902 11.213289695397407
Au 8.683442348569447 12.738400566838592 11.754595201100274
Au 9.009379093732342 8.255083827148828 11.592680075831053
Au 13.63289621384257 9.187916979825781 11.941429929241286
Au 12.979611178362015 11.49508747832924 13.286187830099092
Au 10.474324038221912 12.169664445342327 13.790262766717952
Au 11.119927482625178 9.386969937944581 13.017802667972232
Au 7.831824729580329 12.59822566511475 14.365486700185373
Au 8.479183902039424 10.231147655489124 13.313855062295305
