26
Energy = -65.69560274 eV
Au 15.392138626065774 10.52902542189491 12.614985192105465
Au 14.315617954859292 9.613812199565453 10.315128796171916
Au 14.484027267550386 12.31251132974738 10.7042402726284
Au 12.693149453983438 9.515618631564454 12.850488224059623
Au 11.379840645485153 7.329182772973524 11.83303773850279
Au 13.161997321849526 12.162704303503512 13.180798776590658
Au 13.742266413096084 14.620607559049093 12.083933333096251
Au 10.600400560104775 11.347052266162123 13.672491241677523
Au 13.408065951899193 7.082250932824695 9.997906726383611
Au 10.213540423847293 8.608891522016705 13.958268333454628
Au 13.46461489858211 8.806835505328797 7.834379925133818
Au 12.961276472846912 11.41859657907873 8.570665169693406
Au 11.12866889060425 8.61920099070739 9.398716687084832
Au 11.09581736737662 13.994904367929836 12.538853642796445
Au 11.34071334684145 11.200949626647361 10.942979814169952
Au 9.293922752590028 9.163961218636372 11.417937505589036
Au 12.180318443657251 13.727620779115728 9.947074444632497
Au 8.05031054857934 10.286589174361835 13.706463389799408
Au 8.627081053214361 13.211266834991903 13.00072322818977
Au 11.0884227896659 10.113915293082428 7.009022394058926
Au 9.224195491471232 10.618337278749033 9.00258455044455
Au 9.362079167910228 13.450790335071778 10.258594456401406
Au 10.572882299289265 12.738110068692064 7.905774001800193
Au 7.558211642455007 11.249881475188111 10.99512520432903
Au 6.144001978659111 12.143199959690401 13.221378163753878
Au 6.741532237305495 13.841723998659871 11.040509781687458
