20
Energy = -47.06584055 eV
Au 9.592366189128777 11.669212453858014 6.814012533599042
Au 10.398979613490978 9.08199796173018 6.8298614982255454
Au 12.071780024713572 12.59540269858143 7.463586579919147
Au 12.970199867540106 9.708930998463455 7.474575778438383
Au 7.757962557307887 11.172713898044627 8.777092915365177
Au 8.603751352519257 8.484467425770827 8.801030137727256
Au 10.178393584947798 12.29253246718491 9.432964855279032
Au 11.22800264606709 8.932932115081051 9.45423369400548
Au 12.798196520987018 12.84475853243809 10.009069033416196
Au 13.695598138089562 9.975268366713609 10.01875641709413
Au 11.043228895222468 12.303432480646526 12.108966809819506
Au 9.351660118106853 8.551548650490929 11.360118361164242
Au 8.404708205351438 11.561888646723343 11.33502506321404
Au 14.432466278461805 10.383508470518482 12.539904417060953
Au 7.566893511885622 8.211412189878098 13.353843140208646
Au 13.616254090844565 12.969530477318948 12.534830314062303
Au 6.737318336204857 10.82582307221414 13.324843967508462
Au 11.93723853540545 9.464073908464798 12.122908648433915
Au 10.062269411319711 8.977376581688906 13.961973946842564
Au 9.211143604569425 11.65160008635331 13.940813370780337
