29
Energy = -73.61027584 eV
Au 10.926130229148747 7.761771992251454 13.08017396540302
Au 12.420466064613096 9.525715091548298 14.788355897335032
Au 9.653239334266233 9.625081569344612 14.74354746880031
Au 14.373980786645726 10.154397489900436 12.873868207956892
Au 8.590893119236986 9.087053214257404 12.287014890754218
Au 10.170750265657 7.774368283894163 10.393256313568351
Au 12.824164081248858 8.511888565906315 11.162380598339935
Au 10.753739609437956 12.036242154955454 15.38965820974799
Au 11.316989583381766 10.59180037997633 12.489909657899394
Au 12.188158537219403 8.33642168759097 8.484417942083011
Au 8.779507621818759 11.985343717597695 13.46614208783958
Au 13.278124655735096 12.174497342967099 14.403939590088596
Au 9.51598493473728 8.253120870680322 7.735386295426658
Au 7.927251250155691 9.353200927175772 9.599640103255588
Au 11.863093988534366 10.843568016493911 9.808412277121018
Au 11.21535308837615 9.946818432739443 6.391138968406624
Au 6.869422913758838 11.139930072263416 11.670351604731147
Au 14.645282397533805 10.515117247121871 10.19293906641709
Au 6.873073019339309 11.907400799000134 9.028100284236078
Au 8.93536739086039 11.0081893613409 7.46967537574206
Au 9.415045061443632 11.50926836095115 10.665797644913521
Au 13.61352346543853 12.716859125820285 11.751930871411995
Au 13.58896805951057 10.63121048609664 7.557561178908929
Au 11.235452564483285 13.49479521797113 13.026879061439734
Au 13.76362437110305 12.961360542803469 9.011807874228724
Au 8.966842183792751 14.145446741814816 11.556855252129276
Au 11.35599689543376 12.509846566563219 7.53800806593117
Au 9.093773019489106 13.54444296784757 8.693625758441787
Au 11.399203070347015 13.668269353925204 10.251397218231531
