27
Energy = -66.77814332 eV
Au 12.142287564186327 9.52507361589875 6.5707289050040965
Au 9.823772400950412 10.901704346076848 7.132605194010819
Au 10.350041915264205 8.19821169156504 8.30499635058723
Au 12.294101817802666 12.460036214399207 7.403171151225181
Au 13.482706622897053 8.32415843492339 8.683672728046117
Au 7.789868571385825 9.301542069106846 8.604068407707295
Au 14.401270719639577 11.1341002138164 8.559019779565022
Au 11.824651420767026 7.367131478353265 10.580039425300312
Au 8.005129371181297 12.752355065512896 7.91754952079558
Au 11.709170223146499 10.402610393794669 9.234442926967468
Au 8.97995425162956 8.024347301865863 10.758754492658467
Au 10.436954650182681 13.608507541263974 8.975377775741318
Au 6.656246944117398 9.348371281721237 11.473900916805782
Au 6.466392843141237 11.540121312897035 9.903522656579453
Au 9.223152180225568 11.163438524088946 10.03674440682593
Au 10.383975539071677 7.298477393150287 13.043111886219002
Au 12.76941247298762 12.698130538025634 10.327208021802232
Au 13.903082165744454 9.995354902007712 11.01800082874455
Au 13.085581571327479 8.243330173637318 12.905300248100714
Au 8.08712014578719 13.795633740672354 10.569295536051259
Au 10.914102618814244 9.87228153566619 11.771757999208983
Au 8.562633837449209 9.33152889681849 13.404004598786196
Au 10.426647096634808 12.99617245313971 11.855450745883696
Au 7.7641241327189805 11.831111815950168 12.479979582071184
Au 12.611613924445894 11.695480922629619 12.952603435156927
Au 11.264225452217877 9.58255044461019 14.508557176102709
Au 9.789800342796548 11.826203515109537 14.294668538001469
