26
Energy = -65.07264193 eV
Au 9.70352128163326 7.967081790394228 8.047499607529874
Au 7.159041255967436 8.691549716072005 9.042863143205512
Au 11.575900025140207 7.127372737721595 9.791809194081036
Au 9.007759715642383 7.781607835023986 10.825369142879106
Au 8.155777633378436 9.667149983507226 6.5800323873272655
Au 12.48140798217972 8.753904225753278 7.80221394040594
Au 8.791238708606762 8.727886234413878 13.396800348581584
Au 7.632299602500588 10.216072334438172 11.324708129156798
Au 10.70249000706476 10.03620924224207 9.872763515934587
Au 11.304776346638581 8.444169044278011 12.25850618479619
Au 13.412730134399814 9.217167710028674 10.470824503182829
Au 8.310334999124386 11.292706450397766 8.831411312002425
Au 10.605462590651857 10.746179107639378 7.111267771185989
Au 10.993688454068383 10.046481154226353 14.60564345460756
Au 13.418138771190673 9.951269598127015 13.179706627784292
Au 11.231512664698839 11.514879276034627 12.056473795448497
Au 13.038090820608128 11.33415011258046 8.550218163426736
Au 8.779275915215297 11.482509214980839 13.568638467193733
Au 8.813526807432343 12.740615278394936 11.11078595201573
Au 10.66738203216101 12.808139189109315 8.98115474627774
Au 12.59736679366477 12.29257512871755 14.401989770328349
Au 13.92311285213704 11.854472370254118 11.21594762247369
Au 10.295419347639845 13.79598345564699 13.386633286229838
Au 13.098665858765518 13.920982633121247 9.657439424751509
Au 10.716793254775597 14.810852808390404 10.868430463664152
Au 12.956283723082926 14.134938039707285 12.429075476992098
