28
Energy = -72.05509777 eV
Au 12.447052162335675 14.982095387806229 13.480910506548343
Au 13.779805879902637 12.805999784232862 14.484259564556089
Au 14.764770936592416 14.045421083498386 12.181265045291358
Au 10.015971162021183 14.824795547579134 12.370153233794255
Au 11.064966228160996 12.588135142782246 13.926413334157075
Au 12.31936479132922 14.152280571335625 10.812883376216972
Au 7.568391874013385 14.45063786515361 11.261686286741094
Au 12.695458639830836 10.329975187823203 14.339340298120241
Au 8.824614257904539 12.254583272740353 12.342444800956443
Au 14.1754058514154 11.359535580228169 12.103755343735013
Au 14.561564833298792 12.927696454316035 9.698916905571215
Au 9.791705071592448 13.516359182344802 9.845231403797525
Au 10.153119687008365 10.011021806816691 13.230198233012434
Au 11.256856586664139 11.312850748994121 11.022983778178688
Au 7.325825461964009 12.086521283839403 9.863262812801633
Au 11.56958116021672 7.839387057137712 14.043252160896198
Au 9.620366006646757 11.12620129098071 8.441303070912019
Au 12.846563282855884 8.975141753966037 11.866495677071583
Au 12.325260719177694 7.920037867238527 9.403365239560722
Au 13.675485427490516 10.314670035292224 9.553544233351063
Au 12.103414867588473 12.44838465062087 8.576534278066259
Au 8.407843441742985 9.785228054094686 11.138429824563625
Au 7.27887165821091 9.672502784508442 8.627133368969192
Au 10.284047141160412 7.731670795057375 11.570044442921782
Au 11.915022892312535 9.956898335826274 7.449984511896176
Au 9.794407189942833 8.400721262684895 8.08969146763686
Au 8.061563674362123 7.325698576865102 9.963244048360991
Au 10.46590012852455 5.99842617669232 9.399300873836454
