23
Energy = -56.93895938 eV
Au 8.595652226307134 10.493799489737256 13.88463313041063
Au 11.127721941739184 8.389062590865018 10.695687359473512
Au 11.353754471512934 10.902824542781268 14.363077959777572
Au 8.883546038788602 13.005826475019827 12.713005069355141
Au 9.503484834186926 12.618991688067881 15.452814952990074
Au 8.823806966658468 9.694968034985614 11.16152422588639
Au 10.744552321307346 14.02723746804806 10.965704864889666
Au 10.645421777477338 13.106086332654824 8.31368724855558
Au 14.911513198015088 12.830042311927949 10.568206917989253
Au 12.879271605259023 9.238604047483149 12.847827722119321
Au 10.226589473599176 8.394627119287234 13.358291869259912
Au 13.576208046633724 11.91942128919987 12.869987204474443
Au 12.921785636203982 14.387702447105136 9.259496146602686
Au 11.185597564155112 11.240249994746687 11.5236904542527
Au 8.700309636001537 12.273803983698807 10.047104929735397
Au 13.043913390269019 11.718636975451588 8.713066149246794
Au 14.373557123809132 10.212942740165488 10.662607411600959
Au 13.328063007875988 14.547624323138127 12.023029453198166
Au 10.440214147540468 10.414001948950911 8.888219062642492
Au 11.400724665384091 13.602678492205479 13.655191053125916
Au 6.772327626956139 11.297108100165632 11.931425768863598
Au 12.864842463699075 9.048500845837312 8.57654778324802
Au 13.705030993884678 7.541727317137133 10.860792415432506
