21
Energy = -51.52818828 eV
Au 13.831148803622703 12.821841422074197 9.740404576978813
Au 13.29962562158701 10.615580507584832 8.287210328324274
Au 13.394856278472924 8.091401959535096 9.477037689332501
Au 11.400033258801718 12.674433405138466 8.264349261491612
Au 13.486647514945677 12.669331143551895 12.435480265052883
Au 13.712441581754673 10.305662135905477 11.07758353622385
Au 12.496052652625021 8.35943894761362 6.933867184743498
Au 11.071097061209148 10.671952753103378 6.464030856463733
Au 11.477187336619172 13.755301729070167 10.742634593260629
Au 11.606857816124975 8.498542780139342 11.457075416715778
Au 11.116490568541224 13.420479003247378 13.449419788341455
Au 10.71767344247465 9.350066008410266 8.846003857763382
Au 12.189999059562098 10.454322457461604 13.358176156250106
Au 10.301150842218131 13.538188255754147 16.06403292620719
Au 8.934978688931482 9.026030841967923 10.828312051314239
Au 8.914986971075924 13.732715397143958 11.495446693065569
Au 9.482205862720807 11.606121265594528 9.87405705770514
Au 8.402641975815728 13.3429749662353 14.120411843805842
Au 9.815052928830271 8.922390047479993 13.447704165574939
Au 10.04829352304341 11.125627930370657 14.92994988927815
Au 8.428828275406882 11.161015238501282 12.430778579498641
