22
Energy = -52.77110881 eV
Au 14.40280131626191 12.847102932737165 13.422573802504184
Au 15.918178246554335 13.65323132580012 11.342014856874437
Au 13.927179898059022 15.37864938917541 12.33706615943589
Au 12.627104123886829 10.90606209378624 12.591724160163203
Au 12.72863846373047 11.813599564011742 15.187833111022803
Au 13.34116497991332 13.208949731994489 10.741630867018964
Au 10.596082566378703 10.7340888009445 16.499805045089886
Au 12.16583408390063 14.647113080852236 14.197534095706297
Au 9.798467457446757 10.892427842308848 11.476465643105598
Au 10.63609294521606 13.41562863165588 16.169103698962157
Au 10.085500359824161 11.728673323355949 13.988646652677986
Au 10.881326036828689 13.526118092560047 11.980489234799245
Au 11.625231471061815 8.652726063650256 11.443507163860904
Au 9.35891749211804 14.491310144455507 14.078871289459736
Au 12.95922757895312 10.629256086957103 9.874156099041906
Au 11.550162032408224 8.529827312920451 8.76165020107149
Au 11.019622589096004 12.638703321557418 9.435853342057031
Au 9.07887287031535 8.452990492689784 10.392799267840305
Au 8.987223545073444 7.971909355284787 7.753496878150833
Au 11.646746639602966 11.011581295809357 7.3379614913315026
Au 9.300856924265545 10.618738758848803 8.719392281639157
Au 11.063993217455975 8.66649573608165 6.1088195532618315
