22
Energy = -53.68552464 eV
Au 16.447799093068983 10.734902504782196 8.200756741838882
Au 13.699263880944029 10.667602528015449 8.501259270041508
Au 10.07789455307488 14.600260697168407 8.63246224492318
Au 15.54948699348324 10.80583343318153 10.75780224966488
Au 11.891788036815331 12.629574318462627 8.485358423978381
Au 11.148315791814923 10.012400892727443 9.20467224182037
Au 9.198814542813183 12.081750383134786 9.144503994140956
Au 15.244416376946733 8.485052720650627 9.155984709825285
Au 12.739470160786517 7.763991429010815 9.447117746662165
Au 8.803937452096877 9.781921647031163 10.528143663189297
Au 13.319230907795946 12.305739779174765 11.01461032938962
Au 13.318634086394486 9.52837534339711 11.561857172716117
Au 10.92846432889059 8.207057382655039 11.45902187664505
Au 10.942110378919766 13.589669077113822 11.01541216753407
Au 11.559594607303122 11.281219371452814 12.77948299035729
Au 6.724322829381494 9.521126422269605 12.334480828650774
Au 7.649929861956643 12.11477613369285 11.37706724994836
Au 9.655819560480026 13.119536042771912 13.293735093061839
Au 9.346245225054894 9.415812640827927 13.222871112544858
Au 10.18848584632261 11.04797526374856 15.198193750062877
Au 7.049502366719444 13.925199906117403 13.325723478483159
Au 7.631823227101355 11.382442544481506 14.133324181565447
