28
Energy = -70.952894 eV
Au 9.932620133295773 14.66183974475221 10.348842927552372
Au 11.46270024289211 15.51958152375039 8.189730371223872
Au 8.310287146716284 12.406861598398935 9.741798314660619
Au 10.502406362207463 12.969041265232294 8.182984261052038
Au 11.109347666079536 14.7791017664356 12.817577101907982
Au 9.583342153467939 12.618426970634088 12.155014634298698
Au 9.780988328948771 10.319598512751613 8.673013682360642
Au 12.740082839408405 15.11793885965535 10.556891623318974
Au 11.7551090357213 10.871660267757385 11.793067881135494
Au 12.523995252619446 14.655633396467481 15.157060157361773
Au 9.041697200588056 10.09256648214939 11.340957422986367
Au 10.704792413651724 12.511015450655936 14.552418457765995
Au 13.275407530267076 13.40436572345175 8.25580528893696
Au 13.851810593600463 14.112282271416866 12.855488738220627
Au 9.594685137797896 7.789939500881456 9.992207502992994
Au 12.227166639525104 10.95950587182165 7.448908447492742
Au 11.971378321929738 12.726092024895506 16.992286777305132
Au 14.900498500559836 13.421250998180533 10.421346900207721
Au 13.911888979138036 11.002932491924332 9.625405665523287
Au 12.018635092944285 9.001417936262758 9.443617544109692
Au 8.84080934954088 7.654207476126202 12.726204566634964
Au 11.61278870786605 10.167026024359126 16.099575266303898
Au 11.477716421287761 7.884354586282865 12.287511826569316
Au 14.464145032433702 11.42356402820771 12.349672373706124
Au 13.527625158400149 11.98214483979809 14.786716982734992
Au 10.033193974239959 9.878103620982946 13.900652121674936
Au 13.09752292165314 9.336497541486109 13.994850990440378
Au 13.87070823708485 8.85639859914715 11.433741545386196
