21
Energy = -51.39682389 eV
Au 12.27748061569391 9.892751085308243 7.594263017693073
Au 13.81335798898719 7.993937228449473 8.889872560686872
Au 11.269004207414175 12.333322010235188 8.544553948142692
Au 13.398141124239265 10.871914725429846 9.90354680810944
Au 10.346895494557637 7.936435515176572 8.184942352596746
Au 12.713959608612015 8.581610133772314 11.298260434563135
Au 12.490168678642926 13.191642414063143 10.910603432745077
Au 9.529891483094683 10.446771109449665 7.418828354044178
Au 11.793899424382968 6.382090470932449 9.896155250746812
Au 10.541606229840255 10.024310484743925 10.100660208887307
Au 9.237121359651274 7.073574559775093 10.529035195665209
Au 10.299234314883542 8.629981145861459 12.602290126599717
Au 10.01945748287061 14.225738411355449 10.14988912079393
Au 7.899381338132349 9.296951971878478 9.346022334029168
Au 11.813366836550877 10.962315204478426 12.42525697308819
Au 10.478583615216397 13.349997990010236 12.76871598290858
Au 8.46931920743475 12.127369518804867 9.26523475610959
Au 7.5988448105339295 8.652685168723965 12.067069477847319
Au 7.880992561394011 13.429070122989383 11.716164228146416
Au 8.959441440091219 11.03604362531761 12.795914533386316
Au 6.706375384861794 11.086219784860498 11.14185547548594
