21
Energy = -51.84148196 eV
Au 11.832524610572701 9.416007226972125 14.038891850907834
Au 9.710511527833662 7.934295615607136 13.459196410763496
Au 9.56176883458595 10.921570621637837 13.525856333982219
Au 7.632932673514158 9.325851254641801 12.339503830260485
Au 11.940233523708063 8.053937423947028 11.61262809690207
Au 13.65349294718389 10.15074309393415 12.165226722532603
Au 10.172347542376317 13.108949569956271 11.888730453042673
Au 7.7051128726902665 11.934456113408018 11.714053011399768
Au 12.070776672278974 12.101235179925588 13.621323036102527
Au 8.436832177191755 9.876781140628259 9.75280987759392
Au 8.818997457952557 7.362559693325483 10.920483927925499
Au 8.92818959672202 12.578996895250055 9.391302086122597
Au 10.62387290250796 8.221136599440964 9.01274731505406
Au 11.196933447261708 14.271984259458558 9.678116108182998
Au 11.006650735162555 5.879458803935064 10.30747947546017
Au 10.426584879167914 10.655261039857107 8.003661671520861
Au 12.757111508721616 12.416307925496902 10.99818228422988
Au 12.486490076382513 14.826073378035574 7.326447170393994
Au 10.298973715386508 13.231259686067041 7.119897123686066
Au 12.681605889454639 9.934070887077503 9.60450999547505
Au 12.725004637014253 12.254954972004933 8.225968497552868
