27
Energy = -68.7321298 eV
Au 8.440242852028277 7.191737387465542 10.10768578355846
Au 6.816350854480029 9.082929407650278 8.900542486842198
Au 6.902780837487522 8.964092563243629 11.671379910077954
Au 9.59423955114441 8.752024061698773 12.10582096421561
Au 8.055650386551827 10.95721789551553 13.128114900212246
Au 7.980847858795168 11.073212885265406 7.50621571239707
Au 11.118412399850587 7.404716629841558 10.038042503469642
Au 9.546246175593602 8.792841289118007 8.145052712986184
Au 9.517590045955039 12.832032510581808 14.506223284086449
Au 7.740425945069391 11.262324813324714 10.3269095154253
Au 10.869162704112524 10.646582293821591 13.645126469837571
Au 12.316627608755539 8.905547346437693 12.25220769261706
Au 11.020483034259124 10.943436247535857 10.796539968107545
Au 13.814207704255777 7.857832185801239 10.27098091110689
Au 12.211134564442425 9.43535043381336 8.524772734612712
Au 10.627408894626324 11.06516277741153 6.91617638841767
Au 9.722729565309486 12.689761674359167 8.972210993348487
Au 9.251928377242228 13.058202943184305 11.714388252632519
Au 10.91314491491344 14.787968982232929 13.074598232413585
Au 15.019044146550595 9.270891517902534 12.430821762183758
Au 12.358922599557975 12.785327147885818 14.388885377121314
Au 13.97493096368523 10.662079607357398 10.297859988780935
Au 12.509396205444475 12.215712806383959 8.511331825726698
Au 11.663155151882776 13.900182838933514 10.56759689463228
Au 13.56684370276089 14.49029605270478 12.537029085944667
Au 14.360797519113754 13.374931392103555 10.193765741372298
Au 14.357561439588611 11.875546636980078 12.775139789828481
