26
Energy = -65.83983396 eV
Au 11.14382682314731 13.251767774167174 9.167120138593898
Au 9.698179032519507 14.36234064952418 11.351253154256423
Au 14.203309784608468 11.43762238945302 12.508905054314456
Au 12.564277698358733 13.77209614491586 11.481723277869506
Au 13.542357599315196 11.981844708573728 9.699415276616927
Au 9.829023928401341 12.822424396277933 6.855597659619478
Au 15.931494917856591 10.881483765097409 10.439280941615513
Au 8.340076795883043 13.201509377734853 9.201992543457179
Au 13.055110746096995 13.413290382077818 14.172165558823073
Au 11.340218364144276 15.430217412216022 13.273041573166887
Au 10.375659934845903 12.822525678564494 13.609928585688776
Au 14.10783099438784 9.675741349882088 8.344781360418368
Au 11.947992846801457 11.103156571394175 7.420799385221781
Au 11.202203376371024 11.279294278950378 11.333567352913
Au 9.418030507424353 10.615278822611756 8.453689855643313
Au 13.97280879552474 9.036786209902438 10.998003482691047
Au 11.611234684454773 9.170906970116555 9.470117853144766
Au 8.336361964211504 12.073501031479628 11.969528669236139
Au 7.052200757423332 10.838735231744844 9.921922652011137
Au 9.191826044924836 9.257134779400063 10.83824940982746
Au 12.165696524318859 10.83944350730395 14.331756780321795
Au 13.910110792396628 8.813110291076857 13.724256085330776
Au 11.539037743464721 8.528817763564199 12.196798459386693
Au 7.0288423169306435 9.714258880571712 12.496745921981445
Au 9.523114077558787 10.053355682128451 13.63020491547376
Au 11.29971583739336 8.34696978976189 14.907848649967557
