20
Energy = -48.72950301 eV
Au 12.500344186651843 9.233537143260953 8.093653788041783
Au 12.520053751826302 11.578004755017036 6.883657788828844
Au 10.090670513330297 10.742647931811822 7.936304368803186
Au 11.094069151832839 13.393469088222364 8.510410448574993
Au 8.012153276758035 9.92691313423393 9.650300419906456
Au 10.184981991575995 8.274964174551739 9.357090024182257
Au 8.586774523766003 12.592640378045363 9.371172321320474
Au 13.075116972234627 11.796783105711937 9.613902562162455
Au 12.5807791795988 7.010144535467916 9.704597571253432
Au 13.92358826162517 9.358927043180254 10.52663825894632
Au 11.575250751554957 13.452781645646398 11.213354340014599
Au 10.332107999287947 10.915670076017395 10.895531918751356
Au 11.707225193495418 8.344881963315284 11.897919827505051
Au 12.701963388403177 11.02315279795986 12.316532657781934
Au 7.876319921684108 11.015655827890603 12.26750700398649
Au 8.863091544138173 13.590851051434374 11.873885942551746
Au 8.905854195796055 8.435280665214028 11.85136365907605
Au 10.690809192239177 12.503468499791682 13.628094975919158
Au 10.451672405263126 9.773944854722703 13.742948744894651
Au 8.58928207156746 11.298389801133618 14.927241850128356
