26
Energy = -64.91141382 eV
Au 14.804872801914845 11.329220525290504 9.569281239510087
Au 12.931615843584222 9.37458894775028 9.58517872527294
Au 13.936473822779973 10.40011264667984 12.001418003911928
Au 15.116549309468569 12.917129127193165 11.768865991317387
Au 12.423969880130642 11.659801837746176 8.052507062317247
Au 12.142708474315286 5.800886421350066 11.097351183806273
Au 10.285308806721194 10.084294566180292 8.75911914606406
Au 14.11642801147111 12.240583187406546 14.236671774794
Au 13.448071192038018 13.742004935224509 9.78683691321011
Au 10.871788455816818 7.5860952864986855 9.575253863812794
Au 11.936855111048699 10.650306854833007 13.77311977011577
Au 12.282735424955204 13.286970204650746 12.510432060094944
Au 12.15800986352504 8.340468676467546 12.147742915907514
Au 11.345223101351499 14.131842405509378 8.050403254281196
Au 9.765968021292947 6.760504238653265 12.05643724008392
Au 10.814806171570414 12.34612850162526 10.251117932634433
Au 9.71209985332881 9.270157180037673 13.254541406860453
Au 8.450252728042374 8.723520759819596 10.199476434178944
Au 9.916084975422844 16.32357619916977 8.79086390675332
Au 11.147005219917961 15.049543991678638 10.837267897302459
Au 8.14391140082446 11.478109185115697 10.190905601159733
Au 8.732862657912497 14.019563289430753 9.58160612520838
Au 7.372635187180498 7.861291440127593 12.569055420338607
Au 9.766097243923545 12.094350774268172 12.785862638163316
Au 6.006282472748946 9.719964529963972 10.933157700476455
Au 7.467220304519081 10.766452897304873 12.924174931593843
