20
Energy = -46.34869891 eV
Au 11.665148361399536 7.821869390358799 13.592413178448416
Au 8.878004576196343 8.401312094713667 13.63197916271079
Au 12.175146068305352 10.223166437502218 14.67023038583702
Au 9.38880849141882 10.80507522758817 14.707913081327534
Au 13.132647929333428 8.47068854705126 11.396206493971775
Au 10.394689635447794 8.856275771653117 11.356369753816239
Au 7.732779266267178 9.598802676536973 11.477044238448963
Au 10.989103162061337 11.643025033711218 12.606233440358285
Au 13.648808523952564 10.89027265305715 12.484565722576985
Au 8.248745553931187 12.022456253721556 12.560541573891472
Au 12.168420890558084 10.760763808823588 6.851827592415841
Au 9.381586878046686 11.340891578518882 6.892567805634684
Au 12.682870926816024 13.161526155630895 7.928453951179875
Au 9.8942582387575 13.74238202395633 7.969209817597004
Au 13.312341979737855 9.539595958329832 8.994971981269183
Au 10.56859811609021 9.910219648619945 8.94847321017479
Au 7.904534111034148 10.656718211687089 9.07103256301503
Au 11.162461263366701 12.694566860020883 10.19886166161654
Au 13.82634045347677 11.95862539619792 10.083719653604154
Au 8.42163301498186 13.07869371349919 10.154312173284223
