21
Energy = -51.61660858 eV
Au 12.420104172222267 10.537205113457992 6.817474266984935
Au 11.914097808255883 9.533683193805606 13.82253429761195
Au 10.093692650717914 9.600705113321004 8.122905050241528
Au 10.556892164770394 7.1401297115792035 9.173679920808478
Au 10.900972331413477 10.989937305783092 10.69718551811466
Au 13.476483517605772 10.142500018164052 11.601864564438898
Au 12.730314275897237 12.945201432490588 11.697659612040141
Au 11.406020871263408 8.144395831335455 11.55431499269042
Au 13.606790611746394 11.689619291087064 13.936289940113316
Au 9.267409626253576 8.935986198094513 13.261048242766213
Au 12.71050543276148 8.99167582304972 9.197667698607404
Au 10.526103274212742 12.249440056116917 7.6463768963966
Au 10.77829932330121 12.138575035151622 13.5994519478843
Au 8.959384922103435 14.10632951777524 8.947273789044283
Au 8.455578170481802 11.316639113527202 12.192440900129867
Au 8.402749791162105 11.457632177028385 9.422268821506352
Au 13.27143635425898 11.689586709132234 9.242014020732451
Au 8.861727181012803 8.947751841079757 10.566198783940363
Au 9.867037923060547 13.563068481292634 11.467983792845274
Au 9.944572229443505 10.369555326600555 15.51520526902191
Au 11.732288323460892 14.019060201735423 9.427794171571904
