23
Energy = -56.90231734 eV
Au 13.525472009734264 8.738246915018497 11.372253394676404
Au 9.989634275289683 9.952130308110915 7.777924031342307
Au 12.380627007110492 13.319444357434339 11.02022915792546
Au 12.71984588519736 13.524953521802372 14.238883840642533
Au 11.790980206505699 16.009744058510307 14.017351444781834
Au 13.608237754710538 11.365779741841308 12.65824290575969
Au 13.745838816772707 11.227369934640087 9.9024985367007
Au 13.200539242316808 11.077769951800784 15.326189263129173
Au 10.225377947749804 13.976757099717778 12.988208725665118
Au 12.121378102035928 9.065608396596822 13.748703339557235
Au 9.025184178796124 9.270992541547063 10.282871437358397
Au 9.233052055296934 9.38066265202397 13.061663733435175
Au 11.359483241432436 15.854673102216394 11.31338734491956
Au 8.480751060242447 11.796115502771679 9.159174963570996
Au 14.584716013019863 8.859361201773993 8.842185236260185
Au 10.725636982437534 11.501408651159355 14.02500559432627
Au 12.709414978530015 10.276168463742868 7.464160471975343
Au 9.757879076485846 14.032577367218021 10.11323677951977
Au 11.262595718564086 12.260385050118156 8.666081168693507
Au 10.916659880038976 7.691843985810791 11.676832309328685
Au 11.706126266084526 8.302708236161886 9.178860923672667
Au 11.310746718870748 10.60647122043074 11.233297798995183
Au 8.897350327930726 11.871701372066887 11.868369662136189
