22
Energy = -54.08738835 eV
Au 13.072751286554354 7.66594755928099 12.447386171191782
Au 10.352687812549243 7.674103981538484 13.096691733046466
Au 12.27579745010633 6.814886533091229 14.856662430924704
Au 13.963129943133604 8.698535054488145 10.160457950818353
Au 9.820863087116514 10.285190035655715 12.692246607548821
Au 12.017419832524304 9.574177464019757 14.347645303064358
Au 11.1729258486798 8.901620120164878 10.73337430010863
Au 13.649528700776672 10.498843966937795 12.346503375508568
Au 9.772973414949913 11.189620108338714 10.025479234656158
Au 12.387397013310897 10.68408046665097 9.100191785982167
Au 15.069365099710282 11.248434361528023 10.099692133085114
Au 9.29782446799562 12.842266236817387 12.243597529804775
Au 11.034106456094557 12.812238438227157 8.102206527744196
Au 11.826085653908688 12.17931495258101 13.579040715222288
Au 13.78221081510948 13.133256977358512 11.628401834993069
Au 9.13860125500829 13.892162786479602 9.718967361049485
Au 11.84954025219869 14.556948665873573 10.15872142449313
Au 13.67505991309617 13.12331181474337 8.709599479066247
Au 12.320481187280379 14.957679649288837 12.866180493355152
Au 10.134519415237124 14.174761634667304 14.393438239154321
Au 9.76648962524192 15.595470265789363 11.728183603633813
Au 10.600115245857978 16.840412663845534 13.957892527810666
