29
Energy = -74.17608242 eV
Au 14.199937984743297 8.495049163252126 10.46291037863404
Au 15.671091131293526 10.67148316693172 10.792236053370504
Au 13.052724697434128 10.836010884637332 12.180817379113208
Au 12.43569033577705 6.5421618451219405 9.90459354421908
Au 11.564129399800763 12.84017495811772 14.255398712189397
Au 13.918066769229252 10.745103001414812 8.662225429337559
Au 14.060169963983183 12.84920353331679 10.421310107945361
Au 13.421020474151579 8.198859385603498 7.806683742551955
Au 13.926259827315445 13.377124222650313 13.110206843654877
Au 11.735282710840302 8.46291821669465 11.785059126290276
Au 11.760971674838418 12.52387039027715 8.91325333587369
Au 10.71683202416045 10.19855538090651 13.595726714418946
Au 10.75840920755419 7.512134205224679 7.959744212645613
Au 9.809029656648391 6.908626831315617 10.629946924373108
Au 8.577682629924395 9.009355505446711 11.92097663039434
Au 11.678959843534733 13.67970555853654 11.550445641175047
Au 8.29079281228604 9.308053704179938 14.595081067228733
Au 11.613169186716725 10.258701548724709 7.366434667249277
Au 10.489686413800795 10.917788314254668 10.837934860693455
Au 9.276725197594066 9.263578370897045 6.467296298770056
Au 9.459984948517143 13.647136447955527 10.077805169078168
Au 9.201957171597565 11.91227233059628 15.14928672605869
Au 9.219154207712604 11.645180227631153 7.971678632403658
Au 7.6295529658906425 11.190971834447538 10.327861007932743
Au 9.260200717874874 13.551109315143872 12.874850379794086
Au 8.843969605527205 9.060351909525044 9.180789758815232
Au 7.373920815121349 11.405237993265242 13.076174075443687
Au 6.9079069348531315 13.576963805758458 11.462183027958023
Au 7.178408275633293 13.444005532527255 8.69277713674293
