21
Energy = -51.56218676 eV
Au 15.002176431821997 11.533762232782093 8.775222958372602
Au 10.926675094516062 9.706483602596139 7.639280123025629
Au 13.33235638621069 9.39829446845135 8.980484261826888
Au 12.47162876623302 11.92671591553278 7.949937371757767
Au 11.21502335124069 8.023813309924348 9.9815648866552
Au 13.207417503942676 8.894134343233585 11.675402921975376
Au 9.206544568588326 7.614525291500906 8.1546221564835
Au 9.85691673576608 12.218202051813966 8.562322093820933
Au 13.45890030160464 11.568672255639513 10.985112853426571
Au 8.191245152668142 10.134535913915478 7.824042550610863
Au 12.3178290813994 12.804006125974636 15.312554477654952
Au 10.580678242426645 9.412208367527858 12.327195898344662
Au 8.652618364397163 9.070566477701393 10.425683816970027
Au 11.82992924593687 13.604156740181756 9.981153704336378
Au 9.704396612803698 12.551350485814556 11.35260577762702
Au 7.515822457337272 11.61139481640491 10.018947364215432
Au 11.992673315596459 13.314860537004558 12.662972408108349
Au 12.679960044249654 10.726908302023103 13.576130302616098
Au 8.115373006124734 10.62185413268051 12.587340259742092
Au 10.112543594340234 11.77210253036183 14.154826590316022
Au 7.593193840133203 11.64941546894048 14.976101999521322
