23
Energy = -56.57546932 eV
Au 14.754715311899927 8.293761228917003 12.002615217252528
Au 8.842934192582664 12.027452528153264 12.078493923604608
Au 11.870936214770202 10.141163248668892 8.713493564219613
Au 10.451014235481376 9.933976527324312 13.152781400875337
Au 9.7040339377594 9.759990288784671 10.492974796308818
Au 11.923751765307955 12.399813080579879 7.175538378258334
Au 13.401708406363028 9.77653597312753 13.867887229837217
Au 14.604083131676742 10.889125012748913 11.352967292178166
Au 11.832859710686867 14.15744039324542 9.62455926212619
Au 12.26909517977703 8.995079397744163 11.281571243594152
Au 15.014126574105235 12.220660957170631 13.69373246717215
Au 10.039883889272378 12.477777042260332 14.453740879605833
Au 11.413895348757888 10.334752654852055 15.64057992301728
Au 9.560028878886959 11.710327701852789 8.567088194736662
Au 11.46220594768376 12.90853597279066 16.73562942043765
Au 10.863229874733541 14.138990328935666 12.328616727883727
Au 9.107178569929271 13.938719026808855 10.18340169684038
Au 11.541423432134485 11.730648303261422 11.084250782752356
Au 13.60899951432052 13.468909837257465 11.704406055728628
Au 13.809869906208801 11.600642207949633 16.006153707764575
Au 13.797492387890742 12.191774475300017 9.156671892896421
Au 9.973603865401806 14.294836296937461 7.580357342692531
Au 12.645081538208617 13.61743573207818 14.319936196834506
