23
Energy = -56.37708969 eV
Au 12.952936340434743 8.352246831127957 6.880154785211426
Au 10.91924362626878 10.10790169976245 6.466498620221113
Au 12.837256373994629 10.72257246332432 8.512167068448157
Au 10.525118644175826 9.215432051143242 9.142838472860713
Au 11.25399002861831 6.572457114015228 8.267265525867643
Au 13.146188693457713 8.07333523554027 9.614163281278048
Au 8.96882373504405 8.045304566393735 7.1866742336000105
Au 12.485034836776896 10.010714848695955 11.409037090564658
Au 12.334872932842663 12.580972552201073 10.435544745221575
Au 10.421129849309862 12.17169754433292 8.490390496187127
Au 11.106494355648447 7.52783531953798 11.449673210044379
Au 10.610428435581428 9.385555546601381 13.412002407463389
Au 8.988414773602221 6.853494130227779 9.766231922812121
Au 11.230856765092039 12.122079061464806 12.972286265082008
Au 8.434182732932703 8.360292867038714 11.994049837229392
Au 8.36665232671847 10.780375070694658 7.283874116879232
Au 9.842101194630539 13.679566028788827 10.928435928634395
Au 9.647752045640795 10.845529780157719 11.110736478004231
Au 8.55143936077673 11.143497835291713 13.74682398032264
Au 7.474885318747296 13.238897996496044 12.192000763622612
Au 7.570202869671143 9.258900555230728 9.437561204305284
Au 7.792983522142038 12.247210087754157 9.502739465731528
Au 6.8068740549807645 10.61739878174574 11.668507047502194
