25
Energy = -62.75872994 eV
Au 11.219604491199837 12.905216209355306 15.877808481848364
Au 9.476529074999947 11.031542688477845 14.919581847911822
Au 13.838798885844996 12.371979470955702 16.126458682966238
Au 15.512956011878781 12.648168727363066 13.944917416350865
Au 12.116312647862351 10.251206385821556 15.42108118977885
Au 14.822698922361349 10.064607025625955 15.048874001359332
Au 10.228956642363924 13.159184679068558 13.347262712077205
Au 10.459736778422675 8.800098505653994 13.723326978115892
Au 12.94507976992701 13.676933329025113 13.791118915106978
Au 14.433448169989623 12.981943921118908 11.442370221614794
Au 13.157505716838813 8.833937137816045 13.261074354613392
Au 15.264001099892356 10.488271029152065 12.346850885576877
Au 8.637580702372725 12.863975212263297 8.141411302402847
Au 7.383324094908216 11.322943264562518 10.062115397109203
Au 10.571869953097305 14.72232360020302 8.9457274413156
Au 12.359272191474478 14.81020105482578 6.852664163730184
Au 10.026559935928443 10.815029384371625 9.435932028491887
Au 11.377820990753346 12.376199038970656 7.673986322119105
Au 9.196563272081683 13.28114031398346 10.843272289603672
Au 9.077093092198904 10.757738874593025 12.175472383463266
Au 11.840083623396403 13.966697105562593 11.303732735298953
Au 13.476848292607716 13.865129155622748 9.082311716127847
Au 11.340201469126244 9.270365574579229 11.209710547824074
Au 12.740967353384466 11.301525993701631 9.900781260156032
Au 13.982109580345675 8.91956508058417 10.608079488294269
