27
Energy = -68.76539503 eV
Au 7.414745148579224 12.256218386518944 14.595154197443655
Au 9.49394240372229 13.105226900045368 12.971916113263765
Au 11.46792139078642 13.901036403625303 11.258784270527318
Au 13.908598238460977 14.439133758286872 12.321903780469494
Au 9.956706411733718 11.591635831888498 15.270473550035346
Au 12.179548278151515 12.68449453374604 13.778569175161309
Au 12.429912367116934 10.70280737476831 15.798282946124216
Au 6.995384809032735 12.231093940890442 11.842567831370879
Au 13.6894945168033 13.979707410681614 9.560857415243694
Au 9.032495900725104 13.0766267646049 10.188193677733132
Au 13.795454712521764 11.889973015928794 11.4254621976293
Au 8.534770165520845 10.24340632838689 13.104301986301891
Au 11.004216200369392 11.100111146267716 11.36423091817526
Au 13.188457723116697 10.009539841529683 13.308382454537492
Au 11.19044720341527 13.240694531931206 8.55109809566201
Au 10.709212240700772 9.053480095050046 14.239716151782252
Au 13.376491571368659 13.18526972554786 6.898721800942376
Au 8.291264276980995 10.397681811076957 10.244763004232153
Au 13.744592511471678 11.221838347179135 8.735344318217283
Au 9.059025603889884 11.590356123794493 7.818997555202782
Au 9.911630424321714 8.512588954416913 11.523350003755311
Au 13.232860985757398 9.317315227540968 10.628150549816059
Au 12.242779984323414 7.469266421697482 12.544306572352863
Au 10.347716198049358 9.322425016330836 8.807613770252646
Au 11.601432559772851 10.986782841844013 6.894247839551009
Au 11.694620175369842 7.156211753996457 9.861480830959742
Au 12.88228143553648 8.738945110834186 7.878354840165774
