20
Energy = -46.95755214 eV
Au 12.200049940267917 13.767890882629782 9.31435814584129
Au 11.495689372208837 10.931605286867324 9.026098031847479
Au 14.02370398003495 10.08887579895158 9.656356470121933
Au 14.629340126135693 12.859560008609014 9.984912499906692
Au 10.278561158036728 14.12933135905664 11.141644369009793
Au 9.481132913120959 11.229319480172059 10.871903825181752
Au 16.38435597087765 9.105347170392847 10.359522703902956
Au 16.975874694147755 11.729923221636152 10.696911462100763
Au 11.888188085099287 9.988821567452854 11.581800411004462
Au 12.884020006633666 13.618578248521958 12.006917347938055
Au 7.771560257548928 13.87680574393768 12.01606944586595
Au 14.594089567587975 9.654302338310686 12.300405856518127
Au 6.89788154742695 11.315890362483058 11.624583716583855
Au 15.289499631671418 12.403898568505909 12.726738054293126
Au 13.335665194275956 12.848672646819123 14.533996452501562
Au 12.68393925649132 10.102359922908672 14.120766425175232
Au 10.839924016905266 13.428522386502609 13.807188563184555
Au 10.089807962408301 10.528613858839178 13.538726065678064
Au 8.427916552857731 14.485940540069597 14.56481426247521
Au 7.794293851077104 11.871234692147505 14.091779975683515
