21
Energy = -51.64498195 eV
Au 15.77806284115136 12.019716342473572 10.346388909276905
Au 12.897188449987729 11.073694031179215 14.667308899087606
Au 13.972580425402509 12.014971101000562 12.337721204277095
Au 13.911308893240204 10.01204294808236 10.084488030187151
Au 12.85205918206897 14.511913157369873 11.74157579209536
Au 13.178784548866991 12.687023853671066 9.716064308771651
Au 13.100820483625283 9.269292615593484 12.619994017720364
Au 10.483107180931613 13.60138298997635 10.549560493017355
Au 11.305104500715496 12.677599536349668 13.041915362868258
Au 10.880367270585989 7.469602938991109 12.882697926907834
Au 11.287598829140483 13.219813645366127 7.892230915023597
Au 10.538776314135047 10.107859003610024 13.526738759247781
Au 11.580693681387201 8.577394601838336 10.499219317393427
Au 8.763320590029423 8.926034781201404 11.852134039492897
Au 11.55366722635902 10.557282378881416 8.689998565859737
Au 8.897530326316742 11.784412325223087 12.157511534477209
Au 9.136031547895993 11.73210584549759 8.715927667822882
Au 7.705085090572438 13.369844401774117 10.306810771372334
Au 9.27678921943524 8.982519483442637 9.035487860424114
Au 7.122615789533647 10.650684602368678 10.334945580810118
Au 6.926656311761793 7.976480309305688 10.091213117882239
