21
Energy = -51.56831114 eV
Au 13.602583286069379 14.084977463498982 8.239104520931406
Au 13.763544670259668 10.056997637291973 11.719822471254584
Au 13.921176071181605 12.131880025838983 10.042589105139085
Au 13.395891054961533 8.369669073789915 13.82533170899196
Au 10.48789149682063 14.572583987626603 12.035288573653835
Au 7.185246768662162 11.644427163862842 12.390914056557097
Au 9.761681158409294 12.244638325018657 13.469574250483909
Au 9.29022491118354 9.765665144413973 12.229812915305757
Au 11.385286042590602 13.399602903084844 9.72582049869113
Au 7.670968161820657 10.255395430391323 10.052745791296863
Au 9.728115341811057 8.439535637505536 9.772792464054081
Au 9.987711266666288 11.04625722651675 8.805449020571443
Au 12.22880231332678 9.478228115482883 9.328975887572106
Au 8.890103854687974 12.808207550216254 10.594463284346377
Au 12.398681217912568 12.614449147654549 12.321569013257433
Au 12.359245742466259 11.703932736668527 7.698034521281543
Au 11.43318415167302 10.237726901757533 13.789053854220318
Au 13.927007090248724 11.248552690260642 14.171224229057062
Au 11.575295857015494 8.194644058685117 11.765350271343815
Au 7.94135909316318 14.198893140464762 13.019848798069546
Au 14.921814267730976 9.69547256612561 9.255320588398734
