29
Energy = -73.58506932 eV
Au 11.783485233377617 10.460240355108668 9.242727187503226
Au 12.02017960662303 11.328668542335661 12.11452631193305
Au 12.990087722791692 14.487962359298505 13.881754677949253
Au 12.381804153495555 8.661249884089038 11.320838013233002
Au 11.31241735891198 7.020931166393854 13.205633528610695
Au 11.347802716659645 10.497846315016995 16.033370466154672
Au 15.390547779940487 13.059911863760929 13.426423038504053
Au 13.956497241777477 12.116259097241157 8.34130243700903
Au 14.112833336094582 14.71761141872048 9.344890388273399
Au 9.687706174466689 12.136023064793957 17.406858999517482
Au 12.70174369102876 9.199576207551553 14.07386728435444
Au 11.216214334087072 12.509729085167532 7.484108776016261
Au 14.703202101631888 10.511081691820236 12.626658393393985
Au 10.53589450211071 12.949485587645746 10.306004214149995
Au 14.35930479087251 10.0323936828786 9.981420221845301
Au 9.913818245343622 9.23608982646718 13.806251971804588
Au 11.3805546918725 15.02799332579327 8.717502875161758
Au 11.167331764882078 13.428169585822289 15.592326664208374
Au 9.076076616245997 11.705772459430309 14.748526412829525
Au 15.307612534960334 12.574194911849201 10.721587955437608
Au 9.115109648262491 11.255251479659144 8.615793997299994
Au 13.36092618586414 11.810478966554346 14.743358294706645
Au 14.766677596655649 15.1933589950993 11.879394643863924
Au 12.048791661722362 15.076591749872355 11.337629292437677
Au 7.1790092703912025 10.197087170858016 10.210125674334751
Au 7.652473505597998 10.46391048362151 12.880540394425712
Au 13.232371607456967 14.279119886445661 6.79806261050823
Au 10.470587942308027 13.454804081164038 12.975556496997712
Au 9.738592875821102 10.188887705067886 11.125094363826253
