21
Energy = -51.2811005 eV
Au 7.999523788349649 12.07910002522233 11.6546184198032
Au 11.794573236384783 8.059155237433275 10.753914778677087
Au 12.728885856695745 8.328731425882761 8.139545807909078
Au 11.685273086607985 14.872619613114566 10.951867658226567
Au 10.053495151203993 8.982244371052529 8.758587016757987
Au 11.95865000647801 10.973390949583449 8.34536933777731
Au 13.8910519787072 9.918375328141167 10.076812155478827
Au 13.282147075200998 12.69456681524533 10.231059015839918
Au 11.637889820990031 10.825884626807929 11.52660573233048
Au 11.119222226204108 8.752154063869735 13.319178370225782
Au 11.238927705410232 13.566053666387356 8.551736764317294
Au 12.544484177902934 13.322283581533792 12.981677317571448
Au 12.403559350227559 10.95266742120128 14.436379268691292
Au 9.117450599162122 9.521746600519222 11.427780600069012
Au 14.303502993151112 11.244824016146937 12.425561649246944
Au 9.258312041150791 6.995958658678998 10.479168297918392
Au 9.65543270521718 11.137206981524193 13.613113550950805
Au 10.718624564490291 13.047246177115532 15.21168494943695
Au 9.801553263729014 13.908366483273364 12.805380055667998
Au 9.469003164767388 11.57704107049609 9.406530273203924
Au 9.051175351516576 14.178214117892484 10.170611657552607
