20
Energy = -48.66255048 eV
Au 11.143658967474964 12.414355609706579 6.1255936460777
Au 12.964511704618271 10.782997791257001 7.399791756310164
Au 9.158758990830576 13.093251530048935 7.922978479961979
Au 11.896736520014626 13.024346524630975 8.790513823375791
Au 14.00318099761824 11.596919301327922 9.787161068738186
Au 10.278980073381932 10.570107464843076 8.060622447664551
Au 12.311163996123218 9.343503101718973 9.665004986922693
Au 9.928257395509922 14.111281060359381 10.326190759351931
Au 8.625066014619575 11.605092923093299 10.191141261459629
Au 9.531855832897282 8.918365989060051 9.955245761768582
Au 12.036727345523387 12.651286658203862 11.542457766900794
Au 7.261899391732309 9.566151397884793 11.384701910023523
Au 11.385533538022852 7.091567430844693 10.88730570635177
Au 9.295390003038694 8.00646928402318 12.5273070154931
Au 9.440266066485673 12.819438933868025 12.61095487769814
Au 13.460989875048439 10.287693793265825 12.060624098878266
Au 11.341628285898732 11.093325010557894 13.673449575368089
Au 8.587893761454053 10.483140910548597 13.552080826242056
Au 11.965230941921881 8.391768040848762 13.178623861377881
Au 10.155075577599273 8.921742523722246 15.131055649849356
