25
Energy = -63.0440574 eV
Au 14.398132662428537 10.243068797473464 8.10831496070628
Au 10.065276914128047 11.10895962905751 9.926046826218215
Au 15.30799192692262 12.65798667494439 8.902506307902682
Au 11.82579270298809 9.51153289307945 8.642614568988977
Au 10.962438644222484 13.813200928372677 10.39829246307178
Au 12.446133916891249 12.188971143566004 8.791932084826387
Au 13.97379792540723 8.349970840572318 10.094195018475611
Au 13.557831953081216 14.436879480892069 9.991998969048087
Au 7.348098430264208 10.671901989485615 10.746008120937477
Au 8.467619681781825 13.10630690256289 11.081021621792289
Au 15.729375048148707 10.46033078764286 10.51001047806542
Au 15.10061161987473 12.97473787966635 11.70040918106838
Au 10.034276275785606 14.539942828426186 12.892182344437808
Au 11.603259870327037 9.04593771537903 11.320373225112052
Au 9.362577300941988 9.97324808267273 12.44500913217721
Au 16.3039824414318 10.975168850781365 13.100898893551971
Au 7.4080687563483325 11.766844887451304 13.30186074587359
Au 12.711406574207167 14.066747435297604 12.601659784807042
Au 7.243544330859167 14.550591449856203 13.092957052218917
Au 9.347571880593266 10.797865820709678 15.076353765638936
Au 14.043213407445304 9.452619412184632 12.59651451430675
Au 11.721111267221735 10.113617986238962 13.87232991943597
Au 8.761946552472802 13.454410763232612 15.109391458874523
Au 13.846744922611736 11.903138142341664 13.970769831687763
Au 11.389126329962197 12.795950014459684 14.686280067123166
