25
Energy = -62.67611487 eV
Au 13.248992693836882 10.204077531400044 6.628167395502962
Au 8.751656443416277 11.621211267765165 7.163086681457363
Au 10.596217810777313 9.538842094668112 6.820249235688901
Au 11.37740057829928 12.250978908006214 7.200549688635462
Au 12.647194629447462 8.01115424803609 8.10172902551074
Au 7.156276066481393 11.147499394175245 9.315143101559823
Au 8.034195578497215 9.018628508327254 7.697227594015888
Au 9.558344999483568 12.708417556022244 9.521595808017468
Au 13.858699368361892 10.21878526317442 9.368836802922011
Au 14.093847155092357 12.522748190044481 7.753720306234133
Au 10.059819493664593 7.718333187626443 8.968605070417837
Au 9.838279672592824 10.116736096532964 10.4679354826842
Au 7.449622071967709 8.437576509651212 10.322440719866972
Au 12.322829343763287 12.555795343302883 9.815142791025574
Au 12.167904944126583 8.503563066581966 10.746714231284404
Au 5.783387966483274 10.289271575983125 11.578050785478165
Au 10.732295880035103 12.406667256587536 12.02772773293785
Au 8.021790716824082 11.833810128474157 11.868697776300676
Au 9.771451464035726 7.485735343780461 11.734009065204967
Au 13.187522212993892 10.913010308947527 11.904323801041409
Au 11.004660895136412 9.554442785146358 13.056358498375609
Au 7.282338326344499 6.792632216327381 12.514363084043572
Au 7.936808994537287 9.33870490260639 13.15188134338105
Au 12.11240715071752 11.766351834920535 14.30961146027004
Au 9.336052039036138 11.375022977863715 14.293829014095621
