28
Energy = -70.51389241 eV
Au 14.489509294291432 10.168589812853908 9.114595082514473
Au 14.437934363696689 8.532931510736287 11.294674299377675
Au 14.236816561572857 11.313254996947775 11.661858311237362
Au 12.907180961820407 7.8928129668046 8.917161085157367
Au 12.805055141747003 10.270624754216643 7.006245976932897
Au 12.948223160142534 12.567184873202132 8.567907025979324
Au 12.079096593076594 7.217868036876313 11.572832766450565
Au 11.897682090242387 10.451657531603905 10.152754556571923
Au 12.413457973692616 9.57163294163832 12.950207563225264
Au 10.539119956931966 8.981206276976264 7.881456769645335
Au 10.495018934666065 6.588778809454875 9.418325424480827
Au 12.389499317726665 13.28716213104556 11.116210473116157
Au 10.03663215051659 8.153950327096988 13.129342990041591
Au 10.45665944806291 11.759772083770129 7.443333745117698
Au 10.542187243822125 13.944303058774478 9.24848244455866
Au 12.358527408712463 12.261292966010986 13.638251297012689
Au 6.655525428462611 8.954188375477656 10.22167187054367
Au 9.610510488692174 9.007908315016287 10.521356796769895
Au 8.113794133960175 13.155268927243391 8.2236168686872
Au 10.099960970636468 13.702592450989956 12.62103206034462
Au 9.532736654169605 11.701663537460448 10.684916641679624
Au 8.212343796424108 6.864932353169324 11.334078964399792
Au 8.23091648033697 10.380077916210666 8.402278121391381
Au 9.942469867911894 10.948238533150741 13.506109689090117
Au 8.026349642080536 14.048958950145966 10.817931709109992
Au 7.695125935672955 9.603652794774277 12.687003611776698
Au 6.614265522264287 11.683099155179171 10.286991099890715
Au 7.578542987293397 12.313395191025798 12.914060966021959
