27
Energy = -67.10279189 eV
Au 11.72017546356873 14.372890605658245 11.747279427536213
Au 12.663276539177248 14.073957356105117 9.088614435931419
Au 12.800998679187805 12.324570043799648 13.199738973107396
Au 14.432497770039117 12.375168714075397 10.676774129497899
Au 9.902164229555165 14.449781641350018 9.631007412469753
Au 8.02554699731412 12.003643703112065 7.413857619535139
Au 10.653125247079295 12.577165522377252 7.669603586588323
Au 9.965901236350206 12.491743719428001 12.760841314926276
Au 11.766172033343382 11.869883529358738 10.515401551150005
Au 13.118341401423438 11.448633111890683 8.068001083321816
Au 7.314926567964924 13.687453511996797 9.666090889940659
Au 7.262546456613714 12.011311640983505 11.974945870398114
Au 14.723548205995892 10.406087961708328 12.507993192546614
Au 9.112731840392325 11.587204142688428 9.94156739872852
Au 13.667720342503769 10.475167951126194 15.060791750398684
Au 13.867019916446209 9.641721996368858 9.93209764383031
Au 14.675132336812494 7.738780325411942 11.725113397363716
Au 10.363480582367117 9.881618549651764 11.673910009472387
Au 6.400465043393071 11.021312678147607 9.511395213721505
Au 8.379773051902445 9.368790473006925 8.382001558911124
Au 8.44541072870292 10.311376934866997 13.718267743840087
Au 10.999818436852589 10.462711346302173 14.525729443638074
Au 11.176402115266551 9.57879174448277 8.896890108388536
Au 12.089576116069868 7.600021254864078 10.851067692231512
Au 12.639554822323115 8.566130635818384 13.375504232622696
Au 9.50526961587089 7.641923919803756 10.125341557030723
Au 10.001285639520798 7.698275630618759 13.076035998835609
