25
Energy = -62.45589341 eV
Au 11.540606762412844 9.661123385766707 8.410117464806676
Au 11.73227322492669 12.35837863132633 7.911591835846758
Au 14.000291050739222 10.927050465180503 8.821924934111898
Au 9.456671233168592 11.341825351407557 9.224645699230711
Au 10.121166585807517 9.07233740021262 10.707561741840179
Au 10.535586151251431 13.885621728815392 9.968217831282525
Au 13.230938424473536 13.452836888512211 9.882499533762417
Au 15.588670113312675 9.387903487247224 10.40395680059028
Au 15.179712024936306 12.008571226123784 11.151016307619937
Au 7.86907423645692 13.166636509868253 10.442858244232255
Au 12.894156316630331 8.917467063219082 10.658681108676141
Au 11.61941512882493 11.506980015334829 11.281047450333059
Au 8.964363548211468 15.363122918016058 11.659383950895291
Au 5.8465475843960615 12.18073027208515 12.104741543336955
Au 11.504295735875141 9.087999304850465 13.147009182190851
Au 13.368656978721374 13.70299171823192 12.547255365721846
Au 7.930591873746841 10.58455545701393 11.4610290785577
Au 14.117545992936122 9.672630486436335 13.001552878251637
Au 8.834756391875711 8.536399216611846 13.09496579577645
Au 8.003792050875164 13.239609173631436 13.29247792381562
Au 16.72517564073088 10.260450758936221 12.76082354860058
Au 12.33220680617089 11.641527178337892 14.122145621806858
Au 10.671858315611397 13.629729158343327 12.982391325134552
Au 15.059930760690207 12.099134873407698 13.998709053861539
Au 9.655806565995976 11.0984768298613 13.747485278495123
