24
Energy = -57.03100597 eV
Au 8.275314207550217 10.745900037856433 15.968738221845435
Au 9.551537333931593 8.541561718097011 16.988278362316308
Au 9.84382308588007 11.095184684287673 18.119675772729796
Au 6.622291624536129 11.198837040322482 13.943261196571108
Au 9.324408133562613 10.89060249963208 13.26052837093475
Au 8.237956117250263 13.229992457223627 14.692378315723213
Au 10.967602850752392 10.114136380052653 15.367174320735606
Au 10.355104498353088 13.050868448722262 16.430259589387656
Au 9.388754003198843 13.442486101003698 12.147271317712592
Au 10.380152819778731 14.887126140156456 14.360097891332297
Au 13.626538620983602 11.974982509727559 12.150690665111936
Au 10.951557968639271 11.507565421220665 11.133395713954133
Au 12.67673515923654 12.436538345636832 9.15624022186509
Au 12.945008656321033 9.875846378515327 10.334455506248286
Au 11.736871239108122 12.294476542872156 14.054018811580681
Au 16.221189986258715 13.000516809908447 11.968211982168048
Au 15.356660732600325 11.372923042246532 9.975246198738478
Au 12.008408019165767 14.34222243903653 12.207552767915741
Au 14.14004903483015 14.303968776554486 10.556004266416803
Au 16.9582177016114 13.580222514426048 9.46655988005255
Au 14.188743666086445 10.176491230644809 7.8950468043897235
Au 14.619436378012129 13.861963107100049 7.9119692930956775
Au 16.248924691014338 11.677302290820526 7.234368693697363
Au 17.246304602798553 14.155485818615746 6.882003437564281
