26
Energy = -65.11283842 eV
Au 12.500076703357779 7.569544173922492 11.3890413363273
Au 8.48885274553504 8.916998573050385 9.301188736623555
Au 12.028176247311825 9.46686104016256 13.359786704723579
Au 9.685537776613526 15.333385709697893 12.56417622272168
Au 13.894099817779079 9.923575721538317 11.314199797220416
Au 10.891880268533448 7.701937104650352 9.147708913083145
Au 9.504000205180287 10.584397987263598 13.63636333908293
Au 7.317194456134808 14.688916868772296 13.768371427301389
Au 10.178675506302405 10.562924898353522 7.4541960547420025
Au 9.227042235580676 13.075246374573275 14.680417448508408
Au 11.658733589359642 14.087716559582132 11.39966978458706
Au 7.521684285120847 10.460304417151212 7.292260634359349
Au 8.441286201111636 13.01933213972284 11.895587311139456
Au 9.995053734199741 8.69684046834856 11.595398620866426
Au 13.070819922686429 12.127798077180886 12.831866615444433
Au 10.762815519775124 11.468268207949171 11.253616857929119
Au 8.603903067728162 11.931040593110122 9.365345876980365
Au 11.096235954301592 12.886655838911249 8.793283419754404
Au 13.515853141854532 8.434174898848399 8.960129141030034
Au 7.7824168412516395 10.406949338985203 11.52016175096395
Au 12.813821623468938 10.959771136284035 7.785078556780835
Au 15.248867544681891 10.55625952729927 8.927675784896948
Au 11.460245364697702 11.760509600873846 15.163065921119061
Au 13.910189094881515 10.69897610667795 14.97979390494766
Au 11.898583368439262 8.578057007561775 6.709814813206937
Au 13.43842928477686 12.350275232087613 10.121100929312913
