21
Energy = -50.35872938 eV
Au 11.289273214725597 6.9381554220403485 10.390601308852316
Au 10.647598198072417 6.691160061285917 7.574583611257113
Au 13.089884277947123 8.212412293637966 8.314188158834588
Au 8.260446039250196 7.403078577367783 8.80633642714331
Au 10.849895578417899 8.727482836150996 12.565168742562744
Au 12.93167896602932 9.290867522754006 10.864930590936119
Au 11.737476027062938 9.930200996538348 6.51489729245907
Au 8.791536009715243 7.182781251953275 11.539500349937482
Au 9.093392689499193 8.855087236252757 6.4991126592223445
Au 10.552549952337694 9.069699244547648 8.931707178705661
Au 12.174753277507776 11.317880500595223 9.081782821589043
Au 9.073387187616317 10.664081101037725 10.366884131357644
Au 7.29326944984955 10.048966409657709 8.299280312748728
Au 6.617019578595048 8.588491571332261 10.614948508631018
Au 9.695675700347786 11.464492451403617 7.6996085979352396
Au 11.427869807753032 11.354579808102836 11.847607651124912
Au 8.247910718357595 9.687762804408196 12.746606375432481
Au 10.329105948179148 13.20433232481846 9.992397058033346
Au 6.462544097764619 11.295597443332458 11.081817828378696
Au 7.679870389233175 12.827011960512305 9.063057139363847
Au 8.904772123724776 12.48935810221373 12.366993086701926
