27
Energy = -68.55547442 eV
Au 12.395493852192196 12.894837253496084 8.876233749095302
Au 14.092277414307055 14.305196488093948 10.591740917283687
Au 12.4351224046528 10.102983073856596 9.148910315836783
Au 10.990522671123818 11.15616958705604 7.120671883988856
Au 12.470413063988463 15.624373843564522 8.700155753623191
Au 14.070047524635216 11.611194842553449 10.805530781751028
Au 9.702969123229991 9.458102790622723 8.912602247092396
Au 11.473143773631037 7.591945941614325 10.049357825260966
Au 12.969798236397462 6.438707802297235 12.07663755548703
Au 9.655434005409075 12.208752697705977 9.30001737257297
Au 13.33923188512725 9.106839888842018 11.489992523585721
Au 10.304723448403427 14.753423641041115 10.056448823135609
Au 8.837478715060428 7.774194886294912 10.85976485830382
Au 8.555191206811989 10.497515803731707 11.255563531782478
Au 12.338346393330205 16.266815237007613 11.384756768250279
Au 15.276438138374868 12.87386365361696 12.905296055950977
Au 11.293983167486426 11.362665692159736 11.480066319524777
Au 12.902221020634462 14.131505986863838 13.129827988509122
Au 10.617398124500886 7.371502933811556 12.914258015247139
Au 8.953566616976058 13.172062106812065 11.840784240669567
Au 13.220170894095128 11.209303970882816 13.605303343983742
Au 8.32892535890161 8.694715146098652 13.461340597506082
Au 10.354102751477184 15.248461034049628 12.907098641038493
Au 13.023401559091424 8.427306793991544 14.076700858342313
Au 8.302781098421072 11.398494892996007 13.895870547122685
Au 10.742708826809624 12.727613221203708 14.018480686148983
Au 10.746355421447113 9.99389031588869 14.00947854557581
