28
Energy = -71.35719098 eV
Au 12.279250086689808 7.2643922403934065 10.823419915099004
Au 9.882120156773698 6.048600137387697 6.728070770418902
Au 8.07231069688157 10.605496691840708 10.135737875217588
Au 6.083822535065547 7.272994374219052 6.336792951728043
Au 12.488320243773478 9.100284739098363 8.76162875152326
Au 10.404006886269794 7.540006281307558 12.746143602654113
Au 4.527761819476782 9.312974715087293 7.479097259480013
Au 8.205997934412482 7.477662214421659 10.997161495973568
Au 5.0139555345580815 11.894746347639758 6.712403495838556
Au 6.606405858102635 9.904138792747373 5.610920790028594
Au 5.881988526834526 8.460995838503457 9.816420474387424
Au 12.163005414340084 10.887184926607087 6.63352719746951
Au 10.466931317403516 9.34859992244323 10.709095804283137
Au 7.587935348480304 11.597902639280102 7.581146574467046
Au 8.489027175194995 9.555089651429888 12.769467086087586
Au 11.075369314227332 8.416431096653945 6.451964857324796
Au 10.121386712797447 10.726673730661675 8.36977108066305
Au 8.686858522659112 8.228848994295797 8.342721082067765
Au 7.034457643668937 6.093839243905783 9.01980420744029
Au 4.235661876028716 6.732744180394195 8.278975396732566
Au 5.654146505610895 4.648657712646649 7.20136965704624
Au 5.368434794799664 11.187672716578287 9.37422284284376
Au 10.937258476674732 3.96050192287754 8.036483496397056
Au 8.270563709906813 4.065704747557293 7.606629033838947
Au 9.396941920566622 10.685359332875876 5.693807285810825
Au 6.049598363858293 10.3504611649228 11.882955581098615
Au 8.521529724429776 7.998275450883649 5.519338361917503
Au 12.138203274010575 6.398867431553298 8.28582753863127
