25
Energy = -61.82280241 eV
Au 12.991717878670455 8.851957815036029 6.833050348079051
Au 10.229693078553733 7.771957095032751 6.861193409357122
Au 12.354525311894697 6.135249080334528 7.247677314776422
Au 8.790594053157228 10.080425885322382 7.486609396554352
Au 10.559286300618757 12.219795669102021 8.255184213097632
Au 13.16464826088493 11.289169044926377 8.139352921922496
Au 11.141588103964857 9.508607480843395 8.868334376198716
Au 13.24528896360626 7.6814154309788965 9.392027937964171
Au 7.09406365776692 10.017927026678922 9.734748325855435
Au 7.799230810692616 12.418742360087021 8.430690326606374
Au 8.3785273682322 7.694668792738343 8.941344948446122
Au 10.736424370444896 6.494491498078694 9.54757719206709
Au 9.424516694518692 13.543386519260148 10.525437796809275
Au 12.184351586268692 12.606696934031607 10.446190815174514
Au 6.738151089868087 12.67076424285727 10.962613414286619
Au 13.276175976527224 10.04893566374629 10.677039293286976
Au 9.685761360015645 10.781813838276138 10.872431555360912
Au 7.0139923013942775 10.413100309318564 12.483294039033607
Au 8.410896597080848 8.210472283664664 11.549628456386564
Au 8.489481121634075 12.628480906282087 13.062260488570692
Au 11.173340993699792 8.421823284081254 11.560416223055075
Au 11.001395759772137 13.602101049985857 12.683898553512197
Au 12.001989183064573 11.001940333585157 12.864463781396909
Au 9.593515979184888 9.793355903749605 13.53161458598555
Au 10.410313716479662 12.002192069997767 14.93239080421271
