27
Energy = -68.82283862 eV
Au 11.590905668575331 7.642371578703856 8.300523710373437
Au 13.32376770821822 9.713544642801748 8.917980555319941
Au 9.96600823690033 6.657034711604256 10.41559086811385
Au 8.798976968037627 8.061581882338482 8.306392754620008
Au 12.35909155295513 7.999640080782518 10.927502533296206
Au 14.618828489412001 9.558212666845227 11.33251664181691
Au 10.679914799286253 10.167901709288524 7.842226647943679
Au 10.343167404662205 7.788374310002668 12.890027803550463
Au 12.571815274184363 12.218443300882747 8.144942611437475
Au 14.495822017579707 11.553621532205248 13.244549699178325
Au 8.994143520066054 9.171789410343168 10.801458305298844
Au 7.929915924344559 10.61820868492504 8.601595640549563
Au 13.981501489247277 12.123933625240442 10.531354953884529
Au 12.708474184601044 9.424485794055858 13.265196961644879
Au 11.305978767183522 11.021768020354152 10.59488442252803
Au 9.906577366298736 12.745183974421638 8.514769926506865
Au 7.2447533913566815 13.236113049788832 9.118581885161126
Au 10.813598362205187 9.247021320278519 15.210718954049488
Au 13.188122859661977 13.813828216755201 12.642246268221495
Au 9.941612609738186 10.534525008363765 13.018985911798413
Au 8.605069310353594 11.897967791938356 11.040988875874683
Au 11.898178363699708 13.946245516796946 10.20645243854168
Au 11.936339793910168 11.834065669808075 14.540556617622693
Au 10.0098724783916 13.254577860344092 12.980282764639055
Au 9.174062939315522 14.601675155215208 10.584005983916544
Au 11.581016997356476 14.541979224412085 14.789820466728807
Au 11.110780620571592 15.65597722296524 12.224967378501125
