25
Energy = -62.50790308 eV
Au 13.032319701889563 11.51221126570865 6.900922587844766
Au 8.650300613101912 11.601887580340906 13.23470519330683
Au 14.873783146890826 10.750021307273583 8.785064591938376
Au 8.642179143983087 9.026395485351397 12.099173649644335
Au 14.199294050352819 11.386915895353136 13.579728075673403
Au 12.214795263332073 9.849552059784422 9.034581922224627
Au 12.452157277120062 10.656889793364508 15.652243226031569
Au 11.155732133979487 11.5439056895428 11.162777599022029
Au 10.392545101665455 9.614468599897524 14.128708089757732
Au 9.053415874581823 12.519624456848327 8.884654212117448
Au 10.193260379600366 12.134494117586582 15.392588498727893
Au 10.414649650933923 10.784776577115478 7.1665835059004355
Au 13.003924819092568 8.835883719615003 13.730750412415864
Au 10.547407680680896 13.706279878410921 13.125110386852114
Au 13.811476211290703 9.8456497452246 11.272211834457327
Au 10.975417938460097 14.174923300683874 10.299328604397493
Au 15.330321408736909 12.109512971633366 11.178052792074347
Au 9.474747660795432 9.738009109342338 9.501764489943833
Au 13.077908419005123 13.487503167105606 12.106144515836307
Au 11.21181368275853 13.540265160023164 7.613385199535526
Au 8.479940661762939 13.69472191833819 11.353984537072282
Au 12.674101225710801 13.348985823606466 14.873854049118751
Au 13.252354465335022 12.880130997595138 9.399339955965612
Au 7.493093729884763 11.18717421600885 10.769840265538997
Au 11.29950054958849 8.784633825822937 11.505725169835515
