26
Energy = -65.27458379 eV
Au 11.32504713166233 7.65635787995878 14.138457836684985
Au 10.749188834062258 8.344449028516534 11.598527678922983
Au 8.890301794021692 6.447816093392616 10.689904414302886
Au 9.525860767149172 9.725095710869192 14.159054700323654
Au 12.170356085622002 10.228473039957805 13.499790562059658
Au 13.183468245702676 9.43589444932746 10.877298967260268
Au 7.956328353525912 8.251397061780168 12.508561375324012
Au 8.388362286380024 9.056633970461846 9.91697472999627
Au 13.137248478667736 11.492274338119792 8.960684323481415
Au 9.51644346519389 7.237611661098328 8.13259061240169
Au 15.53854911128704 10.731457511637176 10.026234883450915
Au 10.961955147752242 11.276745011226165 10.90414179870739
Au 8.358876984234541 10.991284011421902 12.021724972064126
Au 9.057968620474135 9.86933543971987 7.33274236622761
Au 14.612245511230407 11.024384550361436 12.60656307537887
Au 10.10757198039487 12.357047703696722 13.69679984109862
Au 11.250907807305369 9.249323057767215 8.927669273668112
Au 9.310370684978137 13.563565666849215 11.182921774551703
Au 12.745617343496393 12.935686695075344 13.06267112615032
Au 11.77669609243769 13.845000336296877 9.45365407434431
Au 8.442161063835226 11.765381081042277 9.355080518341047
Au 10.816504431862496 14.906533028614442 13.128675886002657
Au 10.721127173049616 11.966873149333168 7.816590140126781
Au 10.473140627437672 15.986999900912805 10.523390585354644
Au 14.474271180245383 13.199275210038897 10.694496676550646
Au 12.998595642884837 15.25714887075641 11.474963419087555
