21
Energy = -51.49668187 eV
Au 10.15854544666731 9.549147452108167 7.558433950116641
Au 8.248832946376492 9.691046646868198 12.290375267706796
Au 9.409413191578922 12.000701198123805 8.566987527882482
Au 9.470730212095122 7.245486606360094 8.897949262983527
Au 12.290425739998911 11.057332982035835 8.448221830705776
Au 13.382207943312698 10.491093196500037 13.909692710832337
Au 12.76610314148047 13.848324263476291 10.787090130690459
Au 14.217965894578889 12.98454808398861 8.686373940758708
Au 12.780572197539923 8.732965689239434 11.966325451555585
Au 10.698252366183072 9.88731701309655 13.575602096308872
Au 11.492295765751471 13.703291045134543 8.32704963647243
Au 7.677379677480502 12.077795974746646 10.747200210747465
Au 13.560813888851426 11.183485539138859 10.952997783891995
Au 10.655605837280781 10.651162633590078 10.784519601794173
Au 9.045516571572128 12.168968712741814 13.146553575273812
Au 7.562767723986427 7.390511512473429 10.969169442067203
Au 10.22789313282513 7.826615459011623 11.559596309708713
Au 8.110071397746164 9.67610556052188 9.456129217237564
Au 11.948444335876427 8.490163185588838 9.41336852767228
Au 10.040393340890345 13.516976156705368 10.889362263353075
Au 11.777596335973898 12.447428576081135 12.86608645072407
