27
Energy = -68.52227407 eV
Au 10.868034691336364 8.791311052207279 13.062699819329485
Au 9.293563318946049 10.996135404123438 13.632094976219069
Au 13.344599581774903 9.113260279951081 11.814089432410059
Au 12.072818046246711 11.286078984151034 13.195262957886001
Au 14.230657247493298 11.702139108320752 11.49195896704082
Au 12.434409507985627 6.578661701667557 12.386686311291111
Au 8.375028247810912 9.089166284091018 11.901618481265793
Au 10.46343423614538 13.52616217769381 13.529487054101823
Au 7.765286550591637 13.367692287097041 13.49104349032231
Au 14.772428515746592 9.762980146685301 9.5735086144259
Au 6.61438219433532 10.945201657152266 12.774805957459487
Au 10.773060914832765 10.376358542444308 10.609410034583535
Au 12.872123826975727 7.265608668455978 9.78631572749197
Au 10.652320246199826 8.381336403072456 8.394911083839752
Au 13.244978353851534 8.632656438533909 7.564527811158716
Au 10.212676789010512 7.204834414103958 10.842789805659143
Au 6.35176793195258 13.14436742779079 11.12801314473704
Au 8.069939363986697 8.206395158378683 9.363248096022824
Au 12.949079240044206 11.785068801447219 9.07055479063455
Au 9.08775473630216 13.706647566327543 11.070221857867807
Au 14.126911643656102 11.016935872363723 6.744669690310336
Au 6.776083728723284 10.539129051614323 10.038627063041972
Au 11.83133947576742 13.152375626734042 11.184960712652797
Au 11.361312731256023 10.738995894848571 7.050646136482991
Au 8.81793085686889 10.518085397505022 8.08652063351382
Au 7.658052967747846 12.932559097141066 8.779153791554245
Au 10.363810488932788 12.673880694837722 8.847584347091713
