25
Energy = -61.93804791 eV
Au 5.9895741148843005 10.816625373780118 8.915183873697918
Au 6.679747223405449 8.802246703787754 10.684521852449631
Au 7.723936887238233 11.424288311756507 11.020835588123116
Au 9.044314713644871 9.329372547455865 12.357301073074535
Au 9.781428617617198 12.171934038634577 12.680936868540782
Au 7.541538820191429 7.5010402851005855 8.289340968924177
Au 7.699532095698524 9.903681162607082 6.880702701676099
Au 8.511373082116155 6.779801073058878 10.99450641244676
Au 8.251547484142744 12.281002567007292 8.258314622761509
Au 9.050444220834958 9.525467711324422 9.365555575241451
Au 9.816053583682939 6.929159232544426 13.461941341283552
Au 9.20284278346923 13.689591644871493 10.386588278816195
Au 11.767976985852737 8.813989598068371 13.658906473839998
Au 10.22375066554515 6.902925345393251 8.793067316775867
Au 12.435747163694453 11.400898069477556 13.134871927488973
Au 11.286336149914062 7.521135089565286 11.226994475296204
Au 11.03170784538459 10.516648213058225 10.815972935599081
Au 11.927836479069425 13.18167373488282 11.10798904044051
Au 10.278792108802753 8.87334085963135 6.915976418068089
Au 9.868753420738143 11.561439600910104 6.176854143201665
Au 11.009598465738302 12.614220672790413 8.523787093025373
Au 12.332850460848299 8.726767123381146 8.946824700056899
Au 13.509454791963012 9.319118755035023 11.506596383331466
Au 13.351318038737217 11.319713866334872 9.504374458616704
Au 12.368563615105376 10.682315736341492 6.990866407228857
