25
Energy = -62.68383274 eV
Au 12.139545115954183 14.200918579875156 8.61709617225438
Au 11.93012916153911 7.201515777700907 9.826145606770519
Au 14.833602120173909 13.45314654889571 8.930235920666028
Au 11.089037231192 9.599179952929395 8.672605932811969
Au 10.1927569620739 12.220677447260265 9.007294688421027
Au 9.286855490989264 7.509122469551854 9.172640040055516
Au 12.866946839513176 11.583290641499303 8.348483212100902
Au 10.47313874360996 14.37353207246747 10.749145728382539
Au 14.500262610119107 11.31192587809223 10.615399869858312
Au 14.384739726788576 6.550752819000491 9.089036024553497
Au 8.54697980068706 10.166075358762221 9.759053177209477
Au 13.918869613803244 9.15626715459843 8.942831001455598
Au 10.99575939309153 10.049962750175888 13.51875203195708
Au 13.229326534034454 13.784516046310587 11.197188123209788
Au 8.293629890579753 12.561401435819198 10.950851526121435
Au 12.65106467354817 9.42706675445315 11.427258892139596
Au 7.3514273353308415 8.047109850452292 11.095102486114722
Au 8.740085662291134 14.487173626432075 12.841610919684006
Au 13.249601729982823 11.661229677059639 13.015489936723297
Au 8.131493530336966 10.137960196580828 12.675115109183249
Au 10.08046310778436 8.42201061488293 11.627696299312138
Au 11.42053634915114 13.721118551703903 13.217063549264834
Au 6.772375713167315 12.446648029169717 13.270416853619329
Au 11.758761786156382 11.93554649412605 15.336421957140375
Au 9.284543453838195 12.11378384793596 14.21899751672642
