21
Energy = -51.91965816 eV
Au 8.67751742407133 13.296013490569052 14.735809078143372
Au 14.35641493257834 12.272074522054284 9.181652863505102
Au 10.241721217126985 10.337765139554428 7.768807566026663
Au 12.752616425935914 12.641744492209199 13.98553654409951
Au 9.012018679862154 12.746549052505044 7.667260334008179
Au 10.543038023514061 13.736450965659564 12.81440210086946
Au 9.78705109385094 13.509959600575359 10.249306668685783
Au 8.855455217504625 9.58110400676298 11.966387537527266
Au 9.363342993295463 6.83568535500279 11.829815650320336
Au 12.47685884304147 10.261640916760802 12.69995650417628
Au 11.89748468811385 8.31161246876459 8.432046215705867
Au 10.24789613955828 11.158055694609303 14.071383873051968
Au 11.647597081529364 8.143426216011646 11.15595480361818
Au 13.05763754324805 10.527549163252841 7.391858084731414
Au 13.31055350899742 10.02280249974272 10.170922411066586
Au 8.238526082306379 12.206699438261394 12.254172437110459
Au 8.420780493370208 11.093370496611406 9.769859554935302
Au 9.29208296758327 8.413664276481832 9.498229113192222
Au 11.701054045073755 12.668876476058232 8.56839949504069
Au 10.582679260872212 8.473659030698213 13.752643177963012
Au 12.48533966157969 12.736610738951338 11.196170623732112
