23
Energy = -57.02793276 eV
Au 13.009389748601544 13.77016569855343 15.11179403738732
Au 14.61795164028576 11.97442622556222 13.850809974632458
Au 11.588127455648854 14.333780856937603 12.86313530558828
Au 12.794598744986976 12.216306195826027 9.19428982005027
Au 15.82489665222552 14.180702456077551 14.887962665864544
Au 11.599502050836776 8.81479933251153 13.218709642280757
Au 7.889281180211533 10.82569548224239 11.057642675237604
Au 12.70000597637565 15.986827831421849 10.89595768460416
Au 14.727881290602767 11.527454807364169 11.084498742372373
Au 6.941869170820864 9.184267716501507 12.97936453120746
Au 9.172558714592537 7.60189612293485 13.226225305627723
Au 10.233888918053422 11.374131717528519 9.740346964056586
Au 9.303746721910484 10.395429866125353 13.585548150355859
Au 14.204914546469405 15.191324088328095 12.956794973367723
Au 14.155986431919198 9.537077980652537 12.950292571632257
Au 12.482324510715394 10.0313338850513 10.79714706022822
Au 11.802397014024036 11.581333910130754 13.838374048621962
Au 10.81528853712793 14.055789793917265 10.210215746210057
Au 14.650114284095512 14.12270574129469 10.186751069967302
Au 16.3250789586959 13.512256095881085 12.216715660269067
Au 9.929420062253053 8.952237647848742 10.947499821892164
Au 12.726630502638224 14.840334137651315 8.368870306802359
Au 9.60844181337346 12.678666194636408 12.206722711663474
