25
Energy = -61.77203753 eV
Au 13.253641850761108 11.431193420161382 13.89138667288297
Au 10.719131697715186 10.584292119809504 13.466305680913752
Au 13.429319843810852 13.420497878879186 11.951146067843617
Au 10.835036541968758 13.237225136411494 12.511902999054541
Au 8.45053972383941 12.246352833740943 13.149024968087463
Au 8.310943883888086 9.476409999259179 12.438877280772275
Au 10.870909976558941 8.368714741451647 11.889315571998566
Au 12.849987920330062 10.700708708952654 11.320181625137067
Au 8.518785938693876 7.020717684640532 11.191648368348137
Au 10.01030378079964 10.967206886937802 10.694187848277776
Au 11.745210128297792 13.220504308836851 9.85847377619834
Au 7.031308753556872 11.471742383572057 10.917871476659077
Au 12.872425934631872 8.324069961112993 10.00838548245176
Au 8.887776161309192 13.333956149906966 9.933741111587949
Au 12.024513073932384 10.592012225994917 8.633006959918918
Au 10.913673226351262 6.360415460723183 9.869857162849542
Au 10.331296405016934 12.52210549719046 7.614294260484323
Au 9.68353198997148 8.724104819335293 9.12475077937733
Au 6.994892420056702 8.931825117895052 9.868335700212617
Au 11.814217936515192 7.968852246001698 7.477570234825015
Au 8.032629323454353 6.496884769465876 8.54995620400242
Au 8.004837942109727 11.191813437834835 8.336451730899343
Au 10.028200037348329 9.998844854533392 6.62510725140786
Au 9.516334247580987 7.160612353288939 6.272278722279609
Au 7.47601057246608 8.842171473745445 7.08835344974124
