28
Energy = -70.1941624 eV
Au 11.116880822695823 13.69510050804986 13.606712888409255
Au 9.701151670469319 11.262557470462285 13.490288166097018
Au 13.852562782242064 13.250585848138215 13.70079423596323
Au 10.885856660429907 8.833247998810926 14.092388871769494
Au 15.385504630002409 11.01484179049316 12.93594576459224
Au 13.609687378782859 9.054372562971556 13.923241510391204
Au 12.754369429500299 14.803530954169347 11.656635698271367
Au 10.66904045832626 12.542732043029668 10.834465293962753
Au 14.63105558401744 12.869900334276819 10.957581900931622
Au 10.698470726521084 9.795987621863974 11.045411899204302
Au 14.483287773446605 9.008206682407419 11.268321559863606
Au 12.25961193446162 7.442152620967561 12.10846123120904
Au 10.124576939557004 14.19693849669251 8.510572067131813
Au 12.771772206502016 13.659603287236289 9.097883732958614
Au 8.81409804481689 11.605669264838156 8.679207318306682
Au 10.602299952640854 9.417575672734348 8.187775865130757
Au 12.714375648249131 8.091265226621744 9.443115130086914
Au 12.169880156953443 11.290624725356206 14.88576532498096
Au 12.67699134501487 11.202508704157916 12.189538603164054
Au 12.908050446671684 10.86823933449424 9.435006384682252
Au 11.261444434092008 11.96667291410695 7.409985107081851
Au 10.111976425147297 15.234130617769502 11.187876841936886
Au 7.912668295737575 13.82300270696161 10.11792116943116
Au 8.46963386259008 13.651672096555096 12.827274381271566
Au 7.831725634632931 11.335217298316092 11.321403556671823
Au 8.557733620864274 8.875670669334726 12.565044106805109
Au 8.251393902119037 9.111914996340667 9.736649197947756
Au 10.180813919682015 7.21652571725506 10.249728595858265
