29
Energy = -74.03401312 eV
Au 7.292552420100186 8.700010477446465 10.020782490177726
Au 7.445699895983552 10.615028857321127 12.139343858979556
Au 7.252087045984746 10.45074574143525 7.633429928305415
Au 7.806281208094423 13.079712437661687 8.277008662331411
Au 9.50167606991494 8.749370275121631 11.737339350115846
Au 8.05216044586668 12.867315916589662 13.639535646898656
Au 7.948738583700834 13.364432305662605 10.965205219836676
Au 9.251128265272884 6.715489409303157 9.886677541288508
Au 9.265794063225657 8.643796193708102 7.884110920705359
Au 8.969946420481934 10.90489127491387 9.844065744184537
Au 9.941267562013746 10.873397363908312 13.469884715284996
Au 9.898086707226703 11.54072120236719 7.2635085910093045
Au 11.424705410772484 6.7662606761964685 11.613032241113912
Au 10.33772769917359 13.371478075145886 9.438695719431765
Au 10.325204738133605 14.049565739827425 12.129293038218925
Au 13.573016317964948 8.419388371113994 10.997489454868198
Au 11.645208709477533 7.826820772250802 9.02644692506085
Au 11.949676399370022 8.952676403270459 13.201208847861885
Au 11.469601745483672 10.779138442982497 11.000379929716484
Au 12.55864016685846 11.503051402202209 14.11058343223885
Au 10.512573444139656 13.235661565452398 14.80293627010862
Au 12.725393061770186 13.36170351646359 10.83835803193603
Au 12.392186263472562 11.737346055389736 8.466087696986499
Au 11.657322129601408 9.548080310474496 6.8357123881136905
Au 12.701047733894452 14.273824009811573 13.472026926318561
Au 13.878162490337983 9.360960848483447 8.39629107141954
Au 14.56751074080648 9.885019596334102 13.117028407645586
Au 14.708587919245467 12.629252948636923 12.678178823186547
Au 14.312767426439214 11.10309365436744 10.454992744340066
