25
Energy = -61.83390292 eV
Au 12.845678896021449 14.391098277292569 8.704577217353945
Au 13.49130784691284 11.81153538223481 8.125855462438158
Au 10.810266706433815 12.620639548081318 8.34158581019324
Au 10.2370709813938 15.310255953066157 8.49010865960131
Au 11.654865120330832 9.903786566130254 8.934268676786449
Au 9.15291375300104 10.540900831342153 8.104092262620103
Au 14.5383660754818 12.96267191959291 10.464151174534884
Au 14.478244088509095 15.736458594730491 10.447566593765337
Au 13.913052582566582 10.311880532869283 10.40793128012714
Au 9.977560072165033 13.889714927923153 10.862947409092879
Au 9.881535205329572 11.21301401867533 10.692327310682304
Au 11.747631679705504 16.08071298103375 10.671979408609294
Au 13.073087879738175 14.307189410815733 12.41454503653676
Au 12.224532791201502 8.170083642374978 14.139156678238924
Au 11.661323451787704 8.93987221392505 11.505432007167476
Au 9.768647037882685 7.488591378769084 13.139435261249803
Au 10.670301867094839 15.37969283985244 13.116703204178574
Au 14.306732690123187 9.107984490093015 12.77761383341092
Au 9.689809243250352 10.19511431589537 13.151880399727284
Au 13.801813664482113 11.769777128707558 12.832160929688106
Au 10.973318981111117 12.599629627981283 13.096081555305535
Au 12.25904995406226 10.92777165176994 14.89641516527908
Au 12.394588303728764 8.89655547003581 16.74218938426319
Au 9.625258632741275 11.634508987599382 15.468992484989661
Au 9.921107086041637 8.908623900305287 15.570067385257206
