29
Energy = -73.58216015 eV
Au 12.489016955776465 14.611223534149573 7.841279840804048
Au 12.312661459704351 11.797992220201039 7.430846707158077
Au 10.127396654842386 13.434233111055162 7.342376816153288
Au 11.51154353842065 9.191122637334582 7.5763047266385835
Au 13.924442317378173 12.952759573446588 9.44818528114666
Au 11.411010450947982 14.145836280994956 10.318817189475551
Au 13.328102626707436 10.166567321191364 9.411701261619415
Au 9.278795614864235 10.752516512219625 7.138032532624146
Au 10.506144670115239 11.491423747282166 9.576284295077574
Au 11.668043265971255 7.941427021508602 10.071791144457983
Au 7.870686941367607 12.586233013697669 8.736956087762406
Au 15.134990188714347 11.307743113210984 11.241146026857107
Au 12.432909162403098 11.8480359547282 11.654531973694176
Au 9.193829134061046 8.482837101512814 8.835455837173026
Au 6.898503081229445 10.008409391535858 8.338860612703504
Au 8.822294240916943 13.419859873240583 11.141117680750513
Au 10.407733456869012 9.814680103155817 11.730036143517202
Au 10.7406548135321 13.736368321302894 13.017507001686209
Au 9.184599634250288 7.191633141523315 11.280785146052107
Au 13.450864778003215 9.068970250433312 11.91704189562194
Au 6.795699723550169 8.310688197359097 10.44867348374698
Au 11.574873244669329 11.467445975710506 14.35465371925374
Au 11.463990429346351 7.393691201498026 12.829850462134806
Au 7.507426937992106 11.006086710970838 10.960374211266894
Au 8.953675422652989 11.58953132092403 13.355663780524813
Au 14.29099903460515 10.991165243279445 13.776715982120459
Au 12.708412265206627 8.941427690026993 14.721206913452912
Au 7.808026370972825 9.076139566547335 12.867803066026164
Au 9.995785388626997 9.10976962711104 14.452048515081952
