26
Energy = -65.20757468 eV
Au 13.24295182520721 9.255037376964497 7.383823515227779
Au 11.3705506916888 11.317337481313634 14.168268152521938
Au 11.956380196141932 7.288736874145396 12.399550914578
Au 14.154588426160611 10.669269666559753 14.152078337346975
Au 13.395103704042278 12.265438834287448 12.065683131461112
Au 9.032051592491166 13.725587013544445 10.737455897748951
Au 13.419231349520192 10.831969489080256 9.669649426261465
Au 12.5970049236805 8.117912690718224 9.847779656046718
Au 9.406337026580962 12.95824812703757 8.036010392751674
Au 7.870596114251774 9.082949807911216 8.870291576937596
Au 9.740161158700428 8.778509986877987 13.414282852437035
Au 10.577383984927309 8.685601900835284 8.055764829541983
Au 7.677019942956404 9.187310664377218 11.719701681890438
Au 6.834551570766696 11.349976615268796 7.740068948316193
Au 10.989046539351653 13.57761221477018 12.602145731231225
Au 9.0819445363705 11.488291979232557 12.575356201271976
Au 11.605381616627195 11.418044067212964 7.623708029515328
Au 9.843033224857072 10.791058687212745 9.837135898059708
Au 7.189051267689852 11.57266001963583 10.455239578780434
Au 11.625246533055101 10.060513767595461 11.736419730393388
Au 9.17702176918844 10.589499688647448 6.564807773401383
Au 6.990569277571385 13.879893863833715 8.804356019871515
Au 9.833959221717251 7.899142270422332 10.620562610979926
Au 12.250465699581637 8.744734422519615 14.669961325339496
Au 11.652364692244786 12.978399684157802 9.987854215010476
Au 14.202285199398107 9.110200915098623 11.913302945911738
