20
Energy = -48.7545324 eV
Au 8.613667888258252 10.02350746914351 7.71071608118746
Au 9.263342772550274 12.675846695043179 8.103013060535579
Au 11.309289232763494 10.849409968353793 7.792455810399164
Au 10.291674976876358 8.229168574105175 8.956459601005058
Au 7.810754384179815 11.64369807964387 10.11070733303723
Au 12.993179693941055 8.86297489972658 8.578422254402707
Au 13.115858934889557 11.331881502297842 9.954740998264677
Au 9.50605816856035 14.216142384559289 10.416079321123048
Au 10.361333399723028 10.586018174493994 10.500852647503761
Au 11.742654390980807 13.451036263132861 9.029044244397488
Au 12.128434710528696 8.180680866761538 11.088439323928808
Au 14.67341719654585 9.247774845575762 10.827879639529995
Au 11.455584436683225 12.801897796321049 11.809793864231278
Au 7.719365592013654 8.715636956800001 9.930243490423166
Au 8.71150588228103 12.74484173924825 12.553343874641564
Au 9.537125656859825 8.17274785680317 11.878685891930745
Au 12.837844601984484 10.513068524844128 12.560891864410104
Au 11.504683878577922 8.373319984869077 13.805176599149142
Au 7.6734938216876145 10.132154470154873 12.399829677493493
Au 10.22082207533203 10.718284643338546 13.463316117623297
