21
Energy = -51.47777596 eV
Au 13.375563060231483 9.927307394338728 14.39581257294994
Au 13.695209092815828 8.891023792275869 9.860031571236764
Au 11.100851563552334 11.219700867191232 13.516450979279087
Au 13.940951986061894 12.511934592597935 13.892602794877586
Au 12.211599448264346 8.84186844547344 12.210882186438866
Au 13.812763821669684 11.640135237507273 9.330759948967929
Au 14.317606470362968 10.669549967132411 11.852685273677206
Au 14.238793647475314 13.391544423744747 11.319941535345409
Au 12.225876514098683 9.99652455915927 7.769448390628394
Au 11.826855231280346 13.830207657610785 12.790292128570242
Au 9.667230854904727 12.787418029056798 11.580285304615579
Au 11.766090260715051 13.594751733133 10.041664469509334
Au 12.045126843704816 12.707707821544686 7.500464127309092
Au 9.556538589747195 9.311475105393257 12.027144693231968
Au 8.310623412487228 11.277772875017362 13.421215022381224
Au 10.96803680109745 8.651449276550645 9.759814965617085
Au 7.637828700845189 11.727259870759628 10.224553450160572
Au 10.1331446561067 11.443429623751008 9.102737404619125
Au 6.76891279507243 9.68879893640392 11.89646702827417
Au 8.384302082048945 9.1630224334688 9.437363542462316
Au 5.771523588927007 9.830797691643316 9.381504524124884
