24
Energy = -58.21532447 eV
Au 14.920205465499912 14.142097651779373 10.506573429729242
Au 12.611635618001076 17.654729144984124 12.307605014694897
Au 14.50914179761237 15.797073499025881 12.623505341812681
Au 12.747156850304235 13.665875014232864 12.516404327812584
Au 12.920078600948605 10.540855721214587 8.996683609879844
Au 10.555370503515725 17.389396627494932 10.558169973780247
Au 13.45706993233285 8.009439736972046 9.801076906249753
Au 12.603896103289815 15.648114946271193 10.335356780014331
Au 14.293849111803523 11.590128060109318 11.469530961738592
Au 15.286183842341682 11.972187032771645 8.92924572994993
Au 10.808084474205337 15.578784309956944 12.62005691760677
Au 13.072391939844534 9.3531447527709 12.265974173583846
Au 11.86375191549769 6.824137577586224 11.616965909097189
Au 12.593315386549058 13.222577340929874 9.21135734112236
Au 11.582013342286038 7.829698076229455 14.154025473607948
Au 11.067046630290209 10.535228666296453 13.736134140461646
Au 10.895324857185315 9.112169424332551 10.222734572648449
Au 11.370690840942283 11.690349600178774 11.171620114409743
Au 9.400365430037382 7.739055855080775 12.2799842058038
Au 9.200671150474491 8.75087950071628 14.967041103039026
Au 10.140743512202157 13.129931945403099 13.350248577908934
Au 8.973220993937135 10.422552798599007 11.631120223210823
Au 7.129103053255145 8.948606910452297 13.184727803119962
Au 8.3924315863908 11.298745406654776 14.188773670161968
