31
Energy = -79.58897619 eV
Au 13.474125994342476 13.330828413638079 14.267626003260725
Au 11.56966897928405 12.73331398377319 16.241439252669462
Au 14.809352655578243 11.177764465034363 13.16973041154304
Au 12.42533900478731 15.255426239698929 12.546139036075932
Au 10.649433197990838 13.582961286269652 13.800934088681649
Au 12.41096758752939 10.700004150947144 14.612041805142454
Au 14.46239921889583 13.67371591976764 11.604172350685037
Au 15.500838857597245 11.408339537012338 10.49038938473942
Au 9.61741064387969 11.238609868787236 14.906695747780242
Au 15.596483462906116 8.915011684254768 11.445205050651085
Au 12.23802614200801 11.834733546318308 11.974412597719693
Au 13.151757217518078 9.057101424469144 12.52649811160261
Au 10.42012128795117 13.947983277230783 11.082676726938475
Au 8.716096414545403 12.203507852486068 12.325373063990618
Au 12.590992820252774 15.102306856892215 9.811897664896042
Au 10.484364240177506 9.374472143817272 13.001413294240596
Au 7.7863276456267085 9.869836199917728 13.377226554108155
Au 13.238509379544675 9.734231177378579 9.759390209563437
Au 13.543630396859784 12.635964569252883 9.139882329931423
Au 10.923823955443074 13.292333185074876 8.42383403344063
Au 11.384172141359276 7.8626848315823095 10.836547618518093
Au 10.530984733955751 10.817574407634439 10.179192933972848
Au 8.412459912723337 12.735864915089202 9.599087574136648
Au 8.591692331377086 8.152569989222147 11.385577968753072
Au 7.098620299197149 10.492728628709633 10.801491968039707
Au 12.235521939995364 10.97884174226393 7.438766829014893
Au 10.960064137272708 8.70363455847229 8.224131373236673
Au 8.128502437609336 8.865123111761386 8.678332968570125
Au 9.511092271996034 6.621481188567575 9.296410047199453
Au 9.462641574553482 11.104219477237887 7.505810459326383
Au 6.753626374177152 11.126644980561547 8.154186159085333
