33
Energy = -85.79047955 eV
Au 12.238019592788095 7.663222726717605 13.47206966123299
Au 14.4682653456168 9.324041039313384 13.501487434568864
Au 13.113439247373508 8.724150476562267 11.146675491772175
Au 15.071843435144308 10.70417824910591 11.081925836923869
Au 12.746623710823963 9.04002744904181 15.73568152736241
Au 10.320481629775808 8.81659257090122 11.933372662253715
Au 8.489502224700718 9.845933864359496 10.161799511619442
Au 11.119920893519485 9.083757164240327 9.33799503532678
Au 14.58738961068053 10.990568377233913 15.798955325905826
Au 12.273762587982239 11.608419603504613 10.632650592270794
Au 13.737273025502775 9.984472230320431 8.762034303694097
Au 14.533605330410323 13.413427833707717 11.85338397647232
Au 10.258600346791678 9.422321024215009 14.623838283669281
Au 15.846769764795651 11.69853226796016 13.497271738775247
Au 11.865816813767578 11.652619416699604 15.803888738895754
Au 11.010403679111365 11.680507950641944 12.916273898205873
Au 8.359018550173978 10.67024361423002 12.777339780057597
Au 9.212802322057346 11.90322725008001 15.174170152280281
Au 11.501083550296501 10.570299161374916 7.028242717583623
Au 14.460147788003958 12.832920723091629 9.201564014718038
Au 9.095066596834725 9.30591914977938 7.536714515185647
Au 11.02898872066582 14.015540016702944 14.487883165575388
Au 13.73266843975533 13.285250738021166 14.509979760353728
Au 12.92107068269758 15.380349254228758 12.968722330867891
Au 13.860853380444274 11.899527894409577 6.728858735355795
Au 12.476927376411846 14.548375720420866 10.389873365482392
Au 8.606467771795137 13.52218077164834 13.111869361006022
Au 7.855635723016172 12.455829178152277 10.65362594396991
Au 11.845383968704656 13.194639177814082 8.085123416329715
Au 9.383403482971527 11.88329862212392 8.392339353643194
Au 10.396529349922712 15.490425569259372 12.037593002852294
Au 7.8107801617489 15.18722689967357 11.133807629879177
Au 9.835756647190248 14.266275765940282 9.587290487386653
