35
Energy = -92.13110919 eV
Au 14.95220912126189 11.528493945558386 8.336344324247998
Au 13.582122447917222 9.431828707806998 7.190593384702662
Au 14.57685829790974 11.813911014357972 11.035969741043745
Au 14.34312493904814 9.258558470035544 9.818387560361412
Au 14.809703820314644 9.475200917480253 12.479639556339684
Au 13.427388122545345 13.62190762447572 9.260528376749205
Au 12.433636990176968 11.96246276476212 7.2719212305466945
Au 13.356619784203446 11.55631095867263 13.510922791332204
Au 12.858663474656813 7.750736930333471 11.566937910774541
Au 13.019668820298104 13.864938459250995 11.980461066378258
Au 12.124757378721231 7.7890252716085655 8.905753067217615
Au 12.717787904306519 8.940626441843653 14.15682469023395
Au 11.797413584348723 15.608020086206732 10.241297429491318
Au 10.872580669998488 13.995318376858087 8.194959715131217
Au 11.655822841632883 13.570672582334604 14.365766236871458
Au 11.139810611070644 6.774869593327128 13.466500473218325
Au 11.094450667400222 10.99179652506783 15.038895540112767
Au 10.224385737045022 14.649387787208374 12.320358699068677
Au 10.873907087155928 9.587852260342647 7.106277917920711
Au 9.775396756641078 12.051468939056313 6.607808756969743
Au 10.734027793559786 9.982145368568546 10.093547733440307
Au 9.025420963148958 12.693496022030466 13.946891798759014
Au 10.87586667047886 11.830696654792973 11.916777655518256
Au 10.32499018437475 8.366940862232452 15.520259934965667
Au 10.203489105430915 7.2064118333009874 10.966019335759112
Au 8.415486416823684 10.279428723878342 15.093686770194692
Au 9.082301838788371 15.270833752587599 9.889089624419489
Au 8.219091392941769 13.004662514678921 8.65450920428252
Au 9.364381311617638 7.707073518497387 8.432725203762148
Au 8.367531603202535 10.270212780610823 8.157411441305271
Au 8.837335525247562 8.333565644355136 13.130768687006485
Au 7.996192246353079 13.237139435921184 11.422143484749713
Au 7.549729481154912 10.744978467595727 12.567126058657081
Au 7.998622988053339 8.88202693221539 10.569394595498403
Au 6.642938527532616 11.240714937507564 10.057215108331032
