35
Energy = -89.51701486 eV
Au 12.411784316030818 9.439637330032573 9.233882688898015
Au 7.755650743596796 11.36106625332697 13.250705732388324
Au 15.251945092124053 8.80176551007225 13.543379599683316
Au 12.361701022820382 12.331118418258805 12.898188240880764
Au 15.339858404660852 12.156128314491212 7.874810699387048
Au 14.252600936548754 8.392736994159591 11.059101319332585
Au 11.916844096820824 9.690612173502949 12.021423392826982
Au 16.177909148957617 10.050208651855627 6.397250047885913
Au 6.815850931179802 13.596607266434393 11.814153320951005
Au 11.542042965465408 12.377565610788876 15.725321383910778
Au 14.223391205401523 12.298842224434345 16.040941808275434
Au 9.944209042680598 13.160645514069268 8.416208017745408
Au 13.481880153606626 10.435267532066012 6.7116365871888055
Au 11.303381914078068 14.972263695970895 12.767867784415747
Au 15.06084018606999 9.222400558500139 8.688898687749049
Au 9.678574414131743 9.604301734098673 9.260517064461895
Au 9.367596570115861 14.341061882596714 10.899547710122476
Au 10.90575063895448 10.810823992695003 7.185541710816473
Au 10.25156857785533 7.740857454754651 13.599398864330192
Au 12.90035645524469 7.532132144030441 13.361129086635087
Au 8.853913868963328 14.444328060148612 13.598540155131724
Au 12.663670328156591 12.823256399050557 7.979007014905438
Au 8.88853865974009 12.475486997953654 15.548418638292704
Au 7.333962762047255 13.730049812261292 9.093507826214426
Au 13.062521897351871 10.173345015267147 14.622068625480592
Au 15.520791741545969 9.96680238552527 15.941005678438515
Au 11.180114406132954 11.774911920823945 10.482597285094254
Au 11.988332155716826 14.454930959895702 10.07563731886642
Au 8.140285033656829 11.532360005174143 10.453343701437982
Au 13.946270988863445 14.619787467605853 12.038277139766492
Au 9.050138099978087 9.436952288084537 11.89604569720977
Au 14.641390335866681 14.140898271357528 9.478612525899928
Au 6.493570803235569 13.425201387927695 14.558336735832754
Au 13.220613483990471 14.367871321013444 14.65588845399447
Au 10.250640349086511 10.434646705904397 14.277570886065106
