36
Energy = -95.37045305 eV
Au 7.995077063265091 12.559653012072419 10.190282436445836
Au 8.34452174359892 9.935231516874929 10.858954901843942
Au 8.092093569052523 15.319515103883486 9.632670848859206
Au 9.501190311228955 7.426083144336958 11.521412248103221
Au 9.921245436148077 13.70957781744954 8.370768246416795
Au 9.808366834677404 11.007402670400927 8.566017340830873
Au 9.656336331226512 8.359503915528387 8.873283510454552
Au 8.326537143943703 11.794842695785835 12.91417086760785
Au 9.758499439028592 5.675909321742015 9.440991516809783
Au 9.465338769204752 9.285771216592979 13.446004307016604
Au 8.551145386664428 14.495392465669866 12.189083912367348
Au 10.773557921735568 12.787546504534307 10.926821647146436
Au 11.16881058610021 9.995538740526367 11.077105883544755
Au 9.712169114577609 11.216669678124921 15.394632675422814
Au 10.597171333818936 15.707039673899033 10.6827454191001
Au 12.04380662325462 7.856503336651548 12.737804389363058
Au 12.299859892385689 12.277800262815761 8.09054399929627
Au 9.046000061281514 13.8247064508201 14.740034983247503
Au 11.501186164917854 11.704508501460129 13.327691308005377
Au 12.323455088772974 15.033517420224621 8.649702369640938
Au 13.445456937995631 11.474118036910468 15.480233649637578
Au 13.31896371266934 11.828517965846125 11.28125134403448
Au 11.964248844556186 7.1589711582028395 10.002569228147516
Au 11.18536595214711 14.92978739065697 13.289404013721777
Au 13.682637840516875 13.848630236299 13.878960325441362
Au 11.773679845520853 9.342110375038983 15.02762365648458
Au 12.242638440108566 9.528008454780505 8.461460171031444
Au 11.567768728719326 13.448238511217486 15.654108132265076
Au 14.53751723812232 13.58234931735963 9.270631876785906
Au 13.930550755028626 8.822894641691974 10.728301753793136
Au 15.538445974481325 13.59499395881817 11.803377512711144
Au 14.092251031329926 9.603461923569652 13.427891862661156
Au 14.616402702083617 10.85914039642941 8.898695297656786
Au 13.161316672122616 14.971665241323628 11.33868800849888
Au 15.846151216122811 10.667705199427806 11.419868653043592
Au 15.649269855673163 11.85290808179362 13.915067793728912
