36
Energy = -94.10437412 eV
Au 8.916782292192977 13.8389539588354 9.059797727938223
Au 14.264458039432995 12.483719970286755 8.601989784777908
Au 11.33346781528532 13.974564140566535 15.331513507513984
Au 9.832016855289666 15.226615508180577 13.43813690379023
Au 9.068284624472087 12.626842748951745 14.129176789372597
Au 15.173388382978668 14.190431208352528 12.725238661999688
Au 11.420817920058054 8.574102228927055 15.050954304495384
Au 16.188607974578687 13.12714607216537 10.413600173096128
Au 7.739167747040506 11.18615660357416 12.195765783647964
Au 9.648868264412798 10.283109450472374 7.53090159487426
Au 12.521259179842044 7.445730221731266 12.821855902866806
Au 12.642258655638805 10.492205896663663 9.700491405448549
Au 13.498169743161233 9.928162199780317 13.867907718425615
Au 13.616402131333958 12.646706921052814 14.446546937120408
Au 13.555371068679868 14.366335110759143 10.475199902326855
Au 9.42188960549919 7.140854835798795 13.84933610089728
Au 12.489187425909208 7.60520683711339 10.043754532819392
Au 12.532060890120537 14.88941230103588 13.014811916048696
Au 11.088413195619298 9.677674253552734 11.974548641950578
Au 11.280625658531896 11.271799534280634 15.109756522186169
Au 7.7996134028661395 10.189210101774501 9.640435126118742
Au 9.91294743358314 12.891514770009275 6.678042966162834
Au 10.808508958468737 14.808219265533166 10.838039886963587
Au 9.02389657025482 9.85712808900841 14.244275206506394
Au 12.420328468926225 12.1338708403508 11.918176532286807
Au 10.32702881633063 6.457812758627735 11.377381347662592
Au 10.09412099855789 11.743636184311466 10.512396449333574
Au 8.315655870037439 13.769043996273949 11.694514553578516
Au 9.828726886651976 8.246066631238245 9.348903621321982
Au 12.23437133650046 11.451948955174233 7.077276712460512
Au 11.976788659526285 8.772744671020673 7.627209531618655
Au 11.749543034600194 13.796268250147628 8.488802403641182
Au 15.185764023895423 11.44757255720202 12.305189261876299
Au 7.445453320081144 11.957700863397845 7.657345623803984
Au 14.373945046848679 9.04915055263827 11.384127660010204
Au 8.403204750467948 8.549826894446822 11.73872944196266
