34
Energy = -86.81181554 eV
Au 7.695745654854859 14.745928030158105 13.606729831269643
Au 13.37519662979088 11.807456441309444 9.073048610818365
Au 11.214289299927751 9.916938367375641 9.31232653343026
Au 11.602421124706293 9.662075018014358 12.095059730605529
Au 9.34022788781411 13.34451155010829 15.306496178721492
Au 12.518996657736162 10.461176422257783 14.556494120260943
Au 14.946160887749832 9.46131842046205 15.374137785147296
Au 13.094037363291829 14.834214849699057 12.603351857095046
Au 15.807983219582262 14.861341042475239 11.968078047101399
Au 15.883837170773702 10.495776571354142 12.97479872777695
Au 8.628330564784694 11.762734685770493 17.293265296058067
Au 7.970894528675749 11.941901885004588 13.208310965687794
Au 16.505340397649597 11.763758980609884 15.375543581065932
Au 14.684688208563161 9.84705419037243 10.572534882290128
Au 9.83301813638586 14.017403898782753 6.783167845323685
Au 15.795143645423956 12.321212410109544 10.829926511770736
Au 10.455951805033777 14.914862215306437 13.218491188547361
Au 9.293728097248367 10.834319643300216 11.036619143753075
Au 17.38933899994602 12.832200339584363 13.008183309704949
Au 13.969393478599837 8.48969291199216 12.993079746536997
Au 14.950678172215605 13.778629991366723 14.380843742114374
Au 10.77006235553461 12.07538017469167 13.148372751111543
Au 13.305951457585257 11.97229591276297 12.095430539959482
Au 11.22489937621549 11.78066642432018 16.672095180797292
Au 13.924464772866486 12.059087702703078 16.32832375807112
Au 12.076269125347677 14.057909692881433 8.263559867246983
Au 13.968945685960446 14.337824701882669 10.039781274575043
Au 9.707721820073086 15.175973529633088 9.22316669521824
Au 12.891873347240812 7.790156874912661 10.558800405797081
Au 12.230918031172308 13.757639621146664 14.98970217541542
Au 8.776123533748601 16.210945281158622 11.494378724807788
Au 9.956592328852434 12.243767729583084 8.808512864398942
Au 8.78521496104396 13.51346352856614 11.166093220061907
Au 13.544299064616037 9.133874925610908 8.17324192895339
