30
Energy = -70.84621001 eV
Au 15.306336412880347 18.939880956104737 9.459971403692212
Au 14.378178001398656 18.334407296373797 11.917049695703488
Au 15.081168528999287 16.322570060925447 10.217612319185289
Au 13.511624788524571 18.23383437137789 7.447826948714831
Au 13.577218326811757 20.784048287216645 8.311211192421021
Au 14.18293913422079 15.682712212634971 7.620546625711648
Au 12.397386115609278 18.999230941586593 9.975867141629509
Au 13.56730026049153 14.531822274783446 11.711231901442424
Au 14.8361767234298 13.69613578616843 9.42622382086759
Au 11.79275558312513 16.497849249256895 8.803715492857243
Au 12.039321489568328 16.85241890841646 11.551169156224349
Au 12.718714887738471 12.08148099885248 10.142965554469699
Au 12.186268528189999 13.815355756035116 8.182179398623095
Au 13.065627791253961 10.332146681247295 12.10498492488105
Au 11.645504197156146 12.770740126954836 12.620218357947197
Au 15.077912131424135 9.805150806536217 14.160690782979138
Au 13.032631111275503 11.58234548274462 14.651330327650397
Au 10.975913042915762 14.487192283328303 10.611821235436587
Au 11.677456676735494 8.089844266132813 11.371823757833331
Au 14.447478731838531 10.65119305919276 16.747006461524474
Au 12.773925809683217 11.229766407115852 18.72952528598184
Au 13.737621322979612 7.697781384342701 13.06938271044509
Au 10.281507068179941 11.350292201638025 14.537276243960715
Au 11.393143384318765 8.902017177263385 13.992324475598506
Au 14.268061733937806 9.591896816332152 20.53722611390292
Au 13.523152348767068 8.030617906672484 15.754591416168319
Au 10.051248268230122 10.687003449188028 18.725214924245673
Au 11.479195105447909 9.889237643827252 16.544973330141556
Au 13.12734123580998 8.448827688802025 18.320341960438036
Au 11.608156591292053 9.423464851182619 20.494962371557488
