30
Energy = -75.80321046 eV
Au 12.639535895870281 10.829265111028361 5.724574339061793
Au 9.93011896956547 10.521723870854364 5.70192132916416
Au 11.387250141281617 8.8950433151596 7.488658847054629
Au 11.219243635562686 12.924234528813317 6.919944410213651
Au 8.903629768791212 11.826130407921001 7.912672140197061
Au 14.11034625899144 9.145961929361361 7.386080240449478
Au 8.445836830883767 9.024334034403664 7.363062753616163
Au 12.931114960700572 11.402336574303233 8.444955181790604
Au 9.990722315328215 7.566475739117133 9.35546679886665
Au 12.95767924645836 8.943620505891937 9.916865013878008
Au 11.00347236652519 13.22652845019032 9.617218724493487
Au 8.226679621637883 12.664555856923512 10.391752376314571
Au 10.551271195277272 10.394462864793157 9.907830792925829
Au 7.097173662743259 10.301648042033868 9.411204299588439
Au 7.2333679005748435 7.560292513932489 9.315722542544757
Au 7.815768066878276 13.226563051141506 13.085591310528052
Au 13.075975094284823 11.66132071884488 11.088795958964184
Au 8.56867372265362 6.594811980262708 11.582079463442561
Au 9.743649211871814 14.567352775733863 11.719915705274861
Au 13.54432494844743 6.985795419887375 11.71408049698035
Au 6.476613090987665 11.100763225900943 11.977238196304622
Au 8.625188580638856 9.382261942112866 11.55886576659803
Au 12.377986002481729 14.089335635344822 12.119031022647999
Au 13.300708887555107 9.477803393041661 12.746686957332628
Au 11.038243017553091 8.018926884352135 11.891684746984277
Au 10.34261483641274 11.850648016429266 12.29261495669583
Au 10.977081213905091 9.93227502068665 14.256143680924987
Au 9.070421749512896 7.976242441646413 13.926234792516073
Au 8.327186710735802 10.683126014727083 14.068857750058655
Au 12.804388499409617 11.94242613868224 13.830515808108817
