39
Energy = -103.34388306 eV
Au 9.42323240601077 7.298229423420858 13.8497724630136
Au 7.465496184244614 7.41939723061987 11.92231121671327
Au 10.513510637527242 9.623230841794095 14.881357997608848
Au 10.218660792766416 7.399969654578984 11.178852926830611
Au 13.192913301683749 9.141670697199237 15.408587668447954
Au 12.089151422670593 7.691368649057722 13.304436634511868
Au 8.196850427837454 9.789770731936352 13.39612995256281
Au 6.290988978492333 9.80740618429661 11.328795178397755
Au 9.626113817211781 12.158236488012289 13.970096003864429
Au 10.913908746429104 10.065525846434296 12.122400750754236
Au 14.318229778368226 9.283793227292644 12.852841260349013
Au 14.92513006128845 11.150329094313063 14.913758749643188
Au 8.375402498233873 8.907603091878705 9.738743572315032
Au 12.220170093019606 11.759994260552626 14.859539692641626
Au 10.873351317276937 8.391476589791964 8.695485576143858
Au 7.5322001936516365 12.178127333484372 12.135735632545352
Au 11.437586326073234 14.317681620287491 14.023247149677516
Au 12.934294692872388 8.050962027433922 10.725167225226873
Au 7.140930940973183 11.390886351369248 9.266871019415543
Au 12.18307807755358 10.80629956143195 9.791250498481215
Au 9.315685656545188 10.562915500843786 7.748391434165705
Au 9.740250378629158 11.867842665824078 10.325980146414775
Au 13.565808905955203 8.809594749895384 8.166817332702175
Au 14.910758943185252 10.041102184633525 10.241278054914584
Au 9.451896135230674 14.263862160491128 12.114996288617851
Au 7.647936273828075 14.072704735238442 10.054629934397115
Au 12.097457563000093 12.56738702021716 11.894942346249149
Au 15.12980744227039 11.901964412262357 12.316505220165451
Au 14.190692386293199 13.697166368072946 14.283437934769257
Au 11.732461105208284 10.09901852796863 6.570235747481111
Au 13.40877920663945 16.236577891800636 13.543907478799234
Au 8.631213363210641 13.230950878039492 7.62385776148847
Au 11.311932105050747 12.68993474559298 7.4897489487779465
Au 13.859502502570203 11.620497080861497 7.73936171623919
Au 11.86739088174491 15.493364148058225 11.37490116254754
Au 10.28133288163442 14.659834189236097 9.33867308789324
Au 15.300932511725915 12.744868613781753 9.735180167365868
Au 14.500765028954122 14.555047666064999 11.59958418076844
Au 12.951741088979189 14.020952610771175 9.239734941939309
