33
Energy = -82.84992751 eV
Au 10.893329162766467 14.615027322079387 14.984247976371279
Au 15.180705903086594 9.870607860782899 10.4997366843553
Au 13.314771692707028 15.551360908845265 16.066737228898237
Au 12.866663411809569 12.862756401223903 15.84473983417019
Au 15.15882119200237 13.931549384030221 14.362662674501493
Au 16.325950690380118 12.131920403703726 18.79931914404275
Au 10.314951579158572 12.03393691451546 16.228877161876184
Au 12.598519248435494 10.9456395622672 9.268983217075805
Au 14.02415323680869 13.452357530075647 8.874726461261869
Au 13.435852733326469 10.50643962265691 14.679152841744727
Au 12.073196615226566 15.443646572284715 12.55621617193172
Au 14.944512610855263 8.94457665145358 13.027853307848252
Au 13.06771181640402 11.971129166299004 6.77847500847794
Au 11.11824167049234 11.987574051350762 13.550037757008372
Au 15.304022073524518 11.684821346477435 12.807679541756881
Au 15.230041033508973 11.06041794895762 8.12220491984509
Au 8.201951913962256 11.847940452626352 12.125232953267531
Au 15.22887033514046 13.901538794090257 17.164078821353144
Au 8.550762176778527 13.106662572857871 14.602976543499985
Au 14.603015401333025 14.332169660944599 11.60481618731231
Au 9.665625710894764 14.249382784838735 12.257423506032056
Au 12.767218984810592 15.531439174912709 9.92968532455345
Au 15.946974316318558 16.229911967060886 15.830232138140339
Au 11.944287306814832 13.092383048321796 11.057950318676456
Au 14.380878237193317 16.50010173797903 13.518567681460613
Au 17.16539021579654 13.68787708687974 12.460587012862542
Au 16.3086478266113 12.457090484797254 10.197535557586226
Au 6.923610889203335 14.130748268348647 12.749990092359448
Au 12.877114605017757 10.490662577219762 11.969156847650135
Au 8.037924885881786 9.568266318726954 10.840535612922414
Au 14.627034631915555 11.168381302610937 17.01390496378756
Au 10.396380034160979 10.770649336237788 10.882372390073996
Au 11.814859250292976 17.233024177162996 14.635295509916059
