38
Energy = -100.43149748 eV
Au 16.89544087677898 11.010238888418654 9.84589066045141
Au 11.893796571793107 7.933999600218909 14.1525121920064
Au 13.31904841733104 8.482911290078764 11.665469409899561
Au 17.132746618608746 13.738220025885738 9.92460519202808
Au 14.524106570141761 8.682831841758828 14.216649650763873
Au 14.421210999108157 9.900006623562215 9.458363637314118
Au 15.718797077172233 9.811795680807908 12.042698067307548
Au 14.723186087426434 12.70114910130535 9.090357619815064
Au 16.005447237289918 12.57528451495288 12.15831189665495
Au 10.615223271474294 8.026133469239992 11.676469932020183
Au 11.836519296134028 9.115838856120671 9.364560988635072
Au 9.377328621591694 8.996403960900388 13.97769033241202
Au 12.793020332081467 10.09037292145656 15.865471141800295
Au 12.220832704041117 11.783388340165505 8.564460193916387
Au 11.731786936242262 10.659082602917037 13.359781221051252
Au 14.920543522293903 14.908021552908675 11.01934694723063
Au 13.296797872462664 11.662351078705568 11.365809449780656
Au 14.640387451307348 11.434300945521187 14.227802190397384
Au 9.277847982716953 8.194296009836211 9.281580618453187
Au 10.500243748546092 11.28083122393265 11.048310670387792
Au 14.159922567337492 14.075692061017815 13.60497230894076
Au 12.559258091204674 14.326183783509265 9.715571793064122
Au 7.116912926226201 9.797643706284624 8.799911251907739
Au 10.139990114972566 11.064982252582094 15.665523070267158
Au 8.134461724261042 9.425760891959888 11.498247493883152
Au 9.681761707003586 10.797268468437778 8.362712938580119
Au 11.527738473093788 13.4428362054362 12.518578841350157
Au 12.364407978471101 12.782034759587924 15.420568272876801
Au 12.779692550260345 16.117093732903168 12.134720950209307
Au 8.482245335330626 11.509372131689572 13.275246072152669
Au 9.935085001119145 13.421604123829725 9.230840606731343
Au 11.945399606618997 15.361125244777242 14.724620745143357
Au 9.666198089200414 13.586616003367865 14.695353774042712
Au 7.776622829710722 11.93914531980664 10.338348929477428
Au 10.403603613101788 15.641479353318067 10.758479297876153
Au 8.587544213504444 13.902653645039752 11.97533762584139
Au 11.381623750519774 17.873372267867797 13.72894097105079
Au 9.529324292971262 16.001850140942487 13.371133614665665
