31
Energy = -79.72487349 eV
Au 14.346595574502073 10.372741199308656 13.791022199757307
Au 12.478727475383813 12.194473192849788 14.440135401939756
Au 11.73678712689025 9.463938157441516 14.359097478611073
Au 9.80645483503452 11.35937355615256 14.76502925969645
Au 14.782735288460875 9.779612205745833 11.13311051047946
Au 10.394841822926544 14.001965962179325 14.397027985676033
Au 9.223444793950222 10.925548320737374 11.914707056091272
Au 11.997693322566231 10.837458191433116 11.81026224649009
Au 14.285514368352286 12.437574191350183 11.91674522802048
Au 9.011418752842763 8.885309070168214 13.954439032938037
Au 12.613371635941913 14.423005493773454 12.830054482488656
Au 10.902409883902969 7.522339061862768 12.482647806681143
Au 13.533787542986904 7.912350673469981 12.839858599873946
Au 10.129738802389063 13.861445675265625 11.635753966404874
Au 8.028286796912061 13.006819683480565 13.272582801482917
Au 10.41106012887308 6.591436108044684 9.969476288311672
Au 12.534129112049373 8.426912559649699 10.210899461572627
Au 8.508175081014397 8.27989788432233 11.314683529060636
Au 13.494243156484302 11.260440557930892 9.263979080649756
Au 7.708188634868724 12.925703727488191 10.540470227888274
Au 12.506801904095513 13.75772150649173 10.192930435148648
Au 10.526937574174879 10.354113598790692 9.567963194445708
Au 8.425475443995342 7.944801172528076 8.606094370687995
Au 10.049157923964444 13.58361444670168 8.946236634939115
Au 7.523600174291298 10.326566777365054 9.585002946656681
Au 11.107920974613009 8.141008969750244 7.787104592682057
Au 11.956766561627738 10.568277525582044 7.061181772393373
Au 12.50594927273766 13.194168820086022 7.540408126888409
Au 7.750539484853584 12.449300351064709 7.867589319079237
Au 9.141263028778669 10.086413977040685 7.087707161552022
Au 10.062130442958347 12.561007148545634 6.385203134396356
