35
Energy = -89.19573775 eV
Au 13.388544841812148 16.79390645754592 13.259298239173559
Au 10.042330655601644 14.791906741226052 10.645737731298041
Au 11.710306469463656 12.643473246598662 14.980562294200618
Au 15.787768906761325 16.36374623411751 14.498454581230808
Au 9.130803888900196 13.275455439675632 14.504466704587601
Au 9.384833363002194 10.041050309999502 10.750550823342147
Au 16.942977573033456 11.21728743752178 14.928681515732377
Au 11.033652913124392 10.956515117654327 8.758378097994417
Au 16.29258692488199 10.245882916652304 9.528531577212078
Au 16.34009842770009 13.815962202977248 14.975833305263535
Au 13.466710504699744 11.824024440592176 12.62560449943068
Au 12.437725483872608 10.00609313038571 14.961850886324607
Au 13.68962302701477 14.584357939716941 14.862399665933753
Au 10.904263472266269 7.799665154573735 15.066315137674103
Au 8.66123820693935 15.613296165773425 13.033753371643325
Au 8.05730920603841 11.81843634805739 12.370948748989775
Au 12.745304580390973 12.6054759895246 7.367484487382082
Au 6.584798186940329 13.840833168400158 13.615747281770078
Au 7.370216330577209 14.15129618307639 11.008444080815437
Au 14.352926829360763 11.916661774532585 15.283929433430815
Au 11.060455745052735 15.260073262577112 14.448694729174086
Au 15.001691915105356 9.684193660106946 13.714468784247753
Au 17.86017677772657 11.993432739829645 8.283143159250239
Au 10.930983019192892 16.866199846516572 12.160860014893233
Au 11.875397882463245 8.841076440144663 10.432312346538396
Au 13.164148875157741 12.730229958702507 10.058103593907374
Au 12.85517813589693 8.064526787298625 12.991897324706702
Au 10.147567141922169 8.238534060425083 12.537663269158449
Au 15.272040040626505 12.446669393821942 8.155254161571587
Au 10.903545968083645 12.213390417570002 11.668816484086662
Au 9.960629494159537 10.623831326132363 13.936535927170208
Au 14.557445417605239 9.048037346930034 11.136621721006737
Au 13.655278761964738 10.203660049603554 8.818984192899055
Au 8.953791976640058 12.501889309597402 9.542570745235071
Au 12.529556374066868 14.456833460116213 12.068880125632994
