32
Energy = -82.08256948 eV
Au 11.031259908105435 7.512106896709677 13.505156461375172
Au 13.50678115772504 8.023894209318078 14.635953047641754
Au 13.183463740147454 7.208025406171305 11.888949571647554
Au 11.31539532297078 9.51764342953419 15.374634189089274
Au 13.866633514272555 10.731391067797873 14.61312977255331
Au 9.488441342975564 9.683726222156798 13.151518054103436
Au 10.851075605630093 8.575306091361227 10.943800560582655
Au 14.952515226126843 9.209798997922642 12.638522418723774
Au 11.604235766903608 11.406945543191688 11.273153555302489
Au 12.109660297145014 12.09233381756318 16.208109178637926
Au 9.70238363608777 11.68520951154136 15.036944284766081
Au 13.47835143845032 9.41741904386087 10.327563085020714
Au 9.00127684114355 10.560771334966574 10.47947786595978
Au 8.258317398027808 12.07494385937872 12.717102077753445
Au 14.372556411688858 11.838266107721234 12.083932958073788
Au 14.238767684358503 13.381435046950118 15.064837217614508
Au 11.946824911133426 12.981493674340715 13.509895942697094
Au 13.78684625105151 11.830954745331058 9.199394244464308
Au 15.078210347337164 14.543077568440086 12.72936285525385
Au 9.500258871068691 14.23318496684076 14.011624440604235
Au 15.492013162104836 13.799006890686515 10.228913531999948
Au 11.301443568670086 10.2664455819805 8.74218226484445
Au 15.453688093236615 15.721298677676065 15.054711496011356
Au 7.4305764700720065 12.902034939387688 10.245220139182589
Au 13.726277249104946 14.47120116747334 8.301488172451332
Au 7.598944231819509 14.849563007635618 12.172835677739176
Au 10.0032354111326 11.083484470019888 6.472498702934406
Au 9.559104835060664 12.657581521396569 8.63877197690565
Au 12.790446197437504 14.039525482173064 11.03378896132042
Au 10.026942076604088 13.844057701250659 11.259912005818439
Au 12.008023751347686 12.682731736036978 7.265591269075171
Au 11.094846940493719 14.933938942618058 8.949821679285312
