31
Energy = -78.72420211 eV
Au 16.993885967096862 11.887594627685012 9.627693107594343
Au 15.371728460802737 10.018124597719035 10.820364807229222
Au 14.963767136744437 10.704323964032527 8.096759058308043
Au 15.537788741645473 12.607266268455684 11.807272615713174
Au 14.526234131759477 13.172181376832942 9.194936087736956
Au 13.651734316487174 12.044454140123563 13.586434602034036
Au 12.160375246656082 9.952598470589944 14.815241639005675
Au 12.067390480039537 12.555612067678473 15.78803528364886
Au 11.070140769507377 8.039985391573468 13.204889175961908
Au 13.369982953002976 9.329165274873773 12.437700671586153
Au 13.17156232550868 14.037099560903984 11.457524407639989
Au 12.892891032990683 9.611861669240406 9.735328132000499
Au 12.424456154003872 11.321403972864964 7.452507527300301
Au 11.22179869925331 13.422081341053868 13.269750555428724
Au 10.585451561999493 10.568743880399097 17.024229032670632
Au 10.884493694777555 10.61664088963255 12.074808336757005
Au 9.397584878365587 8.392310990044454 10.991213981594218
Au 8.416340057720962 7.267523515225467 13.29577878770217
Au 11.756011608946519 12.124574326347332 9.989493298586286
Au 10.255500518506866 10.009381949973807 8.964310208504767
Au 9.420452195357624 8.83795484563888 15.329890565126783
Au 10.19378898698796 12.890682793963077 7.674119112705398
Au 12.2107982478061 14.51211525412604 8.674410039858325
Au 9.628580258911803 11.62432751087254 14.6598978739563
Au 8.028921799944781 11.087099869065405 7.7893855048918725
Au 8.09469505134973 9.990509984551418 13.088983306940369
Au 10.370649417736454 14.354998657653127 10.806731697131244
Au 8.735092865497334 12.538926763682984 12.185745584147313
Au 7.655892770937306 13.673223462853919 7.020124976805443
Au 7.754003808237886 10.536838955645674 10.419404037394585
Au 8.109932800524245 13.25797711579245 9.67041418832156
