34
Energy = -88.6833525 eV
Au 11.019010765995679 16.347390504283037 8.34457328309616
Au 12.695952202849938 14.357292354053353 7.4455872953828655
Au 12.841256252773722 15.16461853188696 10.108787989230688
Au 10.185270188868262 13.736178980012811 8.543374123902616
Au 10.091844382820266 15.471484370741928 10.771804971245365
Au 14.381672280950676 12.918042973221015 9.042179715452784
Au 12.072658245006142 11.700350199015194 7.962530071337876
Au 14.469466540698651 13.782090855485295 11.805109060234498
Au 9.497129334889179 11.143666462731543 8.802150802444524
Au 11.838580601843054 12.523751340209403 10.796187323462851
Au 12.083280549399158 14.717900356563534 12.719359998131653
Au 8.61100653848935 13.09580057140425 10.703712366282351
Au 14.03191457656548 10.192503968007458 9.337652948022663
Au 15.829820014743225 11.520686942590423 10.895680467738316
Au 15.654925005383994 12.050207055564243 13.539313794303744
Au 11.543157296599613 9.1221896536437 8.788493545441318
Au 9.332219020064256 14.349747019009138 13.138139485818304
Au 13.438156988204117 10.764000345383788 12.341910267452961
Au 14.690486269736713 10.202442581899438 15.295344283200272
Au 7.746196828643197 10.478556225667115 10.82996609666229
Au 11.19106471307222 14.196871840771985 15.215602464375298
Au 10.818538682951965 10.086708278367228 11.470487316736472
Au 8.85398971334082 8.552853966351535 9.210154179784565
Au 8.015150919328631 11.977333539817876 13.178893737134594
Au 13.278290359346927 12.53311573795847 14.942275841540926
Au 10.887971182236718 12.025729068987618 13.489876346305318
Au 13.956543001996122 8.238047434782635 13.567347621712276
Au 13.16598623464093 8.200114113207677 10.962982897591628
Au 9.424907298633824 9.652683297950317 14.188290976654624
Au 12.011188087839013 9.86937506090285 14.909417511801834
Au 6.855318343661491 9.494143956378021 13.284904048064483
Au 8.697691308537136 8.00316472138086 11.974839300550084
Au 11.266318150491514 7.773586758192491 13.14316598603731
Au 10.76941596512876 7.019922216981495 10.508829144229443
