38
Energy = -100.30262025 eV
Au 15.174090775220543 7.908357213916764 14.456527694022922
Au 14.463580240177395 8.68714954336643 11.841570609273836
Au 15.20545569731468 10.567868081379704 13.779128871495711
Au 15.620139654482138 10.979150735048092 10.93262664662451
Au 16.15869061683805 12.917097709121721 12.824478913748543
Au 12.670651646645982 7.3832815600599995 13.505655596204024
Au 13.632180377290476 9.480495618184385 9.253354156919977
Au 12.980027235390303 9.524157320198471 15.268617371611203
Au 16.766322338004443 15.438405458046425 11.896010260387362
Au 15.736840368009002 13.63338088701457 10.16083796704608
Au 14.658845196753404 12.914874705117912 15.17132976244598
Au 12.76504869404991 11.064065309728461 11.274370223466406
Au 11.772672054304241 8.238277407526462 11.060718778773566
Au 14.74620225306013 11.83403170452132 8.417933886497831
Au 12.262904654121241 12.44003476979774 16.515102245872086
Au 12.641334564660296 13.753101225852596 11.8608219483012
Au 14.702198913541336 15.250888647102586 13.6408409202276
Au 10.47883636096637 8.932208107137628 13.434249062973292
Au 10.4536312241491 10.604226199828794 15.552820381163178
Au 12.440988493736729 11.831506362830446 13.828528935485767
Au 12.050562090031212 11.788989162994891 8.133333155224106
Au 10.872437431968843 9.44447884732472 8.786443256867946
Au 9.32407621769539 9.687039871374 11.073997935861644
Au 14.201451661813893 15.940775248105947 10.844967765945599
Au 10.338337967577546 12.196474433375302 12.050215143714421
Au 13.29382566500865 14.197619211823431 8.902573559034165
Au 12.351381689299345 14.693374850499248 14.918196954576368
Au 8.410524109208046 10.733124742315603 13.654565636966542
Au 12.406340367342388 16.578421476291087 12.877301349931084
Au 11.330438938646436 15.781687059499967 10.437159401552881
Au 10.60695010153553 14.111875092523029 8.387059461339632
Au 9.962070585656761 13.276650180315675 15.000656926001454
Au 9.43497106246514 11.774129903138224 9.176402307856154
Au 8.984172245201341 14.240050184145595 10.606192573141714
Au 10.090606543851674 15.181443909377961 12.97731517717826
Au 7.532685860607697 11.857795819047904 11.142943540592753
Au 5.90380220422377 11.794851209011389 13.333413480583609
Au 7.882178474136745 13.652443754964821 13.279771811861567
