35
Energy = -90.63571444 eV
Au 9.402039288452034 10.081276029300344 13.541456027451938
Au 8.341144526282564 13.610892652272568 13.695322671277161
Au 15.461440781999219 13.196774561838765 10.78174731564935
Au 15.153299987972325 18.19428075359387 13.078779636182096
Au 16.430176002643943 11.164392881778564 14.12036123119322
Au 14.216505625964917 9.57811981947799 13.555801750045177
Au 11.124512826445196 12.175288739626952 12.815999471890986
Au 17.12036586265666 17.51481713239267 11.332080093208141
Au 11.894495146427346 10.176593729104772 14.916739603586757
Au 17.895013116035983 14.921567824963063 11.910515823266781
Au 8.349018171578583 16.302269473050398 13.401390727995912
Au 13.884636657381513 8.731915339492767 10.924790459985134
Au 13.328148765510551 11.441804129759836 11.216220853588517
Au 13.486732135416803 15.95897016176964 15.83560745878885
Au 9.837456801782126 12.038801244413065 15.478248348682998
Au 16.236023528435727 15.202799063126143 16.255690001268587
Au 12.020037242284573 11.858154429295574 17.08437817133541
Au 11.632407875596641 9.399097951893031 12.25216099071523
Au 14.151764196245963 13.545639011262812 16.921483772097684
Au 10.650993573452844 17.513825799191544 14.203866931629578
Au 17.675356275232602 13.799255261645241 14.363957833162114
Au 10.631166077827254 14.931662094552586 13.104954140599501
Au 13.057386038552304 13.985519351748334 12.054287918836163
Au 7.270364396800524 11.364627967879171 14.622667145101854
Au 15.941086118270302 10.443277980761128 11.47568742651439
Au 14.951986804044713 15.836643690618404 11.43930234398335
Au 17.22864943277153 16.5170250719009 14.035456672288827
Au 12.943403934531517 16.50867400410151 13.076327002298061
Au 12.193497457340584 13.723149816558651 14.975323507445408
Au 13.021721569050124 18.587331283123884 14.915740527540224
Au 16.81919093001958 15.400526398917206 9.475438086275743
Au 16.67650554930999 12.491285998673908 16.537139820569937
Au 15.52122458754426 17.811254485731425 15.807375600213724
Au 17.83149552178397 12.260006803704718 12.05855715239692
Au 14.37735598219489 10.974848950859064 15.893319391717084
