34
Energy = -88.2360546 eV
Au 14.656215798135774 9.737644379307518 13.776966629551845
Au 13.356547582867782 15.926937721140368 8.727177488435183
Au 10.322157034620764 7.68537682318515 13.957949378377798
Au 15.989832979145168 12.146090604419971 10.357360611077787
Au 10.035079764144289 12.686484701403328 14.060488132899133
Au 12.506329931304311 11.492010621942185 14.326585776736344
Au 9.236534529857472 9.95346711098993 9.389367607480413
Au 14.669978037827953 12.428089022773918 12.906393817420525
Au 11.191538199040096 14.097723542030423 9.531110121791476
Au 10.980903425400921 11.655348680040072 8.301586969028927
Au 7.390352679181607 8.178943922447479 10.361936216956561
Au 10.58458076477036 7.741815631557654 16.684877530977868
Au 12.104603300081225 16.08999637430528 11.247542814800932
Au 9.923550886857699 14.52289586081372 11.911148713328457
Au 8.932098237316515 12.640965167560038 10.066310456748901
Au 7.723071979209008 13.130249174140323 12.61030451792406
Au 15.287112139034486 13.766612810989486 8.370018500906145
Au 13.095290187085116 18.22517379485296 9.999750358019456
Au 7.8143195903755505 10.99779137191907 14.269463216820581
Au 16.832051190268974 10.73619325419713 12.497541541946472
Au 12.424749623237629 8.682156254236846 12.45718309527772
Au 13.70804791581093 11.403748477066546 8.843300576811322
Au 13.992770896296983 14.060723166415022 10.805892839243587
Au 14.45276138671256 9.915442156285767 11.008947359048554
Au 10.314221256919545 10.385124787502054 15.477362599633265
Au 11.973343541327484 9.550329053117458 9.869274795784365
Au 8.19625867393854 8.656267259798971 15.661162236329655
Au 12.343434625589369 13.83129029696063 12.939379418077266
Au 7.444161522290535 10.728446385150146 11.421839434781065
Au 14.417164700839244 15.331434596198651 6.33333839772973
Au 12.625071011503621 8.777805118164004 15.245106735854431
Au 7.792801684707992 8.423834762180887 13.012493522997572
Au 10.01903697322924 8.177267756869469 11.32140592960826
Au 12.699209161858878 13.438707260581214 7.262493943014892
