33
Energy = -82.87265585 eV
Au 6.943834093025401 13.57120019863915 12.895392521904041
Au 12.025773158170438 14.92573128852877 12.225082148398657
Au 16.055557016415392 13.19286188350446 13.592373214436769
Au 9.52226904651488 13.767083416520743 12.070906193732112
Au 10.585852841184883 11.101427679632993 11.757004193937137
Au 7.941159365359188 9.39227947534825 15.864374255327013
Au 16.45052756010767 12.58966809401313 11.090489753375639
Au 13.312687989182676 9.561806380311994 11.12293043942739
Au 14.162736862489192 11.92210326452934 15.142301453732331
Au 15.379477506061793 16.549788202530987 9.674995838099667
Au 12.84556123057445 13.140047071249427 7.822858910737695
Au 10.372604540359653 16.058125022726255 10.404392482598002
Au 8.71261376211226 9.149986362806361 10.684540831505734
Au 9.07670816352129 6.603313990642683 11.629371468772296
Au 14.810018722289351 14.797092518006513 11.700665760597298
Au 10.011872902691184 10.508674018130511 14.478221857794644
Au 15.204169688944072 13.96360472996248 8.924228626570901
Au 10.820203372677032 13.500559600163768 9.59909926150648
Au 11.70225210967445 12.666850452387049 13.747648364064714
Au 16.995979861819322 12.000525600741605 8.493700467121343
Au 13.678349416826917 14.60028133352502 14.265400994701904
Au 14.589038281854506 11.217548897218256 9.442820041664016
Au 15.562103135114668 14.030910939532477 16.131955168674992
Au 7.346920105936725 11.067115810015123 13.809533428011605
Au 8.32889969925722 8.554802306811476 13.322791045906856
Au 12.72436721211899 10.021342012119218 13.809309196535725
Au 13.594951762764554 7.607215064386346 12.981704565920415
Au 7.76145071004872 11.622688009167312 11.211587863429127
Au 11.944562497654232 10.963770289271825 16.302755675312532
Au 11.948850568820903 10.982622739868264 9.314133703787776
Au 11.026860692534141 8.324554245165944 12.363023217997197
Au 12.90457546446854 15.387257045514414 9.56831693233467
Au 9.2735196034517 11.264416854512731 9.002485182655793
