34
Energy = -87.40678283 eV
Au 15.026507968345681 16.452393615476787 10.036531343177751
Au 12.632250865646542 15.245837091832831 10.557973378819723
Au 8.229025391872423 10.380537036450997 8.548845212084656
Au 10.054333264492572 14.25099542375435 10.55137975762831
Au 15.50113502083198 14.027618867158633 11.141923271751233
Au 16.252201779962824 14.24640593193156 13.819994528865841
Au 11.59537830032175 13.557255231178951 14.856692560722065
Au 14.30872953262655 14.265542455131431 8.600039150521315
Au 9.494086421133618 8.44747673411949 12.96375325656173
Au 11.625128577046523 13.84090966575085 8.318286892389873
Au 12.92249487811173 9.79049644357199 9.934196525584056
Au 13.502413765484432 11.688210443745204 8.083117014040214
Au 6.4722104889650955 8.419900938678694 8.729596098225056
Au 16.11106795179783 12.452192247601351 7.785567567597014
Au 9.450601544948386 13.219041320470764 13.10069873840694
Au 9.768300084364439 11.630850757485497 15.344942925062108
Au 13.671660349622707 10.076007978382165 14.361130637724864
Au 11.119445217489966 15.361495021881847 12.817744385272848
Au 11.191393799616174 9.21497266137576 15.07989860954337
Au 12.17187950125381 8.660173271427947 12.440093788682253
Au 13.620429584740052 14.555422263470872 13.195411803711915
Au 10.923676395217404 11.081219531994826 8.46762228816005
Au 10.30275686792312 9.39413751350752 10.549930058172682
Au 14.730867115788081 9.39668023131501 11.93905812438028
Au 15.149799700730872 11.903412804291479 12.840143841361604
Au 15.393136241838814 11.375272971586378 10.167573295628475
Au 8.088520945601571 10.824362620031033 13.23814898930446
Au 8.9807663271456 13.001484733478081 8.299372769530413
Au 14.02490195145393 12.750272565755441 17.90526786394816
Au 7.587022336289021 9.19234060308119 11.036403816594314
Au 8.419945907388827 9.197721423486641 15.405585407339204
Au 12.327888231169823 11.318611230359021 16.419263684980805
Au 14.39137365140172 12.86720769825102 15.30105600716659
Au 8.623359852200164 11.924772053685876 10.83951064132628
