39
Energy = -102.59457533 eV
Au 14.785053534059891 12.0885231168399 9.378149692275978
Au 13.128745501354944 9.864046293271224 9.40342575409292
Au 12.28061768307279 12.035460215812599 7.940944207914847
Au 15.767385847312303 14.6267943152516 9.96165493861311
Au 10.104908363622908 9.915536095528473 8.677176063121577
Au 15.080597429912578 10.239311946438965 11.421256859045238
Au 11.226797052614316 7.967493196833378 10.113487968013066
Au 15.940714956371673 12.791550563575388 11.946889318835797
Au 13.733998220601105 7.84340638447016 11.185315043713125
Au 15.793700367322607 10.987125559379637 14.071610403613795
Au 13.738163795563556 14.416106497646794 8.201614076604928
Au 14.185549851104023 8.775288413105882 13.674443220796444
Au 9.570775600008563 12.652768167253669 8.11191087616813
Au 12.30825550294054 12.301296534121505 10.720879234091212
Au 9.431562094018412 9.58800647603729 11.349200963915978
Au 10.447662296318098 10.932082786063232 6.196964672665802
Au 11.190112233012863 14.542698017647087 9.211127263725421
Au 15.477023538617773 15.568502472971403 12.472070930735994
Au 11.560409075613244 8.541346808459599 12.825255805919994
Au 9.865804295253735 10.465672661944591 16.705845963145133
Au 13.244597850386807 15.593245699496688 10.71876037425892
Au 13.295000831633915 11.971032895132476 13.256058849022923
Au 15.38831058830721 13.694960515844594 14.513378257053668
Au 14.853777611298572 9.388228333944708 16.20881157381533
Au 7.854675236412341 11.218425149853598 9.783171633208086
Au 15.041847758922492 16.3850572018867 15.09297817297161
Au 12.128947113758025 9.73821045954114 15.317433524255518
Au 10.7000904858675 12.484453735963285 12.831337749393075
Au 8.904955873481565 13.728671265961681 10.515264687231173
Au 13.927151072254645 11.920439367967747 16.10249057135404
Au 9.60093084045439 9.99026071255471 14.034682353547462
Au 10.731772566424361 15.39820460457472 11.857038750391137
Au 13.116705764419839 14.602009361935082 15.825698680098649
Au 8.026047951943905 11.720440771711253 12.468877861295981
Au 12.862522797372737 16.034039549852842 13.408691318738853
Au 11.316287576004983 12.680703048049901 16.249158350320165
Au 10.617654852960209 14.83033164453079 14.63771835974674
Au 8.403760325844154 14.44332835136141 13.06203301893675
Au 8.869313586699885 12.537128730327133 15.049380580494951
