33
Energy = -84.85755804 eV
Au 17.07054163257866 11.20982471672226 9.050873919773183
Au 15.816220509345909 11.912190300900402 11.35361064309452
Au 15.317517239537535 9.600892948296625 12.702246415882062
Au 13.922803836297634 12.06890217736862 13.318357990083513
Au 12.508281224235297 8.476731888778808 8.99103565817972
Au 12.578874617526642 11.111115613421068 8.1465038132768
Au 14.772719089009673 12.596589493539204 8.810186109772616
Au 14.821420563227342 9.771035073800029 9.645373903272459
Au 11.875210707210764 13.89018764182871 13.095984479364146
Au 13.183655058119902 9.61867692752063 14.397605415103257
Au 13.851567796392949 13.819085201967068 11.16867433041844
Au 12.858107274229367 9.825450104786121 11.552964676748422
Au 11.720191417650879 11.931634338696448 15.041251191883074
Au 10.84088486241405 11.428339840870137 10.338188727478657
Au 10.178667683921848 9.816845281306657 8.00113130572563
Au 10.661854671023212 9.213090618191599 15.309294567957648
Au 10.55132409685697 10.581579124463916 12.913702987144159
Au 9.498776448584298 15.048891854729135 12.299700378421601
Au 8.912417872954071 8.223816722113066 13.508949133929448
Au 12.379345401074918 13.770843750239361 8.706156405785917
Au 9.33972273273319 12.861174214196687 13.948189656187932
Au 11.709147486793482 15.503858344466206 10.841191124562565
Au 10.480390764623168 8.598684615737291 11.078008346528534
Au 7.7052414765759725 10.787975196804323 13.225376703783397
Au 10.923531415199612 15.991131454337003 8.265707507308232
Au 8.537594858356211 6.681534869018644 11.106042985394092
Au 6.701187520986258 8.52680792473911 11.924185783203113
Au 9.601885602536317 13.991559711045607 9.509854859338535
Au 10.089972311939922 7.145296174150725 8.822879542686909
Au 7.995372983427944 12.931688831684033 11.454783066484945
Au 8.384017793133966 11.645568106869062 8.962420764913087
Au 6.395344035661786 10.894140380889073 10.682377323302521
Au 7.961360902675257 8.94508785576115 9.411954403935615
