38
Energy = -100.45291035 eV
Au 15.210418848111297 15.158430117784388 13.259168004809979
Au 12.648448315636038 16.005348662725208 13.781567427280347
Au 10.000781679184804 16.487800237895243 14.313786075324733
Au 16.415434874612444 13.243115885920991 14.82543821993462
Au 10.756706138110607 16.382445569272132 11.611928689248638
Au 13.428011724154135 15.777218250502418 11.123850742892591
Au 13.803534421303295 14.072458559792631 15.40945468664261
Au 15.982175698409558 14.57373205800553 10.669582036607887
Au 8.021233639551195 16.488406873986396 12.445225221245204
Au 14.927899465328457 11.82984389549328 16.5976451561316
Au 11.057219648889781 14.228070924561829 15.385718805995179
Au 16.653753337935587 12.333752891210002 12.267778745626416
Au 13.953453672088212 12.940723173136753 11.873879814895115
Au 13.950140182210983 14.264790790788657 8.877557906535703
Au 11.299237989282041 14.588181586765876 9.558981646198895
Au 11.328827449561048 13.703047681419035 12.411985753929905
Au 8.714244421161277 14.052627004279275 13.756020613215318
Au 15.434935395276737 10.643978373180744 14.09873824690471
Au 8.874800419237207 14.341682233986964 10.955390613182171
Au 12.135015066809238 12.164349570572162 16.75381771765386
Au 12.59420017150945 11.722277755165262 13.947863706885054
Au 14.074026070038684 9.21462084232906 16.06706864835895
Au 12.062427843888246 12.374051607580475 8.143694141062678
Au 9.806328897432222 11.761685732223466 14.856169125541333
Au 15.773806771245209 11.957686245098962 9.72894757389064
Au 13.441314666200787 10.447634627330052 18.41670137023908
Au 11.896549967415922 11.312601973313614 11.160448211809626
Au 14.880612057124697 10.006149702315405 11.525179394833794
Au 8.895266900302099 11.752807832496373 12.239945368791206
Au 14.638148175103124 12.101693769961551 7.3074398689251625
Au 9.702168504255175 12.176321006248484 9.513905726099567
Au 11.410933640472026 9.694228573106358 15.678376797792607
Au 13.279885142574516 8.891602655224048 13.494669419718134
Au 13.79931677456208 10.061110625040206 8.998904047170509
Au 12.351935266369482 8.62706191609036 10.914981859195814
Au 10.560056281572468 9.519046025795573 13.108913177815147
Au 11.11504375031607 9.806875259901192 8.596135561507532
Au 9.413867029810712 9.602656665510743 10.675406034647255
