38
Energy = -99.6769646 eV
Au 11.937878168619699 15.374438865532289 11.447821257656464
Au 9.45627767430577 16.500858310499186 11.873090501637021
Au 10.529442491325845 15.251867554060189 14.065435101524514
Au 13.170757911296644 14.511440342588443 13.783931910584492
Au 10.585152443131394 16.395222860864248 9.257442488407017
Au 8.153742300956933 14.13329384719089 12.492595062402385
Au 14.375624283028678 12.190456557864342 15.173483001990174
Au 12.410050237832225 14.34747322578666 8.774190770789225
Au 10.683731596950238 12.910565779602564 12.719162945902031
Au 8.43192589613135 14.87739277177807 9.80991470111211
Au 11.671042484064689 12.513078354479688 15.366793559278076
Au 15.705831935639532 13.564509923175398 13.194161414829935
Au 14.285073535731735 14.100830715649709 10.849033739311375
Au 13.263763326669181 11.954879375822083 12.55883840756564
Au 11.660623639867477 12.247804352240246 10.310420493888667
Au 14.101315722433139 12.005883380938348 8.896921559671613
Au 15.380123063388572 10.29648280088962 13.36494926925729
Au 8.985357871423888 13.020810304747416 14.966519837879655
Au 15.859755512671182 11.833660496896687 11.057359435032888
Au 7.769035087286202 11.428505775293958 13.03862792029139
Au 9.8480808285705 13.03071895789314 8.378230100789889
Au 7.848916897962502 12.327476210107768 10.315319787314914
Au 12.793402865251108 9.950329399502312 14.661828282871756
Au 10.026494064921062 10.36270303063971 14.726014412449139
Au 10.048312249322304 10.460325097905914 11.671775814518165
Au 15.470268952750489 9.174539142343269 10.816882188222344
Au 11.70979269252698 11.036675722953548 7.820876019252195
Au 12.63628095004284 9.769288358917656 11.017969818017063
Au 7.304923836024122 9.71250171719655 10.832462629506212
Au 9.20749398062514 10.30367129704114 8.870935441830879
Au 13.817005054567627 8.020619048637974 12.798180939400257
Au 13.778884598117617 9.271736177293919 8.491938971114443
Au 8.436315833803231 8.667019048812634 13.20787321190405
Au 11.11309947438289 8.187843913473102 13.25825290537845
Au 9.43951893605437 7.909113879528118 10.619493464926299
Au 14.468699071801277 6.87595782901041 9.744116795445416
Au 11.169514145410503 8.353584678402008 8.515473849329954
Au 12.007299383363774 7.027338149410342 10.879795072549515
