35
Energy = -92.11318482 eV
Au 14.334777761430459 13.202710641143161 13.492652425892707
Au 12.967211339789753 11.205368060795141 14.84067393619677
Au 11.68609963735068 13.557999755661193 14.09051178667229
Au 10.50079851367291 11.726865863632938 15.895375734954
Au 12.674829384608158 14.318307723080117 11.609004520090378
Au 14.864676147523296 10.56437197396972 12.936416896363546
Au 14.62031882256804 12.480772735088902 10.856076054763793
Au 10.75876150590188 10.903630924368615 12.440615370009409
Au 10.790470463108036 9.259652563666494 14.731647904370229
Au 8.98563528709153 13.59329100372794 14.574168047805781
Au 10.83238121775005 14.9631990715944 9.686610857320117
Au 8.48082571479898 10.857511898836893 14.190995881088552
Au 13.258551068219598 13.82311831800531 8.867344911833072
Au 7.7187461454492805 12.826172872462315 12.29970274812089
Au 9.963471795451547 14.627064480251875 12.232142052013735
Au 13.482700906005517 8.57733352390151 14.350958156447975
Au 11.515618895041966 11.927506171217658 10.113079874012753
Au 11.43251946057505 14.882409024231668 7.008560649107429
Au 13.871443302768164 8.220591145571682 11.688722062471706
Au 8.14009524203438 14.424493771954161 10.148004190364153
Au 11.403017836034055 9.17181268955363 10.389543872345216
Au 11.509183250121502 7.43153708379253 12.782203785226415
Au 6.948840655101869 10.251119993588313 11.956405468108521
Au 11.736592221664731 12.159671312410637 7.1078453034939155
Au 7.7567496000979625 11.706739657841315 9.726637090406253
Au 9.541156123687468 10.495583456871838 7.98812818516872
Au 13.897351793750005 11.113534572578951 8.520394022644078
Au 15.578231676562114 9.936120682736775 10.36476742109093
Au 9.364898271838465 13.210265724908977 8.027635111137581
Au 9.797868658027134 6.782927762283401 10.788819955287902
Au 8.939868010636674 8.522891570640114 12.749309486686483
Au 13.740404781735164 8.331828365582714 9.00221566184943
Au 12.008347151854995 9.476814295262143 7.260027603548039
Au 8.314301170309626 9.001629176233934 9.98631866241618
Au 10.143631647799666 7.788339623184055 8.260455041663818
