30
Energy = -76.72523896 eV
Au 8.662010050712354 11.252094490667199 6.84090894483893
Au 12.716574052992508 8.520437567536192 13.41356356669049
Au 13.508154900483559 13.29256245604158 13.621410152539996
Au 9.682621279226458 10.563600208735409 9.558776850332361
Au 7.198829247738481 11.811533280121717 9.263471832580715
Au 8.165820792561865 7.481368529590858 12.765410483965375
Au 8.783415658754198 13.400926565884367 10.929981161265507
Au 9.232170829057852 6.933288240945026 7.415787124942945
Au 13.56267119504749 8.378017458399714 8.239226581385545
Au 13.131042684121745 10.384243513137951 6.310855551218999
Au 7.258529443085587 9.91316468108984 13.606977026032983
Au 10.774034112592823 7.070825262327842 11.943165042020894
Au 7.106003119344261 9.459653176220792 10.899842406473844
Au 9.99707396065888 9.234564604427053 13.701184748807174
Au 12.537941851488368 10.832024944768719 8.929757548025643
Au 6.625890588798254 12.01160225765762 11.95329216219666
Au 11.822942386255452 11.195059292152552 13.789953540209742
Au 11.218293915925296 12.307549076418146 6.919135403618069
Au 8.436361991723762 8.845585526421756 5.6455706897918585
Au 8.70545772402382 7.382233339054614 10.076344128001818
Au 11.25867757628829 13.18636850372007 9.657930253780295
Au 7.5191129477683045 9.085591115557108 8.244986520781614
Au 13.134575233472768 12.004939238488973 11.308207896674471
Au 9.118047890895781 11.885337438863559 13.276503061958138
Au 13.4009112017532 7.5079901198109615 10.868978853153727
Au 10.809437989017926 9.236119716844234 7.14460161234363
Au 9.051992239131318 13.605925424122269 8.157421104791347
Au 11.283941956394758 7.2316699533422995 9.170397782654257
Au 11.03421556905418 13.62350618719636 12.441888493973275
Au 11.573842174016892 9.672812392841188 11.215064037335509
