37
Energy = -96.94104415 eV
Au 14.707831468467514 8.851469211308356 9.976638970174848
Au 13.829969426328343 7.320448767085977 12.095021753970162
Au 15.919561132617371 11.219757457068082 10.728977767864198
Au 11.089524616048315 6.996931034947471 12.148710698811065
Au 14.5858396511593 9.904772760950237 12.78789288134115
Au 12.421531977351966 8.878191532018047 8.341489287906228
Au 10.286099114639397 7.696633379471453 9.558391998856342
Au 12.3053306784288 8.73239599236087 14.000786028207477
Au 14.994582340172235 12.681560384469801 13.012467058721581
Au 14.225674015226648 11.038998251766106 8.356219242367205
Au 8.392875616371025 7.027209750012789 11.532449487008153
Au 12.928078920589169 11.47533897910737 14.409806516266732
Au 12.201468167014891 9.409420744820434 11.133310225159004
Au 9.417804771601118 8.422582332785355 13.878645117385423
Au 7.055752920887069 9.320351003231421 12.46185277886644
Au 15.097676304591298 13.500162873625605 9.447617931743567
Au 10.66873181144908 10.303966054961165 15.481605972625848
Au 9.514163938639433 9.859913521566382 11.36404159236972
Au 12.664566045690565 13.437188226813246 8.146162269597681
Au 10.802153140736001 12.091351865860249 12.316657214365737
Au 10.995105207233573 11.409244652091525 9.58817676937194
Au 13.198114824409688 12.089047912872228 11.05308367547031
Au 8.582832418288065 11.18066279706729 13.951767251723492
Au 9.682146969950175 9.732687408184754 7.748613004256012
Au 11.873172025111236 11.148225912447154 6.820786532760106
Au 10.591684361041985 12.993446046139187 15.030025223674594
Au 13.006399173708882 14.831833551068623 10.61771100170594
Au 10.574284333142971 15.433886736719206 11.710980753458403
Au 7.401532691747971 11.914974675281762 11.560897716706812
Au 7.6418629892333945 8.868980224829341 9.558722582862307
Au 8.708037651251283 13.87614373544775 13.033345387952807
Au 12.603390088579152 14.130848746728498 13.295683476623154
Au 9.879905363037308 13.003162645576202 7.633984883460717
Au 7.9029601513685455 11.526473406114775 8.900807854881673
Au 10.780674060030606 15.280545241612533 8.965092980756003
Au 10.435240828883607 15.630373894505205 14.442641426731576
Au 8.823694656870897 13.812509221676134 10.194081794467923
