37
Energy = -97.09366426 eV
Au 15.171182017150851 14.381164673457668 6.766152636954662
Au 15.393089770049125 13.75939440466656 9.404587092057241
Au 15.420394654873443 11.035798237011443 10.11631994157457
Au 13.94966316145603 12.109665339829045 7.648902147013663
Au 13.961410603686733 9.485724694877971 8.393252092349595
Au 15.26593374795898 10.358734760431554 12.820425920586251
Au 15.362118952514223 13.115932745669548 11.985206243376723
Au 13.796338177663754 8.736181509046398 10.988628185330356
Au 15.532048962634464 12.509409355074608 14.593163895591813
Au 13.60972117614029 8.201759052567132 13.62066845363469
Au 12.992532079162052 14.757957164925195 8.314507473252322
Au 11.789385379208667 10.474559746431638 7.021785553373073
Au 13.44723828943142 14.961183165427878 11.076436829961208
Au 11.450237500089173 12.477650944825447 8.995003786089601
Au 14.09276828146347 10.266591967434445 15.344299493540847
Au 11.440992091042622 9.3341774580908 9.578555255209162
Au 12.93881851064056 11.45565631105849 11.31242810124655
Au 13.795618942951435 14.583529517262424 13.738781837781683
Au 13.203931998377161 12.925106172453281 15.931188135338035
Au 12.017678127115337 10.66011949287041 17.049885583541503
Au 11.223855994972139 8.763961033920916 12.226684596354746
Au 11.36364533972017 8.895190815782192 14.972893406295949
Au 11.812229739674287 11.483815191395244 13.845040344260227
Au 11.61657583452659 15.095154018788055 15.324235493938986
Au 11.31409339500714 15.698428962766437 12.669182939948254
Au 10.8777170195478 15.108618013687066 9.897301039153708
Au 9.363708466940952 10.663320102265832 8.269819765638688
Au 10.830884205578501 13.001807323438584 11.848558690511046
Au 9.21109738096004 10.242313207519016 10.963021940615473
Au 9.149205180559042 9.993451585775581 13.656062092972341
Au 9.350638733884727 10.128737940944982 16.45842544454726
Au 10.425808920146265 12.739674135011795 16.130557241448642
Au 9.278338966584359 14.292139622339066 14.10885626103205
Au 8.76057578802234 12.85654926890865 9.79051673023844
Au 8.714206431956752 14.987280918985991 11.535203366056264
Au 8.04693676177691 12.307765024599918 12.412316280224752
Au 7.948960455159399 12.071077159085247 15.11072674758696
