33
Energy = -85.35958669 eV
Au 12.359684886891241 13.392891134469464 13.768879138990695
Au 12.728886360590947 14.610672563522671 11.334753356236583
Au 11.506880173476638 8.806354966024237 14.733128990625577
Au 7.549132122102229 14.429880642653965 12.333297965001016
Au 8.475701883495873 13.687859471056022 9.821674523460002
Au 12.793900264010693 7.351589108275719 12.709529934138217
Au 8.126839637600815 7.304155003199355 11.772924217789544
Au 14.666401624728728 10.5059116139345 9.613683495394627
Au 11.04247420625249 14.36746732764768 9.135327001930598
Au 10.21896088459638 6.720707648267613 13.469713478666023
Au 10.07349234140615 15.298691114343136 11.568477672843185
Au 13.157481118579394 8.077354910196865 10.079413307293162
Au 11.514702669450573 9.890885869113315 12.009909994196255
Au 10.7668221311923 8.536351197404 8.436693232005078
Au 14.136348736783605 11.490632519526766 7.0763945872645015
Au 11.349339935047539 10.508642098046836 6.655802343109388
Au 13.952975232187475 12.147149808906839 11.792031949607976
Au 13.256952874057122 10.82107475121611 14.185666712502275
Au 14.48256054925934 9.440320190340573 12.136987571207538
Au 13.445762061431852 8.908484345070677 7.545125713995998
Au 13.731473919366715 13.207210915085307 9.203112277411591
Au 11.834312840725486 11.024010470806585 9.459392009556973
Au 10.638002447374438 7.263454867059168 10.779466766472975
Au 12.028395318937536 13.188056057559784 6.92855201229163
Au 9.271106438092481 10.296781057479226 10.194442286464419
Au 9.59808247294106 12.125771510050257 7.970325551689306
Au 10.514222394382939 11.374016720023121 14.513900928854884
Au 8.94360862008409 9.223555002193669 13.608826621713792
Au 10.665099956570925 12.476025345403569 11.55371533801779
Au 9.697558812615535 13.945957264532378 13.979557221475963
Au 7.010875275252471 9.717007149458267 11.576133126458355
Au 8.091639100607297 11.791521452167618 13.16952548550839
Au 6.4980583616561045 12.26621295535255 10.959177079953664
