30
Energy = -76.36664628 eV
Au 8.890703520593965 8.619834864861339 12.94202820320496
Au 13.152791135977978 11.312557477600793 13.784584798887607
Au 7.962148497232238 10.906818900975091 14.090443505913903
Au 8.885683923085827 6.188585007012688 11.641555881867404
Au 12.207663485924886 9.125017412224064 12.430821777007814
Au 13.697577877832263 8.369089254596734 7.238305109400647
Au 10.636307241775086 10.510841100822313 14.253736532269597
Au 6.166349955526819 9.63883681360106 12.440695415188676
Au 14.508025051179533 10.41614165847532 11.430042259860048
Au 10.344585921808195 8.356381391635662 10.539768749308328
Au 15.674183741123613 12.162146970520933 13.214942657994166
Au 7.263616789684165 8.114727850734157 10.552447160610281
Au 11.007752104985508 8.392165889493048 7.809531775730567
Au 13.036130983478651 8.72033010362623 9.871928727114847
Au 12.404559814075062 10.802011006743028 7.240290154912756
Au 9.170249957681904 13.049245685268339 12.926523636834405
Au 13.759984178161663 13.13915223844406 11.677234806388098
Au 8.961223884524738 6.703156878591089 8.866544060734956
Au 10.26766851007579 10.930190038363275 11.529057273883508
Au 9.782278904724258 10.78414761378066 6.3718264269486315
Au 14.693545815886011 10.610655022128597 8.714816678739785
Au 11.04890334898321 13.551742526192891 11.030287727465078
Au 6.446799345214671 12.40169338353077 12.237010638960566
Au 12.985113659399197 15.242303438919476 10.23674017710131
Au 10.395888421490499 11.632167333687681 8.916334407494215
Au 8.430446748118236 9.354750699940388 8.353746792550409
Au 6.552641389362362 10.755563405222052 9.972777246082916
Au 13.020577069942009 12.808821059571981 8.980428276508928
Au 8.352122348442393 12.883550025326475 10.303442463879293
Au 7.693278182573848 11.916176756974098 7.800908486020259
