37
Energy = -97.10324406 eV
Au 10.476253187683978 10.703408042207634 15.787947519386051
Au 9.232924224149968 9.543120055783305 13.614963495558548
Au 8.203432954068829 8.571646708009803 11.22606368905175
Au 9.744160037310824 6.982902319608872 9.56053747686368
Au 10.668857165294645 7.578726422955982 12.165062576054806
Au 11.944503359473734 8.883179287586215 14.227610530618987
Au 12.249082763710872 6.292091775640162 10.264405991126052
Au 13.235581648071584 11.056680405997232 15.30862963400423
Au 8.807004482356202 12.391951507473678 14.264242867388644
Au 7.470609987417078 11.176308768932891 12.15746827681267
Au 11.205640924524138 13.424285963432482 15.392953531763004
Au 6.820741704429399 10.295851705846001 9.559051674919445
Au 13.482724111980431 7.754160203322593 12.30634119218766
Au 11.339901078229886 11.671166384207108 13.269050032127202
Au 10.154822531859232 10.516978026119643 10.98503434882434
Au 9.238361812240854 9.478011964724422 8.512088445103323
Au 7.995936469987554 13.925599106020703 12.201104552501594
Au 6.347641244963009 12.859586672233771 10.223752396654408
Au 8.166101759996156 14.757069862327107 9.496832106380564
Au 13.913193252704074 13.65024779577905 14.770321826423878
Au 12.89043478155819 10.389204125494842 11.436183821053396
Au 11.850832756847156 8.61913302669116 8.638812241950527
Au 8.680585495017652 12.177814718542264 8.64375947612282
Au 10.16955490938648 15.250524776236468 11.262215573350852
Au 14.917161953170563 11.610693632485964 13.187382287614565
Au 14.356863766450346 7.8825650607507916 9.61946227493172
Au 12.033672559271325 14.744786918108371 13.101431434667434
Au 11.64628446905964 12.800708114535643 10.855911727658075
Au 11.31147408671123 11.333626758204593 8.17323958328013
Au 15.47112848887346 9.57854673111049 11.461319036001337
Au 14.681854828359997 14.266418964047757 12.205453935984991
Au 13.929858973212992 10.454209605356278 8.738058454427891
Au 10.720297137175915 14.097040525999128 8.601572083066936
Au 15.278625711503164 12.171128220067317 10.466376424986075
Au 12.784288736864939 15.294845525657674 10.377631931458431
Au 13.376136278017839 13.158480538919221 8.518916692162964
Au 15.349621726014684 14.777889811472726 9.559695507594837
