33
Energy = -85.4586463 eV
Au 11.56535580198511 16.451629501555594 10.380180087259577
Au 9.834218853192413 14.769982635983284 11.569933290269994
Au 12.90870624365114 14.755355616253459 12.12836613355811
Au 10.831276867379026 14.2923716266049 8.758544021042663
Au 8.025470895855998 13.213569110214449 12.847669375633501
Au 11.05552802159924 13.451752928601813 13.735156464394596
Au 13.54428340750772 14.818104623123693 9.363991754189847
Au 8.64147473310279 12.923377788244528 9.759316022598485
Au 13.093499749243474 12.383737617003135 8.236461471913886
Au 11.764464800734208 12.553694202217967 10.820516817570553
Au 13.74094843832684 12.543300481904412 13.427420121472146
Au 9.254485697063739 11.797088374225492 14.966671113703946
Au 10.264980416248477 11.855434516542147 7.719542178185821
Au 6.86542635827838 11.282411407593665 11.091958519725232
Au 9.66257878380062 11.215821531037578 11.970622411043351
Au 11.80985834201319 11.02567595841018 15.077637027666716
Au 14.62122696998161 12.670335502798038 10.64159984476956
Au 14.302024330219421 10.105339734254924 14.568929388285737
Au 7.394121253622936 10.35926319544138 13.607715108309604
Au 12.258611033361094 10.289193933438632 12.334692507478806
Au 8.174226699370168 10.165034314274799 9.035126987982267
Au 15.20560344861917 10.409487227657351 12.000304299513024
Au 10.998740011931652 10.066725585478958 9.84831520773272
Au 9.868999843207163 9.185822512288839 7.14496120918597
Au 12.488826692785237 9.907005216145205 7.340418221024651
Au 14.152266863220728 10.048053675322686 9.50045947506913
Au 9.847978825225058 9.09990171998152 13.98934915046986
Au 12.398918920518943 8.099282026765426 14.05156599153241
Au 8.27670802527125 8.696203742058348 11.569104080112066
Au 10.91436789318455 7.60390241854619 11.770294460028845
Au 9.519798357335308 7.606553312084691 9.404058089481698
Au 13.737849698892878 8.053457483354618 11.510320062482325
Au 12.31493070321412 7.7340528313745445 9.178771227619075
