34
Energy = -89.13848016 eV
Au 8.564441270769025 8.341564984473406 11.16748671781099
Au 7.256507098699059 12.413435027101036 13.008433177591721
Au 12.415601808971411 8.626108515438629 14.881743618989324
Au 6.683476210919458 10.32883323804101 11.291368408945347
Au 10.11596354233427 7.8515163160308745 13.481099471682198
Au 10.026201089489017 9.839303997786448 15.513112537065913
Au 10.763443962053659 6.665604027419195 11.048025654128253
Au 8.210479752711366 9.867907556064335 13.517046359901428
Au 9.636657575226945 12.260025224046197 14.363955582488805
Au 12.970732568840331 7.406295826911246 12.48600753868192
Au 7.651141928992898 12.7603725957394 10.291579796722594
Au 8.173593846085828 10.098166141990134 9.037283178081259
Au 10.248320534223934 8.218468320172043 8.858849110005552
Au 10.18470030704337 11.789662567296311 10.683350285583705
Au 11.32763386175857 9.473462355435164 11.458727570778851
Au 9.265939606500744 14.09815848460203 12.317401339159321
Au 12.424684330873571 9.302639828855503 7.478686632467581
Au 12.220961874843454 11.387091322047507 14.855992633836332
Au 12.997461698532382 7.891406689576019 9.777545629798094
Au 9.710184165464424 14.574954411490506 9.63827853326796
Au 14.353889999126773 10.206271592298435 9.1228473406646
Au 9.900134894266564 10.09723437946943 6.891116485160382
Au 11.823550527388322 13.75780746024238 13.525475713828547
Au 10.954201285181973 14.22200543058271 7.088335218240867
Au 14.026118416750348 9.84765131426119 13.072282309645713
Au 12.834273181860453 11.709558178362231 11.126409104545575
Au 11.39871593697245 15.636581207079368 11.58047993265988
Au 9.175639540785246 12.414058823574813 7.979491595814597
Au 13.854424408844691 14.329619667124648 11.630045009703858
Au 12.355237781566169 11.968386550241194 7.958568825207596
Au 14.349548941872847 12.524550477227438 13.578291511308457
Au 12.481983010277528 14.55316536094813 9.273982336684567
Au 15.587669993494131 11.252198633880788 11.358605639921262
Au 14.683124693057483 12.945830795541692 9.307528191222366
