39
Energy = -103.15530351 eV
Au 12.828093943967149 15.862575166496033 13.702607981747366
Au 8.758478115875706 14.773042429580524 15.29458277991204
Au 10.193966170353622 15.509692414571381 13.01945193952711
Au 14.741023353020857 15.080253329569883 12.01406540865972
Au 11.437555095610888 14.00379114308441 15.167696976457771
Au 12.09997008957241 15.560627484029435 11.013136630495998
Au 16.646260850065588 14.211185365886246 10.21409986077658
Au 9.515931959021067 14.423397393867898 10.556240274395364
Au 8.087944708990943 13.661427555018214 12.886805866974587
Au 13.946720727981361 13.391779156146342 14.168105830750708
Au 14.046674997749875 14.40110774281317 9.380151949841139
Au 9.372999688487734 12.083766599970938 15.224456718338445
Au 10.703494300355556 12.427588286628149 12.775158901730288
Au 11.471897078099241 14.484529604263768 8.552467685800101
Au 15.817205259188203 12.57276660910366 12.277777626087406
Au 12.244275114181299 11.365436889147508 15.102691673212362
Au 9.508034893584409 12.609733923797924 8.362989821839177
Au 11.682640083958676 12.302172863257871 10.264354077441794
Au 7.868524454045931 12.171437448218263 10.623797558862915
Au 14.785251669275432 10.790864036203487 14.095644720385764
Au 15.35010994564541 11.894134966892766 9.533706447355872
Au 8.222478353431066 10.252920222445841 8.621708857558346
Au 12.643675606444477 10.565763238650746 12.093767752809155
Au 8.055340132937738 10.81494198981546 13.134529837165225
Au 9.992857418314538 10.179749813089423 11.124481229576757
Au 12.832709801399178 8.711897195850488 14.271456614529974
Au 13.095904394011063 12.162747040871709 7.910721647573231
Au 10.223997439422863 9.620539939336782 14.364441939357706
Au 15.508104429394464 9.948566237488393 11.471190299604718
Au 6.998771206024838 9.511985890534039 11.000577738944807
Au 11.088201106572207 10.257766437778502 8.157056414104053
Au 13.63399237197305 9.772734091868612 9.346858420050586
Au 10.940984788709578 7.803794696130164 12.46766031697549
Au 8.971426505990097 7.555788261338102 10.651945547362335
Au 15.44522375652917 8.1433972641309 13.612436085051415
Au 9.537805845586567 7.941881829398112 7.928822148968387
Au 6.902971898949954 7.771334592943062 8.847981693682245
Au 13.635279841882706 7.890678634329512 11.522042965661932
Au 11.619184609259559 7.968391551653977 9.708864020526349
