30
Energy = -76.07985377 eV
Au 10.4868333170125 13.268383900736522 7.054743575039237
Au 11.796946504798996 10.893293552788592 7.44202133710223
Au 8.978873764740548 11.005141976051124 7.199593414846412
Au 12.139725080520291 13.13932522867306 9.266366046112392
Au 9.555552097824904 13.924103874968777 9.551803865126988
Au 13.107091046638935 8.710839745116726 8.251627018819837
Au 10.200232349801473 8.687335472744456 8.08909008792388
Au 7.615846665592701 9.563373354654864 9.074381289725723
Au 13.974051328069235 11.122682911039831 9.206401966111482
Au 9.999726351839827 10.92689986050739 9.893717743104201
Au 7.466271736127574 11.915610032835136 10.59866520731552
Au 6.912278251493544 14.445631581272865 10.028094251425541
Au 11.588195562919058 7.126063538531497 9.997324406050872
Au 14.245732722387277 6.81613669436776 9.803075439270877
Au 8.890056300189325 7.3961647181349 10.220027967310942
Au 13.452938187552844 8.462634981274585 11.796960863853506
Au 7.891071711876704 9.477778257900772 11.851609545218595
Au 11.370159063208803 13.759270308561886 11.791053170746467
Au 14.157322560468286 12.963700920169261 11.221136782692145
Au 8.639285185562445 14.279874636481447 12.127760672980918
Au 12.209345758896708 10.975719600582913 11.449547872204047
Au 10.576042739520839 8.710206426426424 11.977000702061646
Au 9.60740056688013 11.581092791416905 12.640828765760753
Au 14.454090913126672 10.62832999038792 13.131778500866243
Au 12.76251459859152 12.654315185462263 14.257975414117086
Au 12.158957508421414 9.569039247266597 14.093855341401037
Au 10.171288223362794 13.824155865507626 14.286833741463559
Au 15.345603099782519 13.121982084478274 13.63378608110197
Au 10.692800913948886 11.410232195599258 15.430775583276757
Au 9.2618291831737 9.348744360390626 14.340226641299518
