35
Energy = -91.2990916 eV
Au 8.962058388905817 13.234217834688689 13.54591216963001
Au 8.896820898492477 11.072851135011971 11.094643344026757
Au 11.10986684275662 9.71281789201861 10.150945484202044
Au 8.946319394966737 7.956460610407644 11.675953489376331
Au 6.705086820242538 11.859354880380346 9.564046776563258
Au 6.665998064211727 11.995355796736966 12.611967212692944
Au 12.398264150533755 7.9952560157297565 8.33314860038376
Au 9.811224936684182 7.465474927986245 9.119845824735874
Au 6.671013878075054 9.465779280918083 11.136712479619373
Au 11.601422521430766 7.215254953694664 11.381427893357143
Au 8.08926164732679 9.79806867279231 13.584020862600347
Au 13.19654186263655 8.620996473497037 13.178744340820264
Au 9.768614228612229 11.233575843828234 15.210164812695172
Au 14.009042108875695 8.379964344047371 10.525924347709633
Au 12.363945703311318 10.322921804897446 15.154130413171044
Au 11.628962698585552 13.24169001283906 14.261178325136623
Au 10.52625565478018 8.447819811726802 13.921080591926975
Au 15.496134139377974 9.958108092382444 12.39853688631096
Au 13.271625833463213 11.105449886315714 11.08308835143008
Au 8.140309915449883 9.571603513592812 8.705797821714851
Au 10.572400438126916 9.988914601460529 7.3771307972810805
Au 11.08343766566649 10.936218391971515 12.737934300739843
Au 13.232585327773169 14.068905928495626 12.15198602820477
Au 8.94372941766256 12.134499826361496 7.95236569916664
Au 9.758238082400952 14.55908945538586 8.933709118212319
Au 8.102932126721687 13.84841726947932 10.988199343380671
Au 14.082981884150419 12.949771265681145 8.989479068719655
Au 14.064509870698732 11.943040379688266 13.762214190323835
Au 13.23574953661103 10.556586320933818 7.870144434366466
Au 15.524005794785031 12.671598435402299 11.44149591859919
Au 15.492198531285938 10.535927298018231 9.483552690905567
Au 11.620247167890774 12.7908486660234 7.617615907663686
Au 12.374305848919633 14.941969176983303 9.70183664898719
Au 10.56972212277441 14.841524235720163 11.953498916403097
Au 11.060463993123397 12.555944459523992 10.377844408942984
