37
Energy = -97.38499023 eV
Au 14.001433529663359 6.943312088779026 10.525305145908384
Au 13.76047376321032 10.224725394501139 7.741208276619463
Au 12.285084889472381 8.104281815536524 8.74341724775294
Au 11.323266146879133 7.323940581855871 11.243420178015763
Au 10.900889291084113 10.170963693174661 7.5544471205537835
Au 14.899772604997537 9.504792872016818 10.359697027701046
Au 13.343232983033557 8.52661971590018 12.690892082477463
Au 9.606614888046087 8.507768656409702 9.389883996596865
Au 14.641199730377627 12.253173229116092 9.403584162309025
Au 8.70791612911133 7.7210073030071245 11.959475962934379
Au 12.386213881968452 12.698422300556347 7.91004773487119
Au 8.246580425310079 10.774937919307845 8.338412386843677
Au 8.151301068441978 8.050517766709598 14.632614937924538
Au 9.776461495401843 12.634450171374908 7.056053966203528
Au 7.121284060381309 9.253646149809862 10.294795238532657
Au 12.289294173466843 10.550292301892444 10.148591642910082
Au 16.650138156348 11.496932251730433 11.094028152162965
Au 10.130956472404833 12.239532320121029 9.944530592829013
Au 12.980565204966574 14.413043816711266 10.007015278464497
Au 10.827693816149164 8.153587844601182 13.87159716125438
Au 14.679649131496985 10.887743260702342 12.943724129842295
Au 10.246576481080554 10.275657094916529 11.949965978086471
Au 7.4787849303126155 10.157863246477625 12.912827653195214
Au 12.288611583175607 10.51300622597486 14.276733852328912
Au 14.851246388742375 13.460785767095418 11.879652332991236
Au 7.462198611525383 11.975962482632715 10.790773862872264
Au 10.49907165011961 14.713260810551745 8.687206606913938
Au 11.005506754469218 16.132715002188206 10.949264781935973
Au 11.999791580449283 12.498945537708602 12.072608910131052
Au 9.512413740496942 10.46803762063325 14.82749247265478
Au 13.578614841995194 13.025721512678135 14.388601245843024
Au 8.68940220998726 12.651311454117632 13.177775100051687
Au 8.781542723091716 14.428553938309715 11.027922041079012
Au 12.95146797894946 15.259907022272987 12.681471213283686
Au 10.832412492634193 12.815685135657784 15.008288924875563
Au 10.194427302723252 14.955415408190444 13.350900262070684
Au 12.161963270876337 15.243471708530253 15.302147555752319
