36
Energy = -92.0593753 eV
Au 8.30748816812192 11.751606288549281 17.043972452897247
Au 11.212914039762685 14.517737005010282 13.553087891303214
Au 7.43607883777017 11.187850300151844 11.911041321152128
Au 8.923939409915485 8.952715854359317 11.279029396007902
Au 8.829346099980306 13.3875921243699 12.697954025484322
Au 8.761275199043423 11.826392465316895 6.880237091972496
Au 15.197880871079956 12.655942867950913 11.648340448338173
Au 10.77452603767715 10.584403665289138 8.164078736880876
Au 10.371496093788583 11.497818089084335 11.204664024118852
Au 12.023631517785102 12.838197483563695 15.667465131862835
Au 13.870278367127336 13.971947849107599 13.84629652238984
Au 12.859975101481318 10.179701488907142 14.945260783940364
Au 15.246741124195445 9.506659731506149 16.099452185412115
Au 16.576584929624484 13.264805835242981 13.925768136986088
Au 17.276382095123545 13.594000729922836 10.048812220796426
Au 11.579455866900677 9.072215029131694 10.441207052479237
Au 8.400978956580582 9.40908195307306 13.984998920014426
Au 10.460461806158568 13.406414016717276 8.197802529986118
Au 9.446107779768667 13.54024968146791 15.377037001422106
Au 15.306552483188625 12.048517880612483 8.983908533737853
Au 10.990585794301241 9.39241658356153 13.138404495167729
Au 10.2842649416778 10.638903941618144 15.584883050014776
Au 10.595958510295025 14.245742214303618 10.84382055696733
Au 12.223157323513997 15.281007358759046 8.8971046117429
Au 17.21007822386007 11.347603963289334 15.691049457077677
Au 7.320708399881499 11.902652872886671 14.507095194324034
Au 11.95144791734007 8.105282323345076 7.949277419331106
Au 13.013258066098478 15.484782794974407 11.756240681909672
Au 12.660620828608502 12.565506113864007 9.795444858395594
Au 13.490792259612238 10.19621022260077 8.622224798038888
Au 14.633241509016761 12.276328223538615 15.873311961029245
Au 13.074159313517763 10.885172927419742 12.042090547631474
Au 15.303454375832601 10.688438811634143 13.576930434018161
Au 8.237916234387457 10.836500494911984 9.359763309262416
Au 13.838899748604712 17.233562789663505 9.772161556796995
Au 14.905784059957227 14.788228734113623 9.845364258536282
