33
Energy = -84.86169094 eV
Au 11.13438528986308 9.467973017419618 7.1456106172569545
Au 13.310574383618016 8.691410901293485 8.79938178399153
Au 12.962150334895473 11.340830939550909 7.93394739996617
Au 14.631562406183207 11.379376847660966 10.373710507319144
Au 14.899681925323316 8.652232206595384 11.029351941373593
Au 14.598383747364752 13.435310237794878 8.495219572572708
Au 10.053787579339607 11.922246770972807 7.960691358772426
Au 10.679890361683432 7.41916577511765 8.998956310054957
Au 8.659609492498673 9.25022557907301 8.40938851786559
Au 12.252896149697422 7.574628307459088 11.276257947996903
Au 13.821586921884165 7.971218678787706 13.526779429168645
Au 11.190897390399213 10.118984279561673 9.93171340848443
Au 12.864369198683699 10.249781850513987 12.137254671948241
Au 14.351774826174221 12.313787665417133 13.170167228556657
Au 11.933161527317584 13.602275050980118 9.204882181375567
Au 14.03511704232558 14.073226989721926 11.075161663900767
Au 9.539446155371168 8.082828506372545 11.42198616392999
Au 8.701243172103101 11.070339329199502 10.581638818743022
Au 7.501319907067043 12.694487804429746 8.48183471302642
Au 13.224032775479277 14.875051998184325 13.533544909261726
Au 6.244367185338558 10.327031795184167 9.03427388472668
Au 11.083570765934407 8.72955895859336 13.715685125210072
Au 11.0592770440879 12.263456111474671 11.712177242693107
Au 9.3220230257714 13.90592902217111 10.07879678142062
Au 13.203434486574178 10.290085710655845 14.90295906197353
Au 6.995390904360812 8.984786323488049 11.316327500153983
Au 12.724434996764668 12.907774339317884 15.3733039462792
Au 8.630669497649729 9.927866763018496 13.312868928613302
Au 11.364620981564773 15.07305028926852 11.46920747191754
Au 6.355221117547753 12.243382655477735 11.131722863187507
Au 10.561678353579536 11.353015047777166 14.549206573951142
Au 8.439507607570725 12.728609958015982 12.894787023983914
Au 10.57664469594128 14.063495987969683 13.965077006370255
