30
Energy = -77.06400923 eV
Au 11.295967339125106 10.14601219245601 14.942868650080467
Au 10.526441158455524 12.657353839087163 14.19697252678281
Au 13.326278593929061 8.725396885164827 13.72714405162254
Au 11.523716563108119 13.62170548074142 11.596799668671816
Au 7.666632925288876 12.607528147068452 13.846609574724434
Au 8.705044901005628 10.040928425656476 14.0782747741837
Au 12.615759839913911 11.349733634849274 12.793687646375398
Au 11.000063182323869 8.848077112698585 12.292732304439722
Au 14.025573750740044 9.533413273645891 11.19230487426635
Au 9.768886731046171 11.405460970329775 11.808849921092824
Au 11.535481367233853 13.587087730811279 8.744433946545021
Au 6.519140437049018 10.640430281043653 12.36604204757917
Au 13.098068008228367 6.971285633283014 11.552023953082811
Au 9.45540720482619 14.744042075307133 10.035719623231106
Au 9.171555980544204 14.541620107909516 12.718424274897963
Au 13.2931892645679 11.985535935396344 10.191167732932428
Au 7.450871181629181 12.942974791672125 11.019540507992783
Au 14.804147434838853 10.164533614774063 8.707575437464499
Au 10.435588172933432 9.895320806848162 9.707787910484122
Au 8.920889151004936 12.363487661148941 8.766736960802886
Au 10.828243574683146 7.040939079118406 10.019958332638723
Au 8.347143840353436 8.743832267015065 11.622276970537259
Au 10.959438504933896 11.217124630816791 7.227319200085523
Au 13.488378793005088 12.209501395935861 7.417589544663114
Au 13.213213959662482 7.894626937952355 8.945051445713649
Au 7.121029445062015 10.422997865100026 9.709626888190819
Au 13.027202229488239 9.491270686283649 6.687156950270824
Au 8.540059528552748 9.98587877332298 7.373315786634291
Au 8.399367973113527 7.822637973334721 9.05304215922418
Au 10.75431931220602 8.21636214008116 7.476066683641652
