38
Energy = -100.38947052 eV
Au 13.03815867572381 7.781946058416666 16.04229413339918
Au 12.055543107704878 10.508359504621243 16.11101036775643
Au 11.551842677471834 13.146068721031618 15.457706281343915
Au 9.829164065341756 11.005846468758945 14.575543799889012
Au 10.972204977942761 15.697922758221294 14.45518251461045
Au 11.180015823168283 8.502990394512022 14.210507260305759
Au 9.294047201006675 13.679720684738086 13.87116524659111
Au 13.808460268676583 15.119528556646044 14.659167167883059
Au 7.854533388808646 11.554262178919942 12.766158882348845
Au 14.304267099677062 12.525450487166294 15.269206097828066
Au 14.750369674693326 9.883962939572577 15.70452217884432
Au 9.361160841871799 9.19204274168174 12.370496576861264
Au 13.93540141557715 8.381681904062905 13.455555991299356
Au 12.578044012620348 11.053733228244432 13.413505994007128
Au 12.194792148014573 13.826210965093383 12.713825223097071
Au 12.834610644398387 17.585595030937732 13.693323115066748
Au 6.030190753963979 12.155832577779437 10.748461139222137
Au 7.659217841403319 14.159998119250147 11.729120504621033
Au 11.363589562727526 16.38624994958101 11.697925404523001
Au 15.30878880253709 13.548027182701523 12.831844726447553
Au 15.529965372513656 10.813678583581902 13.26818162546264
Au 14.175219985283062 15.955407526868443 11.934769742445727
Au 10.532706658029008 11.88631617692721 11.713120112525804
Au 9.951998906041508 14.559280156608763 10.33195175096857
Au 11.9783263588342 8.746242581221118 11.466223561931377
Au 8.558423529298112 12.28951298938206 9.647009369781573
Au 13.302102450477262 12.015129740879356 10.977767204634773
Au 12.625485541984744 14.746880630980298 9.770416549790854
Au 7.458800442711098 9.82131466135751 10.522503505101968
Au 14.68962268316556 9.271381216720348 11.022157927661008
Au 15.367597804428694 14.40483719726641 10.093186830911119
Au 16.207089649147907 11.812258397900624 10.850754935508071
Au 10.10438288681594 9.864926972415931 9.686674094330845
Au 11.17308988349724 12.436507583309556 8.867315241867425
Au 12.741312975099044 10.007840605724446 9.029892780844479
Au 13.813968494993107 12.676039578958317 8.295964722002934
Au 15.440624939252007 10.308224349718671 8.624223493588717
Au 16.568575865916056 12.81248800905966 8.245061355514679
