32
Energy = -82.48182162 eV
Au 9.582025516753138 9.578238951094976 14.243886635617285
Au 6.941866657550552 12.379659720182245 10.52181350300941
Au 6.676276869680491 13.070545445683162 13.265208130299232
Au 7.63760800186924 10.609562342906909 12.620111044847423
Au 10.238860476904497 11.24718392558499 16.2357338663034
Au 9.293498319482309 12.801542221113676 14.137121923113318
Au 12.261566941132369 9.627051153067312 15.0064824214532
Au 9.597050993603933 12.64179020368745 9.547631589033626
Au 11.263374676853385 14.178362737211154 12.520167440169459
Au 10.428291328758384 15.313298738500736 10.100334183095912
Au 8.2611124942743 10.172013768799792 9.828395603919187
Au 11.284649648233124 7.544026599942461 13.405106586608028
Au 9.201818430869707 8.447161055215476 11.792943772637793
Au 10.389365749547348 11.203269439944377 11.990529385699917
Au 8.625007035466012 14.230815041944266 11.794063954295739
Au 9.458653999133485 7.792444499717313 9.133509762426351
Au 13.124787358552197 14.932508393072956 10.485688326878487
Au 12.373798076342853 12.215466950169038 10.472938520593084
Au 11.764748717627898 7.7911652335236115 10.706707777125777
Au 11.99321929699936 12.39025060142029 14.48493144908878
Au 13.866016117980703 13.544520625057975 12.859776383972457
Au 14.430466888589061 11.02465893524297 14.161109412473195
Au 15.561755040244748 13.507011887319434 10.676876701641554
Au 11.651818798676551 13.905849283249538 8.071812469435448
Au 16.425123607768892 12.647179934238807 13.151528894385706
Au 10.966581744720859 10.112077474008712 9.180185471155175
Au 14.376166216490299 13.824597276794101 8.2471198067829
Au 13.667666499101486 9.46799050922344 9.68518347509556
Au 13.412324787789027 9.01942547060312 12.491114986089029
Au 15.238514909787968 10.795056033361776 11.510441516220634
Au 12.936168145024673 11.445328276511932 7.806030113246399
Au 15.497217121739359 11.354195513434846 8.818194085202075
