36
Energy = -94.23035545 eV
Au 12.259113122152208 9.638697143882508 15.498837761341287
Au 12.125960682361068 12.275821765794465 16.0199485519879
Au 13.925035248405585 8.565822278294618 13.642064682745646
Au 12.146669977844017 14.955496161030663 16.5448793810202
Au 14.192742252936855 11.227092027010956 14.33275140538533
Au 10.962812198735323 8.778332633752061 13.270671652254766
Au 10.062185668039994 11.081866843721347 14.529932579206196
Au 14.145836680011074 13.960568496998054 14.92196303869755
Au 15.660520601594367 10.350040443959466 12.17648721699315
Au 10.092790807316563 13.829950547930423 14.952063346067433
Au 13.887498306915502 5.9501955977494925 12.785857196317927
Au 8.885920115934702 10.226511511786487 12.157687147465118
Au 8.351658799676406 12.815366047958701 13.105356326443044
Au 15.399421269372617 13.070406606038475 12.580491177365449
Au 12.556498218794026 10.746819008260251 11.830554913322228
Au 15.443079639271588 7.735357622771512 11.442572378664684
Au 11.934510421762289 15.901425489905325 14.035392686352305
Au 12.675112824150869 7.785979467096101 11.134520810738817
Au 14.393694609158805 15.651377977599795 12.714066654919051
Au 9.992614897806462 7.997889111301053 10.831438103048496
Au 12.444669918353869 13.297084179400867 12.789962947110538
Au 9.68687842263222 15.152313859431192 12.590665983756718
Au 10.494855905374392 12.480891324646063 11.134163344387932
Au 12.072596785105496 15.905958739067335 11.270099575865878
Au 7.744535944825968 12.21288066654672 10.54143300025967
Au 14.364774845947355 9.66136827716003 9.758701501567119
Au 14.076471450625691 14.29681230417683 10.289822515832242
Au 15.648051763643384 12.08935779597841 9.990106690284174
Au 11.652067952170864 9.597818311019754 9.261422954025145
Au 9.630149029466507 16.151321836581737 10.099930289569395
Au 11.568465597658532 14.292641327604718 9.058312479988528
Au 8.819965816488986 9.874179357323202 9.327205796595582
Au 13.095832212585604 12.008252800559085 8.964655847096774
Au 8.846247991708298 14.057254802563715 8.659131472621333
Au 10.512199329348444 11.843898198901817 8.124619815762477
Au 7.72088429354387 11.796952141178501 7.778977017652594
