39
Energy = -101.09116203 eV
Au 12.262062524353174 9.023989079102622 11.029172735264652
Au 9.433737306132704 9.55495887034783 10.977069280614192
Au 9.08424481531332 6.945861910884571 10.10130087773334
Au 9.388065960281226 9.526986541612061 13.974424170860065
Au 10.468043178870934 7.243486195290759 12.589165108289178
Au 7.699460119111345 7.9372980321509266 12.338943580011204
Au 7.172359829497548 10.716041022852957 12.571634187729686
Au 7.944414745142229 14.669165992583194 10.034113176619748
Au 6.834574285385933 9.371224390776177 10.060742488816608
Au 10.095150790972472 13.550827527146886 8.4501319918028
Au 6.974730568595551 13.514556062898682 12.453208887789033
Au 9.445409036138988 14.876435414415592 12.583822124328155
Au 9.031200008995754 12.413977248707845 14.03726388629152
Au 6.521473485879964 12.086496311729123 10.032003225863583
Au 11.211608122639486 11.223600540433672 7.034110237172152
Au 9.084232600632854 12.375973699426167 11.052610244781116
Au 10.722631809017805 8.689447126562923 8.468460704743844
Au 8.649905934928576 10.957676833895485 8.436201186535591
Au 11.215113058255248 11.220181233084139 9.664854614777651
Au 11.773283868212827 6.478252122075067 10.048978789617546
Au 14.780144777090372 9.210113803034796 12.541812453118586
Au 13.633977675824076 11.487481645652052 10.993126065903194
Au 11.640537400630022 13.623431783519308 10.9837965175819
Au 15.827625674734803 10.129919936225155 10.022929514666846
Au 14.451386907838975 7.7557247887250025 9.948362903840533
Au 14.149651957437923 13.936683662996032 12.587397072957009
Au 13.437016099464099 9.940031879634816 8.38098601087959
Au 13.09413787450003 12.98321960881282 8.480116744300014
Au 13.64937559362855 15.316214416005298 10.111110270738335
Au 15.498334755031557 13.309933457839344 10.080407757160447
Au 16.009022878368775 11.753036590762244 12.353189330574123
Au 13.70942856348585 11.476484065988219 13.996652358030905
Au 11.229091290212507 11.21400540140264 12.502837597792631
Au 12.084616936035923 15.955197815347555 12.34807949159976
Au 11.225964563252102 11.205572625307129 15.277931314610864
Au 12.29487114535883 8.940918832663414 14.022472700463107
Au 13.27702144676688 6.847031424580167 12.402401690645286
Au 10.375226241848395 15.931201412930317 10.103600261081256
Au 11.671948167442135 13.658442687218225 13.975660444413831
