32
Energy = -81.849024 eV
Au 16.76837562863279 8.696324218657125 9.512585740911444
Au 14.33050967098792 8.029705068848678 10.582097620877285
Au 15.863666388999151 10.159894734373058 11.609645747308512
Au 14.718997345541895 10.294387017535627 8.799458597810647
Au 13.697173388292645 9.029022713862489 13.103149722084508
Au 14.802321417401169 11.566296785251144 13.64557781905069
Au 11.835079641746457 7.698985484967543 11.518872381374054
Au 13.86504403456909 13.902086434473908 12.492600820132937
Au 12.288844016263969 8.968448274800881 8.950106287484981
Au 12.907838967049312 13.080471584111146 15.04814308338534
Au 12.985098897396208 10.33187864314306 15.40612288951385
Au 11.890994810617121 15.40134520172825 11.579917188544654
Au 12.573502327509992 11.513048560178369 7.782976255145859
Au 10.783789674234855 10.40880500740439 11.187430550432538
Au 11.287255116923351 12.697642269352396 12.587198720330903
Au 13.416635939816512 11.378612399054047 11.093474323718294
Au 9.8351896621915 8.030146813791976 9.580009465220707
Au 10.303564935428243 13.120451730015164 7.477712144045842
Au 10.826203167455729 14.723960903405693 14.396101811219895
Au 11.05504243908537 9.138865954248754 13.889670657951315
Au 9.134453627381545 15.2715817170743 12.201259295410026
Au 10.202371665234578 17.276610717068397 10.636271373707796
Au 9.598975979385127 14.951551547359637 9.460957178924367
Au 9.994824097109074 10.455478721927879 8.309112017790298
Au 8.663694791591045 10.494701475301484 13.335449055329695
Au 11.5498090361779 12.987566981762598 9.934181920610712
Au 10.51205416992613 11.673954830143213 15.060718085138362
Au 9.157245813157678 7.953389752881797 12.258297100353143
Au 8.055130568082856 9.977774519369545 10.538931987332761
Au 8.586488988946442 13.217242773174949 13.803840846717872
Au 7.111906954019209 12.240281413290381 11.811195361823637
Au 8.543126421080238 12.474695333678477 9.552143532552558
