37
Energy = -97.56779912 eV
Au 12.098116347307151 8.799174600803743 8.933725592439957
Au 12.490380746089938 6.763931588658151 10.70374855276488
Au 11.726208373923662 10.91554370576327 7.304282835318777
Au 14.1597136447622 8.885892101443668 11.013068676285624
Au 11.124244020690352 13.342470321193336 5.989619221394864
Au 9.125196341302312 11.985467574643389 7.3136300212586836
Au 13.888824730059774 10.959349439712867 9.129293531936606
Au 12.952210619344726 13.396893054286492 7.975789289660257
Au 10.214761465487365 14.28078410376705 8.525250589305942
Au 12.438500784377391 7.846422262834725 13.340333141897538
Au 15.585291196894465 11.145648752764442 11.431267058773056
Au 14.854843816659914 13.490222636941455 9.86750285685838
Au 11.066658460949453 12.030560849195014 9.962015638877533
Au 9.433639573587591 9.815162614301794 8.908749119534898
Au 16.766972360448758 13.655616511616222 11.803492587550775
Au 13.024912414493803 12.312547587985131 11.88320132901589
Au 14.317229825074897 14.920840283441205 12.22257194075884
Au 9.863658527883903 7.760938200084994 10.630354084397544
Au 11.533400874043938 9.902932763667968 11.612707724893589
Au 8.233882229441361 12.31133425355841 9.865532762277292
Au 15.167185469494754 12.593507477916045 13.831061286775281
Au 10.661324303176643 5.846710668584532 12.549197692537641
Au 9.617006767764419 14.441396369940847 11.194612552475366
Au 13.936680542304948 10.10920683977772 13.613341433722189
Au 12.2928562076761 14.805741134289 10.321947007587614
Au 8.404086834056335 9.995425938447251 11.497903322559942
Au 13.712586754849841 14.765018245986896 14.900943038906593
Au 10.436830238646845 12.147508687094357 12.790883807184052
Au 9.563991411858103 8.181792408362034 13.405737147408438
Au 12.715630037963269 12.257577980608852 15.033788371420695
Au 11.277792132284144 9.953340438579271 14.714103718158377
Au 7.595188576347303 12.53971458314465 12.479504836509449
Au 9.16267552338101 14.453282829607055 13.918764431785347
Au 8.425065313150235 10.460853325826584 14.261171642632322
Au 11.67242543884317 14.944896352052455 13.0702275502537
Au 10.093183768504286 12.331819464708495 15.616207616979882
Au 7.3859788135292685 12.809493545979059 15.25746841779405
