33
Energy = -86.29014368 eV
Au 13.471365575403349 7.312942240177159 10.134041809827051
Au 11.498658610827476 8.147779293057793 8.29099740397765
Au 14.098964733647746 9.070272787705147 8.152532274132883
Au 10.876977236041993 7.63280373555549 10.968698324264436
Au 13.123586014688573 8.338663349017624 12.618691682414545
Au 8.405245884340108 8.448559270111888 11.972370158038581
Au 8.901876092318235 8.359623480868551 9.124867023790733
Au 14.699996257450438 9.793924401144892 10.727772768807286
Au 10.55773099928392 8.079288952189083 13.675240227938822
Au 12.646191722215972 10.750710594863042 6.597371979488846
Au 11.95629343497976 10.608663934025067 9.885657344394044
Au 14.256962875927991 11.77716661275763 8.678694915310732
Au 10.143823374472893 10.497936689328776 7.533530700849468
Au 8.696043139237394 10.00903207233617 14.251873371659984
Au 7.522077115586815 10.624974860452928 7.95635192157451
Au 6.542269540123524 9.353601752221925 10.200454426598734
Au 12.893271329863616 12.580726704237753 13.73501137766965
Au 7.008905330968676 10.995374788286917 12.340528617906532
Au 14.704160563893543 10.537076087468945 13.341363771661964
Au 11.040530059409441 10.67796218601298 12.421954408920751
Au 11.57880519995014 12.886976324970972 7.987710408218351
Au 14.444386599413447 12.480253610440641 11.361972813434342
Au 9.24277578234778 10.951195034698546 10.424715146299095
Au 13.44054972541191 14.262389883517157 9.427210068620079
Au 10.529734574954528 11.92476932305701 15.016160689056417
Au 8.903717875110507 13.066665616458849 8.598607562230209
Au 12.392535148463766 9.948005612495338 14.770914035951114
Au 6.545850191009405 12.25236406646956 9.936412109893169
Au 10.770327008101873 14.328712168657873 10.238937778058977
Au 12.909625688221894 14.710897935988108 12.052211703741385
Au 8.168377318489203 12.823436726595194 13.96516107508336
Au 10.50555461102732 13.963901557178025 13.045271600593209
Au 8.362665692408873 13.668985516590222 11.357419944645526
