35
Energy = -89.20935378 eV
Au 13.410270487842725 16.776059651412762 13.240264725713752
Au 10.08100029134917 14.7856934597874 10.637115043506208
Au 11.6975286115616 12.655811938680284 14.993469701455215
Au 15.797854990329835 16.356128076664834 14.493923317442954
Au 9.110245602519122 13.305438060646502 14.505228924299738
Au 9.371343705378369 10.037900648295807 10.727677075077885
Au 16.932229332188168 11.210446860946956 14.961668222199878
Au 11.032056342259123 10.919134952518535 8.729890186637588
Au 16.296328050636106 10.273642994015184 9.553083071100481
Au 16.33286693292714 13.812311634077037 14.994551152520776
Au 13.414760601084584 11.727971973269304 12.619248240514484
Au 12.419932660814688 10.009649851331478 14.941369338139996
Au 13.684086871697136 14.597320322044943 14.895072301061653
Au 10.93416696455329 7.767930921579992 15.068203887644792
Au 8.667664169643622 15.629205585247163 13.008149635999523
Au 8.062836664407747 11.836015032815244 12.350318785114649
Au 12.737438843359149 12.60253379177404 7.378359617566548
Au 6.577589360820902 13.8683298397926 13.55279974335496
Au 7.406107891036476 14.16500416155985 10.9621150529687
Au 14.338736085425943 11.920899139228805 15.26954700342138
Au 11.056812404477965 15.271100083519928 14.450485791599851
Au 15.013821506897502 9.66452807868303 13.735953094832565
Au 17.85393379060952 12.0195716902649 8.29521856765376
Au 10.951018894355531 16.86108787189194 12.155178497084803
Au 11.877442869068295 8.847133870301201 10.44597533382919
Au 13.149378206939272 12.722210563249885 10.070370078000945
Au 12.863863610490661 8.050383034081513 12.99415608338611
Au 10.151129315483217 8.290688914008761 12.566810497333952
Au 15.262885791839048 12.45830510411447 8.170007406962773
Au 10.881877859231507 12.204630391550838 11.656078292757
Au 9.93928932873188 10.661363797080574 13.958450542836893
Au 14.56219319011098 9.053718456817913 11.148508042017914
Au 13.661199564870145 10.20285249439842 8.82764787953985
Au 8.982291619775307 12.506244586400314 9.503649658854041
Au 12.539724905330077 14.406656625922368 12.121234250477778
