39
Energy = -102.50945714 eV
Au 15.297405369891706 8.027522521693239 9.484524879222084
Au 14.404214403244067 8.3802938468513 12.073797254315174
Au 15.71781307542491 10.603580051775428 10.197183350321268
Au 15.545404915490783 10.72701188319961 13.044087204918855
Au 15.810891248353812 13.068866552780962 11.29490284329354
Au 16.522895388338817 13.122771837953984 13.924306765757018
Au 15.459160906217244 15.462135529679097 12.75225488070346
Au 13.77621543105043 10.103457002253828 8.244877379241196
Au 12.556292451321195 8.204233712661795 9.898323734668478
Au 14.219087685228498 12.78297978485249 9.095057556397759
Au 13.35523976647765 9.560606376884031 14.362001765130904
Au 13.080901381599228 10.746799399828967 11.267035306673362
Au 14.5219440240319 14.618427665019922 15.22602127576773
Au 13.71730710661217 14.96926542648216 10.739994283391132
Au 14.590875943099839 11.834839566096399 15.485424488023972
Au 13.433215237897238 12.890751903283967 13.020370677577528
Au 11.586000841643244 8.41791100037137 12.580815341865414
Au 12.314871174977398 12.200838942571014 7.191278082817544
Au 11.049518516980944 10.377986202968406 8.802595434395812
Au 12.664860199783785 15.631589023300585 13.33784152771956
Au 11.478498674799855 12.922817077300932 10.92141265213968
Au 9.90289879285399 8.523417805007224 10.380598766483857
Au 12.127291964647862 14.591320771693324 8.552532795031707
Au 11.074269089249114 11.342049367152965 13.11774055592861
Au 11.984367186080556 13.816020247421463 15.480187218955244
Au 9.56791956541831 15.619735676507235 8.74382259544799
Au 8.87985811057678 11.117464468601097 10.466038029994328
Au 12.091410589454117 11.149388262363564 16.252910518293987
Au 11.03513397289978 15.759476134737758 11.105434209260695
Au 9.883317074158724 12.856618029875232 8.54234022551841
Au 10.464167227288888 9.341216959913607 14.998897835201987
Au 8.873508788302697 9.296869304044051 12.72906911425482
Au 10.231075776739475 14.2945998193847 13.380028311281427
Au 8.768667147435126 14.07768401540547 10.898924835216457
Au 9.709816281879174 12.306121113625306 15.407716518598303
Au 8.20679859906786 12.500873821067342 13.099660895303419
Au 6.4857345987920025 12.501486180982791 10.816810865190275
Au 6.422753331402342 10.512216313583941 12.61781915067941
Au 7.798401979328358 10.38817849565466 15.046861801161041
