37
Energy = -97.57057711 eV
Au 11.144002440297383 11.288618086456882 7.407640711594976
Au 9.480029381209237 13.371607990092528 8.402466024638025
Au 9.984820180069956 8.709982827040365 7.301903957965489
Au 8.599984253034735 10.773120462577156 8.542244418280069
Au 13.69859206832812 11.454282652383668 8.479931926175185
Au 12.331880836684897 9.00829484159413 8.631752938898552
Au 14.81936360122898 13.972934171297224 9.086929600686483
Au 10.31430764915374 14.572818392549324 10.72258517783667
Au 7.661217402820279 8.148328017142834 8.669202888688721
Au 12.144359630345859 13.794878867352164 8.44762660985408
Au 14.795325053493407 9.189009454668993 9.790171029997959
Au 7.919025121566717 9.631634664423514 10.993179118791469
Au 13.03199544873611 15.382661751351694 10.543945345928453
Au 11.096031052695059 11.590470479299695 10.195426023226796
Au 15.96859649308405 11.686261232818241 10.05905583265344
Au 8.367566636881312 12.434717810661423 10.757180911009653
Au 10.072258137503267 8.12523184744827 10.056279648055849
Au 11.338788595412762 16.794992178622714 12.117763656789757
Au 14.931474326224347 13.720258765821226 11.825652705657562
Au 13.428829586841836 11.1761401769989 11.563740948019802
Au 12.46737349921385 8.338169325343788 11.31321063226771
Au 10.049663008560474 14.884540665283849 13.538785679315614
Au 16.129568600153597 11.387864872207796 12.773559780629459
Au 14.889914744789136 8.852128198502639 12.489388587036911
Au 8.385782807846109 11.112721071050872 13.194261714472328
Au 12.843711755607922 14.829377523980487 13.273603009890014
Au 11.232954448669153 12.271054868685866 12.803600304886439
Au 7.6251768619236815 13.796580853990381 12.976584644217965
Au 10.109543457913695 8.999083829164597 12.651348949516414
Au 14.106239619815913 12.625682335697885 14.26401663058027
Au 12.534193103742435 9.171806175500045 13.975987484559496
Au 9.008126506434397 12.920682864603155 15.196479331486584
Au 15.047473600945207 10.07793360216272 14.929974238610177
Au 11.733947551228772 13.474807776701061 15.38455133728935
Au 10.27510098560616 10.32605628807366 15.036730299678107
Au 12.764284152804557 10.933686819569983 16.145695044807113
Au 10.467225648311555 11.938886266256336 17.293415753717113
