37
Energy = -97.56367351 eV
Au 10.033331375986531 6.0603290579689615 8.692187126863248
Au 10.143698560475599 8.316797198064233 7.1015331534474955
Au 9.337798143098723 10.81206594339858 8.071553802188125
Au 12.06938852199845 7.977922825284099 9.075646653167068
Au 8.809217015978826 8.410999280983901 9.516574363981043
Au 7.794819618046841 10.822270483953359 10.367454126030529
Au 12.020572488819987 10.315292699287268 7.503750047333826
Au 10.578394032493312 7.0361919079017605 11.261719959529351
Au 10.84457148675219 15.166569987718475 9.279507328491174
Au 6.929107810548499 10.772172658532348 12.98674058851721
Au 8.704526071601503 13.2589142436331 9.207725373583626
Au 13.935063757988496 9.96844855618423 9.42247504267941
Au 11.005636903248455 12.90967986124291 7.615206423303533
Au 10.779337506736324 10.19455267321678 10.648024634052092
Au 8.653076035554667 8.78025319388635 12.233104329762623
Au 13.764611153825848 12.369233399906484 8.09994923464273
Au 13.0704245655149 8.265146350190319 11.621233576057257
Au 10.85402322533299 12.999000476829622 10.972204418890243
Au 15.385304817883442 9.699591388258407 11.714682081326437
Au 12.901890420949234 11.41822703428264 11.912751775078615
Au 8.916310467073558 9.790834997700484 14.79051743511097
Au 12.88427513996868 14.881551871263607 7.325053703355053
Au 11.11436618331664 8.43553025417493 13.58411012364914
Au 7.980096168940956 13.15273947646133 11.838824326444746
Au 13.554950449575863 14.500709655926562 9.936215000504276
Au 13.69110476262775 9.645520349434562 13.992468488047546
Au 15.14847483865768 12.30861215854042 10.54195896629633
Au 11.79227378446269 15.532788216485864 11.834901162499598
Au 10.438037348932026 11.430703506777188 13.15733013598736
Au 15.528375958860808 11.85837527344943 13.36124505740822
Au 8.207495455464764 12.567061633732791 14.590849417111324
Au 11.549236520067044 10.304962338579292 15.586058694144214
Au 14.099572025067918 14.059110441543845 12.58354435159253
Au 9.795006925164344 14.486120655497357 13.398377514807098
Au 13.327340188282577 12.360619483750003 14.870868096506934
Au 10.722278278541777 12.935316729381599 15.6217746657597
Au 12.316908812722673 14.935618500371167 14.470717791023686
