33
Energy = -85.85569967 eV
Au 8.760407156267723 6.603483554235467 12.463740058879388
Au 7.648757274274604 8.967799098034021 11.402683585834376
Au 8.61545532595242 8.869875469834414 14.048481469110351
Au 9.918444698465226 7.828649253349254 10.297067345178451
Au 8.657550050154821 11.546275309361793 14.35456231598087
Au 7.683910016371457 11.662355492093297 11.68874108970168
Au 11.117441757693559 7.789653275568664 13.173883372869579
Au 8.723228365740013 10.408576397762436 9.334038025691832
Au 10.992484800897236 10.115074506992316 14.880238580454378
Au 10.1939207205418 10.362181748934253 12.018665970129634
Au 11.176786378469341 9.321891314761036 8.439315472153684
Au 9.055968800685994 13.202790525104872 9.846535014772247
Au 12.460634371876772 8.714349182162524 10.901842158642115
Au 10.849195267754768 13.018681717998534 15.069366678555069
Au 9.53576715963174 13.510850110597334 12.62436547604504
Au 13.31099659828106 9.34399627663664 13.543151883154042
Au 11.820370234512984 15.018435229877136 13.219172737113345
Au 10.440769622013123 15.44306351813086 10.899977516601783
Au 12.312494250931953 12.014128229524582 12.688774211626669
Au 10.108491001542511 11.960093840300837 7.588712130289456
Au 11.569022606962502 11.775156073870168 10.09356457408077
Au 13.29087307483174 14.28124209668424 15.426878566182513
Au 13.298238989352475 11.544901266865725 15.336908814637427
Au 15.068376986449213 9.531618982238816 11.338705286087887
Au 14.4259201646472 13.963846139351437 12.964116884844458
Au 13.839988904921494 10.196598583746031 8.98145925564511
Au 12.55341919430374 10.883864734574978 6.679203743906256
Au 15.224996968963465 11.370273661156874 13.375572878951054
Au 12.986835023568439 14.445433263480563 10.64480393297359
Au 11.131458657082463 14.533985185178993 8.469421860238262
Au 14.69931745581082 12.234592779273463 10.75635516193572
Au 11.959561168962857 13.500563444498269 6.121882785413199
Au 13.556341777987747 12.960359562792474 8.349814007114906
