39
Energy = -102.50564468 eV
Au 14.343361245217293 14.848831944970238 12.754130272405616
Au 16.17264863203792 12.904548300155994 12.37971432605208
Au 16.280974619411097 11.332943445961854 10.097904377447202
Au 16.100246496320835 9.574322393736855 7.941067024380493
Au 12.659809687611657 15.384058297359267 10.629381135245584
Au 14.175388982229531 11.503973739223039 8.207098404036088
Au 12.439709374082037 13.671622117807882 8.461489206753944
Au 14.007809117431359 12.498493046664644 14.165964300426001
Au 14.990270854473911 10.460332174906728 12.495198814314014
Au 11.6837679537474 14.848098245575537 13.316015762322156
Au 14.606302040086264 13.539586445675116 10.157944297210229
Au 14.72557185539409 8.960649966042679 10.18757634534446
Au 10.143454109940341 16.144806373055054 11.348373818281166
Au 12.953353990617673 9.010078119211286 8.075557162932313
Au 12.933274955834253 9.806854171520746 14.286718430179606
Au 10.775508104957337 13.257213579766265 10.691453444171975
Au 11.465014847139111 11.227182674052544 7.570110234755779
Au 12.730037067228947 11.210101780372396 10.612941330470187
Au 13.891339011736845 7.9430156074757505 12.580740983527269
Au 11.893458603012085 11.784785586992882 15.779453639102385
Au 9.747887546685176 13.310939150468409 8.016012242990994
Au 11.307004330323508 7.76263429078966 13.280888809530719
Au 10.112377783993095 13.835807543894822 15.29852502731276
Au 11.470290344541079 11.983001492033596 13.058964299577527
Au 8.907588566802676 14.220393743175146 12.845024095178793
Au 12.064524998810922 8.033148793450302 10.544189953584008
Au 8.300120514588933 14.52815308691432 10.121943842139448
Au 10.235144535583965 8.84545489619268 8.709621354831137
Au 10.119521102875943 10.60450060897729 11.154597715152411
Au 9.3872742607481 11.624643657760684 16.824928671069838
Au 10.062574193923192 9.717506213385454 14.816382339177252
Au 8.377976379099328 11.924005214773972 14.241933870372508
Au 7.220151146095225 12.389057738146366 8.861407730600131
Au 8.681592020214916 7.414403113288425 13.884737601343291
Au 7.553978354137233 12.152308513817056 11.57847493009425
Au 8.790523617067553 10.722564852272336 7.3393413054645995
Au 7.88878259299562 9.703737306526627 12.714680532083994
Au 9.350240482987928 7.855158066971925 11.189938732286645
Au 7.802383203794641 9.843568186827207 9.843264095202473
