35
Energy = -92.25768344 eV
Au 17.87471330360437 9.764033456288638 12.623922917667437
Au 16.47308904673006 11.82223222221554 11.396787499810475
Au 16.579049947790697 9.432021357116234 10.099079467755002
Au 15.963829787800941 13.722467391643868 13.232064190429131
Au 16.105051366140536 11.081199669924906 14.203410357566492
Au 15.164880445131056 9.120109154260717 12.494027241794198
Au 14.562330753249853 13.70614615219956 10.813984592150414
Au 14.788328338807242 11.405738492649734 9.258321975442128
Au 14.108250208323168 12.739177190655164 15.001429794891445
Au 13.878934112958447 8.885858375133818 10.035794634469065
Au 13.528555307259026 14.89377272797828 13.118645463109136
Au 13.491783946892614 10.09521653453916 14.482293976585852
Au 12.776453478012849 13.186735841483781 8.793561699697069
Au 12.536189766607217 8.4719002509769 12.441639915022945
Au 12.216353293868108 15.09705208361777 10.727755664308676
Au 12.091680267491602 14.491687682056334 15.436090393978416
Au 12.438566535166512 10.429097104526129 8.276431797324447
Au 10.718829517805304 12.28796192554196 7.187797881940727
Au 11.618710529511224 11.773583829598971 15.639678748873367
Au 10.848981198290472 15.462568512366044 13.209419517818484
Au 9.773433139418014 9.794853702029483 7.974842607593127
Au 9.672213162998734 16.11697234629072 10.864589694263366
Au 10.284937278872171 14.371662741301488 8.865340241716977
Au 10.822998744223849 9.399067203212002 14.448865076327559
Au 9.86724927230934 8.054935569956584 12.269024380375221
Au 11.19998831490213 8.53077482766964 9.945979192162055
Au 9.565633893567387 13.678704391044914 14.97699607192229
Au 8.53055913435298 12.054741430445539 8.883847458597375
Au 8.288725187655348 14.530267156789817 12.665854672607136
Au 8.65962485676641 9.730692547894606 10.465677867913707
Au 7.694841459968133 14.371560906570716 9.974975096586329
Au 9.00324678337772 11.046679499786917 15.678147650567611
Au 8.330878198494311 10.085461295553646 13.18236548751214
Au 7.448409234314065 12.059344590817828 11.401498298297192
Au 7.254372726348094 12.467394374873603 14.091531011933375
