35
Energy = -91.04630408 eV
Au 13.641773830551076 13.142226776560749 8.495590934923104
Au 13.546509457440733 15.905322991568603 8.850763501764003
Au 14.811748759009667 14.37793525452904 10.750932713243703
Au 15.359207419742544 10.496811786437645 12.64470191576278
Au 12.037588349475996 14.642350608650982 10.876071738182054
Au 15.230095124162863 11.750438362434439 10.259744290657762
Au 13.743070763417393 12.790635331337931 12.658015450923276
Au 11.29066926895665 14.672128449118805 8.091606963353904
Au 13.671422793104314 8.26511138024312 12.44369357130293
Au 11.11710019230099 12.117366508015802 11.625841838998769
Au 13.400925663400784 10.414864137241297 8.517457914718063
Au 13.099791419459148 10.52455225581453 14.156858091177464
Au 15.017405669527522 9.03532206097125 10.232264220293555
Au 11.509408305828554 11.916177359729721 7.249460693580808
Au 9.360966843310011 14.163654070107725 9.965552598025173
Au 11.154422734189922 9.401790975602239 12.092291266211323
Au 11.541572460823327 12.80803779291128 14.322107061150529
Au 10.745919715852567 10.490126916014194 9.552747900545597
Au 9.074244181671736 13.333504576518704 7.321409414970964
Au 10.490168694072207 8.31912572877567 7.913256778125589
Au 9.951009730159367 14.404877957419082 12.683713930800018
Au 12.493840884871092 8.034666157789356 9.800476940713407
Au 10.467278768655877 10.404397835143563 15.103215290133397
Au 8.770714491050528 12.241886574249053 13.946491672903184
Au 7.683624585030016 11.977004661163312 9.253682856704206
Au 11.878942964087042 7.998496518940644 14.433160811436206
Au 9.467013929509202 7.918092222664477 15.76003828490625
Au 8.656798388691385 10.673713286350551 11.551535606245293
Au 9.074169658815576 10.600256369688791 7.147012623688736
Au 7.468561999689695 13.209212015834337 11.705583891716255
Au 9.827713848016744 7.440769645884807 10.431756435499043
Au 7.989350850347109 9.578888182821759 14.017333464200762
Au 9.495439980378604 7.270229332768847 13.108422673853564
Au 7.9867258091666296 9.180479973037812 9.19899339523251
Au 7.329255470052511 8.225244519916183 11.665175428973145
