34
Energy = -88.41645776 eV
Au 11.271910202532126 14.664006822330096 14.376179841768606
Au 9.28521104977491 13.044100204146975 13.497338837964735
Au 7.476969656009288 11.317673494981966 12.458903770793567
Au 11.538157884195721 12.143415248869369 15.641353610774091
Au 9.69840434628054 10.441372814359042 14.61121403503839
Au 8.047629463716715 8.704093125085844 13.302972274255445
Au 6.35502643687382 9.048811007179985 11.188625299557385
Au 13.85737330115611 14.557180501855013 13.198751776624665
Au 12.461616382715594 9.800583809352977 14.444906319332507
Au 13.512423176570463 14.131066438522248 15.962031778376355
Au 10.844150703178245 14.821506226489994 11.715408915261994
Au 8.860624425419836 13.08312588231324 10.710191807679543
Au 10.632167803231063 8.05143679608956 13.135467802614775
Au 7.9139258965348676 10.61660976397982 9.65196296398166
Au 14.340431602796873 11.971968628220845 14.623874785750596
Au 10.140449647190124 10.599476988661232 11.735152949134505
Au 12.032006158238719 12.39995784069038 12.794076169691229
Au 15.074479143848535 9.840826982648062 13.186840977133496
Au 8.983106785849698 8.14441800624838 10.675864100362414
Au 12.8853953870053 10.148993618320208 11.463142248988245
Au 11.635229855578908 12.185559507727902 10.00649545485468
Au 11.684092036740807 7.85238944902499 10.447411850906757
Au 10.409996284159488 9.615933085410711 8.713873540532013
Au 13.303698404505356 7.692074940308144 12.79551766265288
Au 10.578573775601063 14.6506613233534 9.040238394507547
Au 9.341444406416928 12.193535612933914 8.038730421775147
Au 13.42146994829376 14.43602746900395 10.520574975412904
Au 14.895564112494936 12.379135977316773 11.804074167042785
Au 13.194575004163083 9.496379029757867 8.773351040128503
Au 13.027431987028361 14.040248287009906 7.830383646643145
Au 15.514835822843837 10.039446266685328 10.408016036841184
Au 14.394486168593962 12.08266295890949 9.013054029723984
Au 12.020602989217688 11.441905745478236 7.2446359528451145
Au 10.715066943050077 13.80233121620291 6.3715956831847285
