33
Energy = -82.58621429 eV
Au 8.045955528697855 9.97512685641796 15.038022751183787
Au 15.086168184094355 12.714587460452256 15.277303372195231
Au 13.466988703757078 11.572563505859325 8.41485752886189
Au 13.411310266840077 14.587485737537333 15.98767346000018
Au 11.560227752201099 7.821390875803127 11.148328948516346
Au 9.07129856740548 12.089425284395006 16.35940922715035
Au 11.1618024054543 13.500513159270797 15.010999089749161
Au 10.749707492933558 10.53362748748709 14.92872505298064
Au 14.785192584959841 10.524180073348223 13.3481045984026
Au 14.894662529449167 13.806861566596801 8.534806465565294
Au 9.551810438152302 9.58157534437469 10.469660593050664
Au 17.053210214436874 10.984754016336021 14.707229623449798
Au 12.40292962617677 11.840323284217433 13.12280117451389
Au 12.860178735255776 9.843697236182276 6.482758402119519
Au 12.437392160228281 9.070680345629093 13.426576050511628
Au 6.487961853039427 12.484520971170175 12.62605025680327
Au 16.919913266970628 15.621658889694993 8.786521365081379
Au 10.856521166614643 13.856653564403524 12.089174103465224
Au 7.503643740545067 9.980500734553486 12.202751633718686
Au 13.374832262817094 10.148313018222314 11.007298740197902
Au 7.191065841169785 7.788396058660566 13.691668583397357
Au 12.65307565580014 15.712820696257817 11.22811769129996
Au 13.849099393342144 14.32693503827462 13.281216442462243
Au 9.789918888732354 8.48012012128444 13.196283605596056
Au 8.83549080130468 12.971505452700962 13.80623325338731
Au 11.854142244988465 9.252756949307612 8.83936376912532
Au 13.468537092183858 13.046946763529657 10.77075742458198
Au 12.527133655530783 18.094068784977257 10.040624132659397
Au 15.701835922529172 14.720504390194213 11.112108905721316
Au 8.76059914752044 12.181709521221267 11.157458615036159
Au 16.34355791526169 12.851298307733805 12.83080423240522
Au 11.138207332313142 11.792522965174985 10.035772820534246
Au 14.534755600191144 16.57110250962844 9.369665057173552
