31
Energy = -79.90354606 eV
Au 12.138578685839313 8.492741952180042 13.548534574347558
Au 10.147561175873731 10.027469968254882 14.922763159126045
Au 13.041214560031186 7.088636141952125 11.42361074662307
Au 9.500014489781288 7.704703084619071 13.657533744246127
Au 12.0400031908377 11.275830908192818 13.302563818170979
Au 10.342928543236447 6.610394440263567 11.243048804493172
Au 11.786475730726812 7.183876744003815 8.938943557995293
Au 13.585642357703268 9.845088621454229 11.531039673074686
Au 10.233228734945785 9.550160706901226 11.631644406889002
Au 14.442223280694419 8.281970939163426 9.419895432960672
Au 9.408548957063594 12.359692972508645 13.740449384085736
Au 7.841984343701698 10.136005843273056 13.08288039487486
Au 7.73696462153782 7.712909660529427 11.588639421676879
Au 11.549982827652297 10.169482885310629 9.36416879122149
Au 13.08386193400278 12.555895645940991 11.043140218018355
Au 9.11853595660818 8.05666148552007 9.193388544926664
Au 13.075811312075713 9.108582196272835 7.229269071465407
Au 11.620969526483806 13.906041659494107 12.912582236383816
Au 14.248415637974544 11.045428384194052 8.971699966499056
Au 10.464979660054741 8.499005423649411 6.8438923223129935
Au 7.550248499745662 10.134053078359916 10.298469701219084
Au 10.008101475799812 12.058571713991089 10.624513216749273
Au 9.09055665088369 14.768641232914339 12.48704693330087
Au 12.502115952244393 13.068184799732125 8.425718035328734
Au 11.338052746399905 11.220825637240532 6.675791902511341
Au 7.408707491517489 12.553440630457299 11.72410105488577
Au 8.87851076879973 10.501631855556816 7.882426585493103
Au 11.135742111781902 14.61913645111505 10.24738623588065
Au 7.136245170324849 12.39521468242814 8.821344705153079
Au 9.786091570540899 13.183038382192422 7.936270941318205
Au 8.387018448238365 14.51531757666548 9.90019953338967
