33
Energy = -85.22860729 eV
Au 13.51177951150365 9.81920164831557 7.510697847762734
Au 12.153614619788767 8.831633602453156 9.654306025900988
Au 10.772406487865572 10.408324608911935 7.599625260345428
Au 14.359912641604048 10.763756902662912 9.93088090885149
Au 10.774302618070248 7.993146803409644 11.825530608309869
Au 11.696656914611525 6.609220260981777 13.96838439757161
Au 9.422182520416856 9.64803986002278 9.844868265464834
Au 12.392346318879959 11.374803376618328 5.547609620653466
Au 13.360001860139832 12.614366253827514 7.856196551876979
Au 13.05475675871988 9.736916296161358 12.214186758004985
Au 11.486856141466593 9.234046795031187 14.598066011519775
Au 11.668216560078472 11.657333116448607 10.095586374884617
Au 9.187609224401307 7.617333684710049 14.239623560091003
Au 8.073475662939945 8.961753009439922 12.141450825984926
Au 10.767090020041465 13.161904100127387 6.847011530667397
Au 15.060471176376636 11.789449055882017 12.342621877679393
Au 9.164623099173347 12.358482543746051 8.907707385583937
Au 10.276541451417657 10.831204121323221 12.383480017166614
Au 8.60672184247655 10.24601547749259 14.635826455662446
Au 7.83073382948221 11.61535678286904 11.197299976152406
Au 13.51479625457056 11.014188369916052 14.76149075011436
Au 11.521859081560057 14.430338720179991 9.1218117512824
Au 14.006932768361406 13.566611589631854 10.308786895591433
Au 12.34422928518231 12.63563147622599 12.608594038729857
Au 15.513815391904112 12.891809879882695 14.850598450575932
Au 10.790766755081773 11.927930132405596 15.061241825294001
Au 9.87095328677866 13.69490759661257 11.323089041156802
Au 8.522660299451871 12.832240716954175 13.666489037509544
Au 12.922093165321515 13.738959920525415 15.264505289181932
Au 12.147374016219233 15.397310824600089 11.55968908788047
Au 14.545521271851568 14.527747400648456 12.824768474927405
Au 10.606944641125107 14.569122707993568 13.963806870570536
Au 12.821969952192216 16.25609803224374 14.07682857211474
