38
Energy = -99.54005907 eV
Au 7.8395841237795 13.507997975548442 12.505674109020898
Au 11.156783236952405 11.421879503441147 16.30093886288954
Au 9.257438738367417 12.603277530934253 14.672831612471622
Au 10.30595358344996 14.615544658833496 12.904994304271922
Au 12.685616649655445 15.898864521965734 13.447148322185251
Au 12.252172981793326 13.314953792171535 14.703613924458567
Au 14.913765260188915 14.308750467029498 14.027246430911829
Au 9.116747370940823 14.552020460656136 10.350794278391877
Au 11.64860883061451 15.621285141726071 10.599576607692901
Au 11.488857834323053 8.666740223177612 16.258567601543877
Au 14.356027250681587 15.956184781128771 11.126032492997497
Au 12.989876448539263 10.346723383904735 14.562295628163525
Au 14.85676294207602 11.684088928944186 13.148307489970707
Au 7.933821215071361 10.77795254046237 12.800940257855165
Au 9.549742451068493 9.772385283610534 14.712359283111176
Au 7.0028597872303004 11.977004188075345 10.353581775058116
Au 9.720849214152201 11.567598179691513 10.03437636059107
Au 10.972814849611142 11.716758300519285 12.709500355484401
Au 12.966191319868134 13.56418155371814 12.033350097733011
Au 12.394934206758736 11.475341044331374 10.349455959064816
Au 15.798081700259594 13.61347797866638 11.418749680485384
Au 8.899656071114428 8.043610469927359 12.735600619141286
Au 13.82824729400106 9.38166276760703 12.074301400222641
Au 8.421905300689428 13.040308670410989 8.128910368092562
Au 11.211387207122266 13.744598321898593 8.571014422517
Au 13.853846673300014 13.83829361507804 9.346133921740325
Au 15.122909843877848 11.197367636067971 10.289833133676899
Au 7.992925709885564 9.313028243030463 10.401274869122192
Au 10.869071698151142 9.407315611632646 11.254103466945875
Au 11.657979336326227 8.041231771448494 13.601721202082194
Au 9.768214407127177 7.052631412679466 10.286529460924552
Au 10.507679928935493 11.480820075993245 7.206378210850341
Au 13.274755940020041 11.667073528735093 7.762511982232583
Au 13.625481606044627 9.07845725244323 9.275461213284975
Au 12.51145242233567 7.141453810195518 11.104186845055068
Au 12.224320235316751 9.287322911594515 6.885579485214162
Au 9.86218205784672 9.070914570564966 8.407821439778395
Au 11.880075573077962 7.021608046388131 8.433696287083066
