32
Energy = -82.13215321 eV
Au 8.115865374506354 7.948727161971858 15.125929555773846
Au 11.613161878173855 8.766778893575657 8.959776490637053
Au 12.19322702536767 10.951645873830516 7.353121207632065
Au 10.960778841785759 7.56920875877879 11.320447794200645
Au 9.54481749465837 10.095753929868298 7.489841639069859
Au 10.756148694962317 15.150506253924686 8.520993728898882
Au 8.372212481995685 8.174467577423632 12.423219957995913
Au 10.336393298901404 11.818861533564087 9.71367058230498
Au 10.553789414868445 10.342907479495945 12.013788274402685
Au 13.605614397251866 8.479650301577792 11.12283806556699
Au 12.720406187494378 13.607613399904924 7.390746167239028
Au 13.962567727764322 11.026781503673979 13.267221638449955
Au 9.476179333787691 12.797494751957075 13.244356371844335
Au 7.642597723001447 10.752440831106204 11.901562333235063
Au 12.745951458754417 11.179952823939951 10.626475713498367
Au 14.618217583378147 12.372314588794701 8.919783470687463
Au 14.252690224223432 9.633476410917986 8.566577399736504
Au 8.300606728581975 14.074893334751538 8.945909079642187
Au 11.515816807354229 11.316768440528234 14.564328455394916
Au 7.451917354116383 13.388357016538023 11.404752072036729
Au 12.490594723943312 8.73603868665899 13.601578700361951
Au 10.012457993237486 12.800591913165771 7.124036616455474
Au 7.675600055417662 11.344101882188124 9.20425453112055
Au 12.192682711962592 13.19993826194942 12.661494786147385
Au 14.835905116568972 13.137477693590357 11.628662766054106
Au 10.191266146996805 14.355778654023178 11.124568696340624
Au 10.671645374428412 9.011752732230148 15.73968880056604
Au 10.386799690585018 6.917316383153456 13.869861109768506
Au 12.804164789193452 14.241186673054477 10.112591695150499
Au 8.933601502998233 8.943813437552157 9.90220576642176
Au 15.472024399309227 10.50829807664179 10.87797370561807
Au 8.741811436261633 10.502618711499986 14.425256799579257
