32
Energy = -82.96035684 eV
Au 13.263783902893428 9.015815179853597 13.328062913702004
Au 14.292112505973769 11.446028696503571 14.176009271691521
Au 12.070986644348267 10.501545650203637 15.414989013573393
Au 15.212041865466713 10.448801726606094 11.782915900437523
Au 9.402307148712604 9.88197724270107 15.249308148231947
Au 11.223801160724896 7.769849255493612 12.03199127120571
Au 13.339722614669206 8.909104355223105 10.538178085849024
Au 10.089859925531794 12.522635432400753 15.142845558118
Au 14.204362530087433 13.06611216608178 11.944760363499949
Au 11.275309593806684 10.998113648295785 12.796496273411723
Au 8.677398530398152 8.78739244309684 12.9190195693602
Au 12.423559157525666 13.422467767234593 14.089523616014839
Au 8.814377897801176 7.557203427858809 10.539236520013729
Au 13.90268674782868 11.472536217943007 9.602337637275829
Au 8.402070193604917 11.550633977451193 13.108024236127774
Au 11.430873157606353 7.44268888908361 9.251915291835806
Au 10.560549556781005 10.034316739447185 10.359376304872667
Au 11.358213709166677 12.61166999975627 10.541606993664043
Au 7.693278536238782 10.199476021882901 10.737529477147765
Au 9.894929966536719 13.9522298149857 12.858712546667599
Au 9.145339056978123 6.432253136235174 8.090215207906889
Au 12.210631922551359 12.601146805776724 7.676855254200239
Au 12.381301848588887 9.807729473433648 8.036633790318096
Au 13.557735797887652 14.2136148026717 9.455726346895625
Au 12.271303025512285 15.013574844281907 11.79076719173955
Au 8.262320963396597 9.077459797282902 8.247017238400158
Au 8.362949028284065 12.908640679588474 10.742691165252271
Au 10.004147613036846 11.058214000685588 7.059441230446502
Au 10.488907068010914 8.38711653745703 6.7042369661259364
Au 9.935289487072241 15.236801947131674 10.408979454030378
Au 7.586746942410657 11.67606405828542 8.39080220521688
Au 9.639082962617495 13.49042969964476 8.305796542881021
