36
Energy = -94.535557 eV
Au 10.48305973295095 17.43282660914147 11.829520047209446
Au 12.910598893614369 16.251859775506183 11.450318879356853
Au 14.366294749278792 14.125514131728085 10.650940806332523
Au 11.519610739773904 14.62425793687721 9.682108367744673
Au 14.369426699649134 14.875058163760267 13.376479305242036
Au 12.33642958148843 11.721740674688478 10.521387584726027
Au 11.569610396001659 16.01335101497485 13.924088910350271
Au 15.83911970755668 12.69478192259205 12.410354331293805
Au 11.983658599832816 13.573366359550786 12.447153218646909
Au 13.377474193918752 13.208421772660493 8.29273639574144
Au 15.222471381790989 11.587188918332243 9.951352111902853
Au 16.7228425454404 10.906171154958452 14.356030989266133
Au 9.177339185208732 15.988514365385033 9.940238615237
Au 13.859172675957396 10.50518369300713 7.828998512454476
Au 14.85877105085955 12.747858597842434 15.09284706787381
Au 12.849634330847195 14.443324917172891 15.701173477953404
Au 12.020052593770503 11.873728109386862 6.325234544187055
Au 15.32815767140625 9.940073173416067 12.178564451055568
Au 9.37338803169283 14.923200342040563 12.537423205945927
Au 11.302950219732383 9.807656111348626 8.588249809212469
Au 14.207402170923958 10.028293558043908 14.807365434028538
Au 8.728196927359603 13.357801353345627 10.311787137995005
Au 13.624104940566983 9.135033881400789 10.17687331994898
Au 10.334460916941229 12.414282142045986 8.349002191634307
Au 12.240002495793902 11.786398831030771 15.817045431649692
Au 13.16119845524518 8.340689071460622 12.790236781332313
Au 11.894789812561429 10.934659472176133 13.070957343402169
Au 10.301150289960404 13.63411813158701 14.835375859473226
Au 11.004834549064626 8.4683586948894 10.93825080574555
Au 11.744678687447202 9.081811720096743 15.271794380910201
Au 8.918432387249144 12.229315829810634 12.799364170896704
Au 9.410930404195181 10.730867125262122 10.442335746415486
Au 10.694550311849893 7.27745097703438 13.380943230977833
Au 9.597183617208007 11.035106834187728 15.246499030436208
Au 9.170448432200812 9.531325946669062 12.87683139083633
Au 9.144401766712102 8.325679436241616 15.4293076850271
