30
Energy = -76.46201821 eV
Au 12.948226015889526 9.424731563519467 5.453069653176265
Au 13.252305360456987 12.061287513609821 6.2032642992309786
Au 7.3923931251021475 13.539320493502924 7.8683220299652445
Au 11.043985310951259 10.547479399104365 7.050814023636707
Au 14.761433451891618 10.060708344804421 7.491638599630374
Au 12.562413799675046 8.362403710430474 7.96415527208254
Au 9.551598509118174 14.416452548634926 9.343680203948244
Au 9.17771484396278 11.653430791646342 8.67298198855373
Au 13.765428796014307 12.124670937679008 8.984071622743667
Au 11.43576387180576 13.269298549153973 7.761231827813886
Au 12.131723093737202 7.420557049151737 10.450194398148058
Au 14.122512689906214 9.463308521202428 10.068185536678358
Au 7.312230199475302 12.918132947720224 10.48868694076097
Au 10.410382581576489 9.362502957626708 9.43860078939328
Au 13.431820568501923 11.595424088661202 11.659707850960688
Au 8.172675314438013 10.32333366961812 10.96912109740387
Au 9.86481188975959 14.180350680738192 12.01270207787267
Au 12.016668521611944 13.631220763392232 10.448544815464022
Au 6.045766791276521 11.283613286687725 12.383336944871386
Au 9.805013194282582 8.363787343273303 11.890558041849614
Au 7.56191028109336 13.413691283671154 13.20073514677663
Au 13.330630278244575 8.917337666279 12.597923054762962
Au 10.659494329313556 11.349551731536001 11.504206585011845
Au 9.249754156447993 7.325143197136709 14.394391977297026
Au 11.537825225581923 6.573069561383247 12.937182497029234
Au 9.925004765281708 12.559454784623865 14.188356223957005
Au 7.502154206522738 9.184332363375745 13.40141354274797
Au 12.08974876491982 10.95895938266316 13.955836514653317
Au 9.69274000078229 9.991235640147217 14.902266283496223
Au 11.900038494368312 8.379377661015718 14.968988592072606
