31
Energy = -78.7478199 eV
Au 9.764905303957077 13.290956269051637 14.014996371932616
Au 13.814025283425558 12.251920839985258 16.51144649466262
Au 11.014803385262455 17.762418276508345 12.97309005559888
Au 14.511197402333485 15.405993879170632 11.431719760676266
Au 10.107443667230058 15.928364883602363 14.774778459529243
Au 15.78341313026849 11.142941827775292 13.436670458511118
Au 14.323292815410234 15.099780498924272 16.71095180139342
Au 11.677428535074501 11.459759357592695 14.986718496074152
Au 19.066338863202528 14.461241873709275 13.926930969101743
Au 10.088534264225503 12.969333613399975 10.82051345920647
Au 10.157348427464376 15.342743818989131 12.05352332294655
Au 18.834995469497105 14.081612431913118 16.773560872428533
Au 12.110726024995387 16.651685045411135 10.62652949436252
Au 12.930254830453148 16.550228023801534 14.679992022108213
Au 15.574994413059256 16.725082172363372 13.560998351003859
Au 16.685167627219652 13.857367766588176 12.690153720646286
Au 11.910720743304923 14.138969946143064 15.731273919358735
Au 14.615480301970228 12.620552302281412 11.38153052900156
Au 13.835844988344233 9.770261995933405 15.15848113205691
Au 16.286064859016268 13.031864644826964 17.38999124452958
Au 17.807077536647483 12.261691446766319 14.870189456012413
Au 16.128964104408826 10.63830556507747 16.20927174837855
Au 14.312799869843047 14.106296293436923 14.086682992497618
Au 12.196937770530138 13.254185960283472 12.68442965168822
Au 10.476322605922656 10.879251120496416 12.58187818312462
Au 12.309846006210911 11.35633861837083 10.238391180447556
Au 13.671496312179764 18.106056220239942 12.319140452240585
Au 12.55055608876951 14.09493640594906 9.987255852427676
Au 13.253173868103554 10.438630218873318 12.634020150771004
Au 16.697938413242593 15.626979215642105 18.005656843232355
Au 16.771648077072104 15.098014661534421 15.29269936164069
