35
Energy = -89.64213677 eV
Au 10.992408013246823 13.192892610595226 10.51224775693588
Au 12.046472202818643 12.605091221493774 15.99249656638502
Au 12.578310061074609 7.1890786049854505 16.987014719298937
Au 13.486331031597503 12.628592305529061 6.561062602342464
Au 13.172080851642137 7.6875932224442 14.393868261166311
Au 10.762830249279103 12.324092537323816 13.046786503276596
Au 9.441374870950701 14.154299233093486 8.373412961393402
Au 10.732347783765892 15.920138814950144 10.133847113264874
Au 9.546975788921735 13.606062749918072 15.195029764875523
Au 15.298115895947914 10.657034753500852 10.399254380341578
Au 9.881211103293241 14.969377060767794 12.807154834357688
Au 14.991962711003941 9.6313078075627 14.983995028117873
Au 14.190189575912008 15.223661204608863 13.28961138794127
Au 14.162155537008859 14.45718935541324 16.00381276631534
Au 10.929077857160724 18.45310818181562 10.851701317168159
Au 10.617633208290638 8.337015708051446 15.502773351907816
Au 11.763250970231562 9.832416174865932 13.394771147377577
Au 13.397571899160747 15.075702598522168 10.666806702912753
Au 10.92247721236569 13.124988168074772 6.242918053417755
Au 9.952585684521205 10.903355482728381 15.32719208063291
Au 12.846824721922973 11.449385469771498 11.439061624084504
Au 14.249922641392379 9.079399312468485 12.332457624554916
Au 11.860539256398416 15.047120105532873 14.706724231276644
Au 16.60366266902901 13.61396571340394 16.93606535151737
Au 16.107127001811726 13.516411260509717 14.176787988398965
Au 14.584046591637525 11.77556468016161 16.730466658632864
Au 17.09041242914424 11.293595828485275 15.504677086957305
Au 8.253630819728773 14.706175037563154 10.726521328651481
Au 12.09174390392787 16.77882357503789 12.549435506194945
Au 14.189437054211156 12.79066818092043 9.171146291110025
Au 12.62545759514402 9.938374789950124 16.506099450211412
Au 16.26528527711553 11.011116771631045 12.913250936913093
Au 12.2539273958137 14.467535292987378 8.25029438430416
Au 15.281191601120565 13.296457195941198 11.616491666143654
Au 8.304808766566829 13.371598724292118 6.1323785809042075
