39
Energy = -102.64810111 eV
Au 14.28302085653507 9.60086497409322 14.04929028234177
Au 11.710721451273958 9.69898299326738 15.226639922468841
Au 13.442137228207555 11.969921622621964 15.12197133766936
Au 10.328603938939068 8.051856065641346 13.49008880506942
Au 14.747769770626542 9.525409425569716 11.341829181204877
Au 12.859080554443562 7.837730423908518 12.480908166479399
Au 14.650842664946605 12.102034933223372 12.616942868223992
Au 10.764763991223404 12.42654585358946 15.21941196979474
Au 8.9770753962944 9.998849852945566 15.023008316065525
Au 12.10197105742046 10.757341597316563 12.640662788884306
Au 15.327613029971921 9.344365924212875 8.644875088429753
Au 10.708708274607138 7.0309394807314 10.955444978318628
Au 7.729933638695803 8.557773279147286 12.888823559535787
Au 13.128051268768605 7.866515850894002 9.680161948493323
Au 12.54737506957941 13.910758332421462 13.455507627862735
Au 10.14066095149754 9.849994482984393 10.918649671786174
Au 15.166642368843211 11.93187388826267 9.936548902589605
Au 12.569342190180487 10.69922261342508 9.822356370496086
Au 8.056819121263835 12.879298351350139 14.994949598303124
Au 9.447069640325484 11.64468893326981 12.770892009407746
Au 11.200611175519112 12.764371816007095 10.919106932345828
Au 12.969481902105512 9.525596452234119 7.320270039794797
Au 13.878350994973314 14.202869077162543 10.960667720714401
Au 15.25717370961231 11.638399836835076 7.21364751916747
Au 12.572589716197323 12.410166953647977 7.486686158278947
Au 6.66694230560256 10.896369115074485 13.802448158442706
Au 8.377585948234428 10.37059440211197 8.600210527019453
Au 6.972487509000585 10.47597169178458 11.04500040889233
Au 11.518119341146024 15.586261792260892 11.547622647810403
Au 9.764626806158637 14.434958509812605 13.403246670789468
Au 8.201413285860468 8.057356355469409 10.20973761865696
Au 14.627734983654605 14.118426392837762 8.245092301483792
Au 10.582843926252497 8.400917839640897 8.530489433372619
Au 10.522252517770397 10.658010267370406 6.961253903258467
Au 9.102425078048277 14.609567274647244 10.649714551424799
Au 11.939268022578622 14.65857955799136 8.967694022185666
Au 7.230376934444939 13.221231635958882 12.292972749142214
Au 9.859638404294136 12.922690684896414 8.334312113775919
Au 7.439580248454626 12.734396738931254 9.602568403570226
