39
Energy = -102.44767606 eV
Au 12.912215940301083 15.665653290237072 10.787190951357589
Au 11.02385003603696 13.757209593277404 14.59383479636471
Au 15.450429459259656 15.01870662241255 11.586194015692255
Au 10.597047404720735 15.597683799585077 12.432746815925023
Au 13.608125438342798 13.007826385707757 15.386110814283578
Au 14.086224630587461 12.773548200860676 12.56146943406545
Au 14.686759380361057 14.551623575101095 8.99616124381229
Au 8.335974507052192 14.826487320796248 10.87481608970877
Au 9.10395491646877 11.94940710474602 15.389350959117944
Au 10.560414240158194 12.96854833065179 11.638477423172931
Au 15.865717308681736 12.374267388772706 10.243252041576559
Au 11.964667508935843 11.049159995035076 13.156826751487426
Au 7.7635112296170385 10.811275967039238 13.22348421603197
Au 14.259664753560115 10.274138741175001 14.689973721333164
Au 8.443676740472496 13.621555676895381 13.338942515043803
Au 12.298324940040946 8.432379139903398 14.621495518148999
Au 11.709224308553209 11.084145995662036 15.877736691885
Au 10.529784005430031 15.675490468558905 9.558612519120807
Au 9.787252604309705 9.419109440342947 14.603101011366748
Au 8.415170022826455 8.048481015969465 12.728645618485672
Au 13.09041373778267 15.232484005798195 13.530472760973469
Au 16.290304143593623 11.989852188192591 14.847275923115207
Au 11.118096368873855 7.815076968215811 12.225162531943546
Au 9.974794805310323 10.304977042187351 11.370937355810408
Au 7.682903720561721 12.19093350240775 10.803209669573464
Au 13.708957297622431 8.7798454008451 12.233079102562485
Au 12.639221427313453 11.620071120127093 10.538348826380526
Au 7.107279674475653 9.526956682975017 10.790355445941964
Au 15.672384729782767 14.605298358657398 14.282684818155408
Au 12.123428575680997 13.835478297393328 8.365502987661412
Au 9.49729673426712 13.126174697129708 8.862675565552465
Au 15.867039582141189 10.566191943806986 12.394961004253965
Au 9.287697848197318 7.919086827578073 10.00545097153011
Au 11.386757629410212 11.138543636978063 8.06780329385239
Au 14.072895281004866 11.901995552366266 8.14794123256102
Au 11.983170965334129 8.92872915831085 9.777854424327334
Au 17.282126964139856 13.090799047030231 12.499025751387395
Au 8.859622596122325 10.429912460163104 8.794093132393577
Au 14.66890085673987 9.80617737117809 9.890024368114197
