32
Energy = -80.97184584 eV
Au 18.386805559026936 11.11182638124853 13.444091568625492
Au 17.453636545687726 13.230282509857425 12.194701638629287
Au 15.830439794187335 11.084168517389315 12.750438842942842
Au 16.64303519610336 15.248870406122519 10.738064951660592
Au 14.117375099678787 9.232451382746696 13.628175085693393
Au 14.793136669694148 14.291776556938187 12.593933685891908
Au 15.333335645791411 12.644008987158244 10.338736240825394
Au 12.234612571186478 7.369557796325218 14.470368891206578
Au 14.123546109081813 15.123001993342351 9.745718977049531
Au 13.357684430122646 12.053069597035602 13.639872272019442
Au 13.64865208175789 10.606164036761234 11.082378670950847
Au 11.899789586604562 8.7700468488589 12.072565436628324
Au 12.838042521034508 14.648539724100823 14.40393635560966
Au 12.18880492625078 14.417846289816747 11.62522694033319
Au 11.573182315700157 15.026604446155012 16.678860091415725
Au 11.774652912595453 10.076746380864181 14.8114892297882
Au 12.534569841227196 16.96168135000846 8.739132732685272
Au 11.369822186118615 12.514452412548009 15.88238929430971
Au 12.735680310444993 12.588536487510392 9.409462911159398
Au 11.08931647366931 10.344738480232017 10.010785165290576
Au 11.13250155983704 14.709070937439964 8.749124456248957
Au 9.284304491306422 8.66381239189359 11.135217699490005
Au 9.777296244027267 13.330342821293238 10.783449749592917
Au 9.7467348068308 8.275692548126639 13.992230422283157
Au 10.058499112870699 16.984528213497693 7.816931750826562
Au 9.23308881710112 11.048511275921536 14.76540850648355
Au 10.57941789635751 13.084039581320665 13.351791212731332
Au 10.117408703164266 12.251376931354821 8.301894229946068
Au 8.336485946147798 10.978046587889732 9.985253296366151
Au 7.734452070753179 7.020439701677596 12.58850037724463
Au 7.4612859141475605 9.645985213829688 13.22095430006374
Au 8.085759301809512 12.137138851051414 12.522270656325311
