34
Energy = -88.80201973 eV
Au 12.641851341544088 16.447325849961135 11.775349715976231
Au 13.390533251520974 14.373869841710652 10.032390365252944
Au 11.079182863734204 15.878667543601926 9.549511940655727
Au 13.717675640215369 12.044431136821249 8.657318279162972
Au 11.260390090770807 13.452211566542811 8.404745800355656
Au 11.849600736494036 14.632807483260896 13.823799903782918
Au 14.623470869795149 12.211980868474006 11.28249201392909
Au 11.48455955177264 11.008425864096063 7.273838735881752
Au 13.970841812272978 9.590688898225899 7.433741092718444
Au 10.000182805838058 15.768260272187442 12.131397842149498
Au 9.123667659779414 13.964049507137469 10.254696398478009
Au 11.261115939609521 12.791220063690053 11.717129548879168
Au 14.436602742728278 14.613382245882441 12.618018710806583
Au 13.485142612820589 12.358598100978321 13.850582339888442
Au 11.771208778947546 8.415402941052138 6.303599846442469
Au 9.16624463366759 11.662087868868229 8.745755271362412
Au 11.331563613148004 10.53878409714179 10.250242005121448
Au 12.606320361419803 8.035662280158888 11.696271752423042
Au 12.224043297574127 8.043035915395665 9.008879909007486
Au 9.687384400194901 8.956953670390526 7.9652748517325715
Au 14.455116610597043 9.916212220933534 12.848967206451228
Au 8.287127884685908 11.646687809967423 11.498787846609815
Au 10.98437492979723 12.335882398530432 15.070315649084282
Au 7.782619295635958 9.510766650034796 9.793781613371873
Au 9.035925393180587 13.590737083822363 13.369444790336221
Au 11.589019557731232 10.421907103115792 13.000608256564382
Au 14.261576489040314 9.70321335850937 10.130472035281635
Au 9.954913301096255 7.977246452141022 10.633732403575552
Au 8.616694726281388 11.06233460941147 14.221824460396578
Au 12.859095574440241 8.335204895372309 14.438163568595254
Au 7.952933688312674 8.99699941664599 12.406574553481862
Au 10.700632275834213 9.65007846818883 15.598962365687427
Au 10.343788686265835 7.796305584167817 13.366754361202073
Au 8.269534629847294 8.45167669929558 15.040367089235724
