38
Energy = -99.36338669 eV
Au 16.733254567072887 12.699507911065039 12.763215660938618
Au 15.767218410802833 10.137187128088735 12.525422442708901
Au 14.918720591175031 11.785161627255045 14.648155556119857
Au 17.147046815028293 11.291580642027375 10.360375214114958
Au 13.077136802334387 7.4498940151360955 14.359541699739749
Au 14.302519009000639 14.16945525204686 13.084989543586493
Au 12.754533420140906 10.126044132080699 14.917173387331475
Au 12.37535683253504 12.964801802209061 14.810616579209096
Au 14.757000930370145 9.819967080371434 9.917038851861081
Au 10.510422162197344 8.33303835889684 14.446751193030602
Au 15.199919564694566 13.312537530054017 10.525581612379519
Au 9.996813045450567 10.989676101619647 14.764327557979223
Au 11.739404708073828 15.209001201981755 13.265365200799915
Au 10.708356580099844 12.499526469138225 16.890073361581766
Au 12.095896150116143 8.841420552176846 9.695725050867791
Au 13.802159479239185 8.403278528172436 11.97836665609514
Au 15.618345816646293 11.70700966721194 8.169072190146682
Au 11.336325107104583 7.2094549452729435 11.964921313489274
Au 13.339918150913173 11.641985026912417 12.37872424970949
Au 12.026358666306416 11.889511261395073 10.04393344463669
Au 11.157879931887267 10.030326962460585 12.197419569661548
Au 8.445657481399406 9.394852718593487 12.998683372783248
Au 13.589982126777656 13.49773823645669 8.244234405256094
Au 9.584652482648549 13.782741104559276 14.724665865414417
Au 9.403151593562816 8.590488153045468 10.499582828120053
Au 10.007109118763466 10.463076139264116 8.618777725679921
Au 12.981261760226854 14.884155333080322 10.717780210907808
Au 11.112850770775744 12.580709359883848 7.299851689483064
Au 13.038560974336106 10.613702582023697 7.792160884781754
Au 10.638293017759674 12.751771596292762 12.258795843364897
Au 7.629101627147806 11.956241418390864 13.547923683875915
Au 9.075219375138138 16.076161506521004 13.27534366310045
Au 8.402223739718393 11.208713789271092 10.877683370649217
Au 9.345183773989737 13.244189754052531 9.301240014619376
Au 11.334957216593871 15.05849737991742 8.487243756778987
Au 6.94154945649984 14.541997851033445 14.088964760734564
Au 10.278875054800588 15.549405273562632 10.89304707212991
Au 8.103437131924146 13.930861231416689 11.63128081612737
