32
Energy = -82.72755792 eV
Au 12.853462908980477 7.7298569108191915 9.973057051476014
Au 10.265243914279234 8.16285894178149 10.648409081118821
Au 14.603519113882708 8.292213945567964 11.940508192552892
Au 9.674035035588346 9.050482212184964 8.127806325108908
Au 11.979116844778664 8.34489692265924 12.734818494840244
Au 13.949627115396696 9.68869621560346 14.260417954471432
Au 12.368806832787715 9.538831899758735 7.995236636163418
Au 8.0517521635618 9.721322957683475 10.392868075417583
Au 9.347184743174916 9.249398872912217 12.998945116290205
Au 11.326522197942982 10.376300697939799 14.679457522605334
Au 14.522566994804272 9.994170055615585 9.73039036009815
Au 7.00082186435996 10.580887025669355 12.738713997790729
Au 11.00859421905865 10.918353916297331 10.044461976113352
Au 15.673623108581841 10.757142944684972 12.185227076705557
Au 8.51289119728588 11.5424920690203 8.334398955975526
Au 8.82169786981602 11.472380862795498 14.73749656831357
Au 12.742875732780885 11.153833750224988 12.126826987968398
Au 16.351848351701584 13.38793775990817 12.438837640110243
Au 11.089821953765872 12.17477728025501 7.518130644607284
Au 13.800432925692352 11.902953433013375 7.851039422851898
Au 10.07921878718629 11.98924640785692 12.326411721368281
Au 7.438596335361375 12.453438601310362 10.667346916399328
Au 12.483358349361236 13.552106863633142 9.64993355737831
Au 7.064814533706225 13.221413028583907 13.323426148968604
Au 15.122288049364885 12.68458049832906 10.088309261490666
Au 14.540828405638534 12.379808499874146 14.27006901313989
Au 11.947651743473275 13.183024628082727 14.253623171463882
Au 9.73716949689163 13.713150351404 9.50099642854067
Au 9.499098620851965 14.258236802666433 14.094636498715838
Au 13.69078618241772 13.998305599767729 12.10987329530141
Au 11.106574785647522 14.671949134848036 11.78176480596882
Au 8.408070428686974 14.893856905843954 11.570888857898085
