37
Energy = -97.15198228 eV
Au 11.023649080161755 14.240588030331462 15.18084454802084
Au 10.253282097762824 12.689729185002252 10.677672744655233
Au 9.824757712029546 15.426450949444597 10.690480413614107
Au 12.622234414595836 12.93902506524244 12.083764892039262
Au 10.636447570572093 14.49678177709333 8.106522099988105
Au 8.054365024941836 14.251776879827798 8.56810744579654
Au 9.192470398627162 9.859113621317215 10.130841983722586
Au 12.575776772563312 14.939684802074257 9.961718699435368
Au 12.180507582663672 7.860691717222861 12.645126577533684
Au 14.760011382393865 13.079598575767047 10.048988937113101
Au 14.46956863030043 10.7003128672378 8.664597993006993
Au 9.809800227385312 11.779222754949851 8.08960021025233
Au 13.510495806042409 10.693230105543897 13.373729807735868
Au 15.525971166150144 10.582620673466554 11.16198463565416
Au 13.68615186759783 8.553003352296153 10.186361710214525
Au 7.361499555331703 11.7093866971769 9.629725977910727
Au 14.965447978286191 8.273709716006477 12.605764277653444
Au 9.359733278422434 13.997001958454767 13.133872270216093
Au 12.401143173319616 11.997907977351876 15.758665486825835
Au 14.214830366350744 9.899371421623421 16.007673001808268
Au 15.165336559920386 12.420985308404697 15.500722173871022
Au 11.79992713925257 10.466049299968184 11.248989984871349
Au 13.640061255014752 7.507406700079748 14.91716402586571
Au 10.985843657403851 7.860238645745023 10.215752432023661
Au 12.560395451599877 12.600633057232425 8.356856527870468
Au 15.555537035041322 12.856770287541575 12.757399288326713
Au 11.523800376921447 9.414307558973345 14.968010164184449
Au 7.42501793875168 13.973560444976629 11.307908133711246
Au 8.284146749613425 11.46170988127343 12.353107984891809
Au 13.64726583683626 14.3958133091966 14.434304116851175
Au 9.746372713958685 9.199501610578956 12.844006295802872
Au 11.79694346896307 9.893960725393232 8.454630027920878
Au 11.73673003868598 15.554337138646588 12.708151735833399
Au 16.246766371462577 10.370516212580865 13.911416952799497
Au 9.961501599290575 11.627652517059493 14.505155224794338
Au 14.451814177430244 15.209906576833982 11.907136029889498
Au 5.524312980416838 13.69736003414622 9.38316262335704
