32
Energy = -83.10215392 eV
Au 8.650443327258134 9.62338672380948 13.641203190918622
Au 10.375218541878986 7.837631977860632 12.195838398783867
Au 7.928117035846126 12.178542895281332 14.394329740560321
Au 7.343629389997015 11.317100057354397 11.806416223086584
Au 10.44836970684654 11.419750932773677 15.015565773601766
Au 7.902963594645479 8.703465085448212 11.147546515674327
Au 7.4497919501698044 14.011852461988273 12.423096838277631
Au 10.86744300709519 8.627707087587899 14.850997725717736
Au 10.211672094664008 10.557595010250754 11.314218873523245
Au 7.416203495823382 13.216371902574538 9.738356097783683
Au 9.90581103008426 8.176229748561045 9.41247838914711
Au 8.377746016950617 10.708932941905951 9.210852931592203
Au 10.064113896315371 13.620845961301425 13.376429621882124
Au 9.552622273657366 14.695102698895527 10.843525758539514
Au 12.93342640896187 10.32368498315433 15.404305733651736
Au 9.870999472287638 13.002347827831638 8.518840002104763
Au 12.839526609599217 9.08303040574783 12.943956347558522
Au 12.627445831375692 12.766706198961904 13.976394445488792
Au 12.539589621600227 8.350775086141661 10.3794194630675
Au 11.04102597870115 10.515409972397833 8.41548743541636
Au 12.128349201242418 14.44322702657946 11.732839006554606
Au 12.114041314950846 8.052393778752094 7.709952506258293
Au 12.618683413822403 11.666494559673758 11.145742066945248
Au 11.53566635547705 15.121455865139069 9.040566242876883
Au 12.687675683452122 12.702670796005231 8.371825501807391
Au 14.823075668332045 11.089313266525833 13.655964172582216
Au 13.787669822962709 10.086374758055488 8.465460348431005
Au 14.805552333715676 9.741998187216733 11.090133207378646
Au 14.676456809612784 13.438673892567495 12.181854456749349
Au 14.131573989133818 14.719531086746978 9.78673110543184
Au 15.145605948946821 12.155675542150853 9.570636839136931
Au 16.732904494985796 11.582743018885463 11.764251285933108
