42
Energy = -111.3325934 eV
Au 9.015403383866605 15.393584171802638 8.849129809291211
Au 13.003251086600004 15.462616444271067 12.653310681172687
Au 11.012595370032335 15.355585280486377 10.720333699214205
Au 9.151825062206996 13.671473428876151 6.728373068810129
Au 11.542969131700522 14.487318252516008 7.885770469115119
Au 8.556928959178453 14.223193642470378 11.312541903426995
Au 13.547486384799216 14.860121332533817 9.736917219988898
Au 10.481169520360739 14.371388082571663 13.310786616976143
Au 15.148205134026025 14.64348848773567 14.246042433587608
Au 7.482537900776092 13.081143741691001 8.918868474467294
Au 13.480159541112256 12.430492424782333 8.4478641389858
Au 8.090767439573108 12.90774382695677 13.638264511160877
Au 10.487107802568856 12.487999709453153 9.581637617924272
Au 12.655636687179394 12.96292728106506 11.598852723090367
Au 12.613189348726447 13.757004760189014 14.902940428547108
Au 15.432221286111112 14.230222150701733 11.57151877777495
Au 6.459173053058243 12.368887854644612 11.354966791878804
Au 15.0839001607762 11.650176292560385 10.526930093769577
Au 8.507673174764362 11.066291842239957 7.3016269081128735
Au 11.20637229012448 11.782815233480617 6.937485030629345
Au 10.313779451149239 12.137360242769532 15.115531027495019
Au 15.389377120270787 12.044867630934885 13.301416929183361
Au 15.060844115020736 12.60234936228907 16.045347893764742
Au 8.11748246563123 10.53513331349088 10.004735490676577
Au 10.183666925739496 11.597164110902105 12.12456478213835
Au 12.3681978028043 10.467570605289815 10.602001884163778
Au 10.271914415213582 9.464710783421038 8.649561386530591
Au 7.914185774129709 10.754300428687115 15.360865374645709
Au 12.593340674670428 10.826941264368875 13.402518343856567
Au 12.642913600737222 11.310035695144023 16.217462229540445
Au 12.904312874961692 9.786300475334562 7.908181312629624
Au 14.795683752756961 8.986855322535884 9.693386558724908
Au 15.121325125441322 9.505687168003648 12.408143351520481
Au 7.757952003234072 10.20676608997444 12.66630698537691
Au 14.902360605100348 9.978944306715755 15.183144901962372
Au 9.775599964616207 8.710840562838994 11.315382793855598
Au 9.986062048270853 9.347646152571784 14.097606822010365
Au 12.10247912857367 7.8095106115566395 9.955417996666196
Au 11.88221697869955 7.729229192503597 12.768075465006355
Au 12.3408633951121 8.750565812541588 15.320380504773116
Au 14.264495427776204 7.035860558771996 11.535475714643333
Au 14.481620593036963 7.431402363210224 14.225969395421162
