41
Energy = -108.54462597 eV
Au 14.859990069934126 9.483542122775445 9.948802341546653
Au 14.759972390693196 10.185730190065355 7.287046730315316
Au 14.874164011428524 8.819538690268697 12.563286476318483
Au 15.487047253490784 11.473657547816378 11.809554175440134
Au 15.476367211405831 12.14754481360294 9.139836991991737
Au 12.477028805671445 9.090635457459282 8.487637415359638
Au 14.634101661358867 12.871791741838559 6.573633522019337
Au 14.885146030600582 8.116848041074164 15.217032777401448
Au 12.419959368910689 8.462377018989416 11.206098878617851
Au 15.11114650493554 10.823996793273398 14.505382125303665
Au 12.740169570557207 11.559034093448604 9.95161073979908
Au 15.113241126249779 13.486607244497652 13.699763042223712
Au 15.413305082861646 14.198386781494756 11.050396413009473
Au 12.293031009292163 11.39155668197564 6.944787408192479
Au 15.155601000089597 14.884050445030077 8.38985810194693
Au 12.403850002311641 8.411216416532787 14.056838067175454
Au 13.268543232403708 9.922308058211444 16.428655321497864
Au 12.693126268408372 10.890301193050481 12.753528405870082
Au 10.229013592237523 9.720072455956574 9.923465449796412
Au 12.848847929014134 13.551436619427971 11.941643630610026
Au 12.528189381126325 13.895380640869453 8.117484709849744
Au 13.664213174139658 12.716514060214491 15.916261093920236
Au 10.172630067912674 9.277028003285075 12.711265636551385
Au 10.424098641607154 12.159813398560102 11.521843731449875
Au 10.692686841096117 10.205098153226032 15.349563222287955
Au 10.262941887898538 12.261445363390715 8.497794034079943
Au 12.94690336512854 15.060240116556542 14.418950934910875
Au 13.166806488414103 15.696439734354124 10.1265482023017
Au 11.609557831480846 11.695923960105972 17.584546059035308
Au 11.185428139509229 12.785918071888977 14.132452702070708
Au 8.071073624090204 10.538056822795935 11.380168744042518
Au 10.57549520252447 14.665999549243121 9.945733127342793
Au 8.577816051424572 11.328891971856656 13.97907758155776
Au 11.530465476299037 14.334211112852293 16.748771103293826
Au 8.209807896119415 13.151931551985955 10.025728091074809
Au 9.387168026791601 12.600718612132935 16.314112886962864
Au 11.443092973935189 15.9972528968924 12.260923161417496
Au 8.924162593996032 14.739441289970095 12.203885744776208
Au 6.819289880484644 12.811725894907127 12.365573722875991
Au 10.14310612223765 15.420212432434356 14.621445095612492
Au 7.770082303715456 13.997481485211038 14.641966676121532
