43
Energy = -111.0077215 eV
Au 16.06833756853579 14.384911930067853 9.331385836416317
Au 17.285753774203048 12.604411292306581 11.10269482523932
Au 17.086169534921424 10.955389439891478 13.291693457306677
Au 17.363343384775263 13.569029198843303 13.792716541917109
Au 15.86715325754968 17.563842969193555 12.784980655775163
Au 15.640983151572977 17.309715888146023 15.617528275161881
Au 16.485865028885158 12.10877990187436 15.901235869620496
Au 15.257727371852216 11.697945244480671 9.48938459011525
Au 13.91096807209451 16.217032410208382 8.740600051760541
Au 17.781594037549254 16.271594912449416 14.186315884850416
Au 16.455850854006037 14.75786925737555 16.095577124220494
Au 16.8790717704161 9.880560140387825 10.810763902803414
Au 13.358056286494772 13.63043162071848 8.984863577996604
Au 17.392731052608084 15.2849770813355 11.669274286384507
Au 13.416866422993163 17.860896624936633 14.054408911463335
Au 16.024522928290732 17.055147781374906 10.136370155732397
Au 16.324457247059062 9.46565570083347 15.432694674462933
Au 15.398636099884849 8.786674639856287 12.915090893839755
Au 14.30629165903938 9.182506061022272 10.346912382492896
Au 9.641793622379769 14.797240107960485 11.727135763776024
Au 9.099054340613533 12.17736313941944 11.873106995638652
Au 9.215156607245797 11.064365478942888 14.915567290272532
Au 9.363382755109328 14.913939679162192 16.384199372866718
Au 8.79200041722574 16.158646098511166 13.892079825778406
Au 11.364008999488194 15.96094389932533 17.93010347942187
Au 11.829220099487896 10.510684621658422 16.7527510785421
Au 9.752060217903376 10.5836753313907 9.670730661456277
Au 11.681722611494624 15.65640975816445 10.113791386834752
Au 11.097818484229233 16.76524931020407 15.28801295055875
Au 9.94142646101907 12.284626692269045 17.234881689458753
Au 9.982926781747326 9.71743253666695 12.298402834252444
Au 10.725458493473873 13.11227708075719 9.835325932543599
Au 11.293357574170475 16.710208748620843 12.6553966121549
Au 13.65945502214487 8.938060555722604 15.120839979692118
Au 12.720690705356601 8.4255878108882 12.579085841440651
Au 11.049669645733529 9.070829168342964 14.612100329367625
Au 11.626567533666396 8.763108622109486 10.148734579836066
Au 14.497867507829206 10.668161373593408 17.05844078089287
Au 13.224728651442492 17.583226837361355 16.758449861236787
Au 13.539844701178179 17.298097282959095 11.358271464723638
Au 12.540453978877213 11.1088159911835 9.180942592470807
Au 7.571014393018376 12.908768282635984 16.141576385507108
Au 10.956477903013727 13.705446507428217 19.256117424296892
