40
Energy = -105.96549158 eV
Au 12.699964076093963 7.309793884731094 6.936538972134523
Au 7.939317028144915 11.345315919163864 10.273649668782035
Au 9.17807254306508 8.878281934818508 10.825300801334187
Au 10.810651910365657 7.834035597961434 8.844938002051661
Au 7.852757807205016 13.255074789759496 12.23410156030321
Au 6.96557750727658 15.77071806369028 11.637575751788846
Au 8.104659533664812 12.380921748449529 7.68883735851838
Au 9.712664649049632 8.27675382714024 13.451941310742594
Au 8.5635249452135 10.694048626626708 12.882679064229213
Au 11.547828237622927 7.503041813749259 11.500450257168806
Au 12.456557057207448 9.910408605494482 7.776183676351463
Au 9.451829428863412 10.09062344585316 8.295952268395373
Au 9.418195907430349 14.079817731305106 9.387147863919306
Au 8.267054388583958 15.461640439209306 14.039913563354288
Au 11.608634107485276 10.458956382010875 13.031953148775827
Au 9.215296778506984 12.887973685809392 14.638889493650627
Au 14.625626064014133 9.774952212484523 9.755078623924303
Au 12.373286453262796 7.851295431039564 14.10082762636321
Au 9.989476077496848 10.350474219791831 15.314578546796342
Au 13.510196302982987 7.326230720059526 9.485724451180381
Au 14.246809382621025 8.07417320884181 11.946966260834666
Au 12.681057795799374 9.979495411907036 15.810338582123505
Au 9.729353698385877 15.515198644158918 11.662242783301783
Au 11.027168466308666 12.32178709725102 7.91649602733779
Au 10.790921229984516 12.879663187263166 11.80807440366856
Au 11.503975984324883 10.608591995035505 10.294769526631368
Au 13.47839814693895 11.92216738473759 11.728675795237102
Au 11.895992895908497 12.554069336224556 15.268051885572845
Au 12.062305873570496 14.402560793720301 9.461116960827548
Au 13.68115038514791 12.264675494292792 8.731988721451556
Au 11.015768066064528 14.93162991128269 14.134644333080024
Au 15.86163404965429 10.319110091597693 12.327713402827674
Au 14.908976921557205 8.930150055083741 14.455808459753303
Au 14.47724571280023 11.659835274528078 14.56121814964292
Au 12.449418078177773 15.661118028667037 11.84019535189237
Au 14.52457892383517 14.332812266611194 10.636295945885648
Au 16.049313852396683 12.067679430494419 10.161917515978299
Au 13.65143310987937 14.16560037380551 13.750307669626944
Au 15.97327554256583 13.12261078480535 12.742115928558903
Au 6.730613537010264 13.877274607011879 9.689362742471268
