47
Energy = -125.7064709 eV
Au 11.822549466090509 14.475207692673466 16.92744792324373
Au 13.135719886773234 12.077072796234646 17.408327583218288
Au 10.005809298490972 14.564547036285264 14.885981428807813
Au 15.280450929844905 15.845070713691811 14.196071283793128
Au 12.518215878171622 15.926749368874342 14.707296285562897
Au 10.724475477253787 12.094050470832551 16.05357114933272
Au 10.408513525010928 16.326130240605075 12.828830981139252
Au 14.397916891821954 14.094440358174554 16.0458001698514
Au 8.808857180840175 12.117645324121431 14.060466395420095
Au 13.652025287194895 16.829475832312376 12.314949762187167
Au 15.005654155172833 11.35905426060874 15.495310184278125
Au 16.538737578732743 13.404462015030477 14.316229468287434
Au 15.983184712205793 14.637172199316781 11.841241332455848
Au 12.598179545454911 9.942353605240088 15.768768342418737
Au 12.247264498380236 14.375153442684061 12.274832971189706
Au 11.744745739904475 16.73528466484442 10.412473071161784
Au 11.580188208335006 11.86800280895326 13.378485898959509
Au 10.075528510013978 9.796301535557186 14.58799926309987
Au 8.295335855925957 14.429071218446701 12.683891820036141
Au 7.019639455743504 14.04585456650552 10.206745527863157
Au 14.185654827278922 12.656805208834916 13.014339496865299
Au 16.364889877288025 10.935454859168 13.079800707521558
Au 14.116873200240711 15.465040762597633 9.902678550289918
Au 9.381272606739126 15.403743705791086 10.335880374389152
Au 15.697896324960116 11.941053831280644 10.55763021016272
Au 7.427888381363564 11.822675162173987 11.800005240329408
Au 11.928128944352423 7.829438497494401 14.017171704365563
Au 11.649930450879973 14.314172426630835 9.097698241927894
Au 10.004625926769574 10.962006521229538 11.232603287118483
Au 16.43141935602362 14.202159340907604 9.172264321633632
Au 14.073412862363426 12.985028065810587 8.50783021309075
Au 15.119232958016497 9.325841263674803 11.214565771913994
Au 12.314711152872365 9.504511537762742 11.74430372178419
Au 9.645751059941302 8.34189398059049 12.341621569973517
Au 14.505675073443625 9.072814732434566 13.997192251353262
Au 9.256965029388594 12.963002849578023 8.961210888121773
Au 6.896777867986685 11.50121171515037 9.095720366919158
Au 7.824578112092977 9.309980295967508 10.511173998637057
Au 12.54615520826773 12.083159160148549 10.745994355841336
Au 11.351232269056208 6.366569236944819 11.535125345147643
Au 11.565479076119916 11.72341292682705 8.099607930473498
Au 13.899835507335693 7.069568999937874 12.1978523283159
Au 13.793252864625424 10.219269487321332 8.967443537232292
Au 9.262842374682997 10.219205304134533 8.289324299844859
Au 10.03060192499924 7.85991009107268 9.609808158521572
Au 12.957744606332005 7.682036947693193 9.636085701648271
Au 11.617583007538943 8.99033587017247 7.633749516593815
