41
Energy = -108.31099539 eV
Au 14.821656652780543 13.11878176667779 13.503382091504557
Au 13.350666619016645 14.21423345403531 11.425429255120923
Au 7.080157773997204 12.633202370130054 11.464255584097554
Au 10.512005674392174 12.527809483437165 15.524192344482818
Au 8.355182126275066 8.2822118148727 11.151565826313675
Au 15.084666487504292 9.345334684173617 10.520858433326287
Au 15.335799497496122 12.196964074391383 10.911652941249987
Au 10.365983207938699 12.919152595315959 7.752939268853569
Au 12.497889121657735 14.29085971557819 6.6946813496160695
Au 10.70046990387654 14.922837561218651 11.865944362822685
Au 12.870052613614195 11.265548341861056 12.727417235234782
Au 7.998761368257588 15.082013464463872 12.329630329088413
Au 8.28243049057218 8.68044478086344 8.454845703282482
Au 8.79898778825811 14.277563491902699 9.78316512647437
Au 12.790718852138216 11.323987887700842 10.009473086036637
Au 9.723923485977643 14.98191550014906 14.490136441156505
Au 6.300283918270718 13.286443432470724 8.988540565205874
Au 11.258615795341507 9.435798205823977 11.25860887165615
Au 15.610889040278098 10.490474570164114 13.097596513539385
Au 10.782114058656346 7.651110479505381 9.103642593441977
Au 8.182110673137633 11.450058214946521 8.37588410279352
Au 9.52948373765149 8.475968818865573 13.668987715893719
Au 10.559939817571104 10.10385199199169 7.879008453674399
Au 8.152297436810743 12.758000584468052 13.996197194046566
Au 14.93322330007544 7.8418705484515066 12.826127068301245
Au 6.621585003107428 10.209622293238425 10.230116423477453
Au 13.144874950693811 7.35514752416078 10.784393717077569
Au 12.778561786255159 11.570256094065734 7.164682220805023
Au 13.2338404399205 11.887193222307683 15.445530993484148
Au 12.260039065246493 7.761632021460395 13.548852181928059
Au 11.608316309211085 14.792711517115356 9.32078530934856
Au 14.081837121173633 9.261569683966057 15.033998480866071
Au 10.170952376600646 11.9803378291028 10.442387804569035
Au 7.571706354786913 10.293139366374833 12.87854943046373
Au 10.53919088797137 6.700296407175035 11.677032127167543
Au 14.085611687739883 13.557945962276234 8.828901403968764
Au 12.31032244231419 14.150267454898389 14.009006518572862
Au 10.189041549106895 11.225522549673661 13.033926318356592
Au 11.348933471487541 9.849177145156052 15.196695229117207
Au 15.232601954092727 11.02175037396449 8.33402422354427
Au 13.129528748919093 9.012246311777046 8.452208750211923
