49
Energy = -130.6795951 eV
Au 12.047012022257409 15.121242007509425 16.767352286634132
Au 12.712136397508788 12.50256336767132 16.81923774542264
Au 15.386252820915379 12.041109413121994 16.20079653481355
Au 10.039352280163406 13.323840221826016 16.180165205504064
Au 18.001116706377594 11.409112207512763 15.500428101316837
Au 14.461638529299941 14.66033888705204 15.48203082502605
Au 17.034588048280554 13.871204220184463 14.873430754842937
Au 12.721660138035954 16.54994290725567 14.510714035757227
Au 13.558973418916294 9.95228199485825 15.843091860164316
Au 11.048362879612661 10.836545560366268 15.232256585368773
Au 8.38844020675749 11.521176698491557 14.87042371901593
Au 8.015080509744376 14.244992226216237 14.174233388785316
Au 10.087305457160928 15.816402373443351 14.917475343016166
Au 16.281158997908246 9.371445824291193 15.678336586069037
Au 10.373671377407016 13.114432576854076 13.345070286995805
Au 13.415989305436428 12.221312911513587 14.131007277251799
Au 9.567729775123883 9.373064730194878 13.357360632737175
Au 12.290992270971259 8.616840857772369 13.586806429681527
Au 16.839687478616693 11.68447503798349 13.043705637777718
Au 6.850294653189117 9.878174422785055 13.332491972835749
Au 15.46275836997309 14.709372539897398 12.81796979208124
Au 10.85009421226255 16.704788589702307 12.441954298473533
Au 12.679324812040914 14.405031751146328 12.622380480758498
Au 14.402650448373008 7.498294733171273 14.959874819025973
Au 14.998292631839691 9.607103642036865 13.182916729883406
Au 16.59460949401038 13.16239405063822 10.765191644242526
Au 14.051751957755 12.155319004883161 11.461808382398976
Au 13.770349244460155 16.863958645874018 11.960453553663008
Au 8.169971637639268 9.845061379128486 10.929457623174768
Au 9.337707273485439 17.02205729905268 10.184606571426139
Au 8.769410500433954 14.643223722332479 11.440278504694733
Au 14.457850350256074 14.821666831712909 10.148593669212916
Au 11.158679009166145 13.131683015326947 10.649975705333963
Au 7.599322004709343 12.288385022598817 12.204040196444968
Au 11.702601989473827 10.927071187668192 12.241013239546822
Au 10.768935768798936 8.5308522092517 11.0441225283128
Au 16.04696196752094 10.385567791599316 10.655980470026025
Au 13.571738682093573 8.925688240173773 10.939291975838643
Au 11.95327749431311 16.024828323389446 9.96657941077269
Au 12.346352826832925 10.99340541428626 9.405292139571337
Au 9.821075077782337 9.864962392560136 8.798580806133808
Au 9.78784790722056 14.705849896159272 8.746319972484397
Au 8.587856679721911 12.290819793430336 9.622653157315563
Au 12.642626890528103 13.972297750708625 8.240192489430726
Au 12.121283569739283 8.29329905300303 8.587589485542804
Au 14.937983941788596 12.353840434607891 8.69800005179357
Au 10.528480407584627 12.301618923027648 7.618305457836967
Au 14.610993630072775 9.605419664747918 8.390610537600155
Au 13.094514970284196 11.567328966847843 6.76424123356998
