43
Energy = -113.76554959 eV
Au 8.560578535655363 12.622081123697898 8.38660368862553
Au 6.55447581009883 12.253290926425654 10.197694184294956
Au 11.081835247323593 13.753920415102737 8.2839531050281
Au 10.733099681579947 10.95187960621147 8.44949890492033
Au 8.337409256198024 14.420960862963762 10.527318331093014
Au 8.463020337883556 10.21661037298383 9.937516088263877
Au 6.5496787411608555 10.175214910539191 11.989884141539127
Au 13.694838949182252 14.73764312251117 8.383803453056899
Au 13.347901737356155 12.007085038604083 8.309369484069558
Au 12.882926568459112 9.23574854555452 8.434748678002158
Au 10.876750514569132 15.564031857988645 10.47183255193534
Au 10.815770655261096 8.793620024946456 10.314825931049322
Au 10.43121086349358 12.640980787970298 10.84321184580994
Au 8.015267254963666 12.466010319332497 12.581235631854202
Au 8.795215073660973 8.47413205238913 12.149540124847197
Au 15.597956672847076 13.041357612250295 9.627032846256775
Au 15.164422274164135 10.177859639905144 9.654003482370102
Au 13.520414032935204 16.55729636214487 10.463504345240306
Au 13.512908968600039 8.239772662649345 10.971629688762176
Au 9.844672400561617 14.579133804927935 12.931874019368568
Au 13.086860654431137 13.787415477995197 10.887024188233044
Au 17.377344023944527 11.159956097606385 10.842023394619861
Au 12.65476541825927 10.927157673872557 10.928010637778746
Au 14.7941093789227 12.161278532354249 12.267604814220896
Au 9.663092947108588 12.506533379724063 14.807920530545145
Au 10.493485491180516 10.60734998279968 12.642625070820266
Au 12.299427271957532 15.89829581747092 12.911772284154402
Au 8.103212844703808 10.161982080173265 14.293172236516545
Au 12.240105846493678 12.622201941996696 13.342433224896581
Au 15.065421165141778 15.396740402261996 12.428153431564464
Au 10.497278566433387 8.624223754230893 14.504820555477504
Au 15.578533832153855 9.39696074679939 12.399984797212648
Au 13.078494548231138 8.916043304035547 13.568834740907805
Au 17.25523950306895 11.353095150857337 13.565498759179917
Au 17.16664190173948 13.740153323341216 11.902373051239445
Au 14.852391243804737 10.773765551323052 14.786033755861448
Au 11.45667001943702 14.635526960231449 15.223555131541419
Au 11.196369449088435 12.560218666774826 17.144563697020743
Au 15.884827649854522 13.601198593283284 14.452134087960852
Au 9.645582667845565 10.351773140101539 16.593893163116817
Au 14.091251242626493 15.602476250830653 15.03101507608786
Au 12.281018942392377 10.464778967523971 15.682429146392993
Au 13.625531651988599 12.963298842586672 15.930250631655356
