45
Energy = -120.34002698 eV
Au 7.820481777089183 11.693172064937768 7.912593210270568
Au 8.491917716008961 11.128399935129286 10.522825959218808
Au 9.979668786580506 10.01437648344247 8.14368735688957
Au 9.462989104341881 10.599768270785583 13.062420390389008
Au 7.771833508474396 13.745325374617009 9.788659511462525
Au 10.510362799905899 9.322686572690241 10.772642962512455
Au 10.2359893226607 12.74322729747312 8.766602957305812
Au 8.460208809916438 13.135367311606505 12.454416173189768
Au 9.328245310449807 12.54255554448243 15.035475189406705
Au 12.082667355110535 8.38597786511184 8.742901647765578
Au 11.244744275962299 12.364051690280721 11.52688498944722
Au 7.9404455633143565 15.79880054357414 11.574047878801192
Au 10.924276635852436 10.272399099658813 15.411014318129423
Au 9.139645753549724 15.270648557193336 13.999717004170646
Au 10.293409920033884 14.986549845172135 10.37990192019379
Au 11.349485021246185 8.630712002979335 13.207190239102232
Au 12.43165114463013 11.131484598927402 9.06151112254701
Au 10.271123793670046 14.838094605656481 16.42173894315361
Au 11.472272673954464 12.482462988288592 16.952352501207763
Au 11.672963142301912 13.576906074785814 13.993735166648824
Au 14.015832853186895 6.822692546309567 9.77950547994177
Au 13.48476044653296 8.80699363272496 14.89474184691907
Au 13.737515725464233 7.731654245981473 12.343894244602485
Au 16.26776975928531 7.876563411344254 11.101470667589474
Au 13.036145996735428 11.083799339394941 13.214622309025524
Au 10.27836159354286 17.09789932783142 12.20917311665922
Au 13.806160781855153 13.54112603643838 12.316794045281842
Au 13.12712933602418 10.278353345961666 17.122891545289754
Au 11.46520400860915 16.65114665981572 14.694126734462268
Au 15.111672097483375 11.154179272816332 15.346678513118983
Au 12.658846237093385 13.873941329332864 9.517692636269937
Au 14.483620058183677 9.515629667614213 9.792854039636556
Au 13.01965047776517 14.942814399649977 16.16990540644938
Au 15.308640764389027 13.918559649893258 15.048441979195
Au 14.898100930839055 12.201662648561138 9.758085342419863
Au 12.758392830344762 16.138404489653492 11.123476268912766
Au 15.59732126483654 9.59540995139076 13.165010675851455
Au 14.053281581325388 16.073660649122456 13.749476668126286
Au 16.49874256567419 12.195671544457026 13.189573665430306
Au 14.216947046914793 12.824854126204427 17.335294212646836
Au 16.339407292860198 14.934878451920873 12.714265886100689
Au 16.878238860215305 10.572290037479165 10.870004395612307
Au 15.089527636228466 14.936271023140693 10.224681734140457
Au 17.309651589094063 13.253625706097745 10.731471651605998
Au 12.647568380326852 18.287824309933836 12.828420022763355
