46
Energy = -122.17952187 eV
Au 15.24966330347797 7.882759383126754 10.98877320361167
Au 14.28519871794922 7.5878391283014786 13.546940675402452
Au 13.455714165341899 8.416432682395136 8.931942866723691
Au 12.826188834628665 6.622660675641399 11.081837691364784
Au 16.275967463900987 10.375570960102666 10.14384807774349
Au 15.927344904938222 9.793677135089165 12.907826352820452
Au 11.840640255703072 6.349061047865852 13.800687808302992
Au 14.401940888616846 9.807218619450216 15.221500888290482
Au 16.728088503659738 12.350549887694374 11.983963820054413
Au 13.57594356502321 10.287291695244217 10.956907465362734
Au 14.396193948519723 10.99305017754353 8.260250973526214
Au 11.951572312768592 8.648450151998714 15.361698925541859
Au 10.777363151375974 8.331411335816846 9.644076657126654
Au 10.060268081705962 6.624593154929455 11.677935767825197
Au 15.313702624393233 12.241965596669498 14.287175216795262
Au 11.719397901630819 10.526986399257945 8.142724528046637
Au 12.775164841771032 11.248239478551449 13.441522068005805
Au 15.228756798500855 13.136175929289452 9.799076465675984
Au 9.557664765324434 8.193341613350398 14.022799376659657
Au 14.836544289243117 14.307166949705351 12.430360591828018
Au 12.18866515176868 11.274450330229215 16.17487568320783
Au 11.81734566614062 8.83920936705698 12.492594418500273
Au 12.802205922110412 13.25281033506395 8.277478265617665
Au 12.735305908646923 12.982164575891051 11.135761807279755
Au 10.784499431684042 11.019633256850744 11.212115566950029
Au 13.082231938184403 13.764589762231287 14.808789175614715
Au 8.7185308160525 9.09743690916959 11.482469498196346
Au 10.760918679489398 13.198665200231408 13.028524969338863
Au 8.752287792561834 10.796552884289492 13.725003595094522
Au 11.506666845081234 13.782648056314931 17.11923506366599
Au 13.533352422681098 15.432972174462488 10.133725985445581
Au 10.138281115564494 12.783052188667309 7.6689284250841085
Au 9.086042743189273 10.47681983083993 9.015945990496485
Au 11.20763817344168 15.500435799413001 8.572164127221098
Au 9.701050737266025 12.517677052361844 15.534967719509995
Au 12.41909147143241 15.613251415241379 12.784280138397682
Au 10.089779646509934 13.595633712384988 10.33513886936345
Au 7.847490375791815 11.770929918331278 11.279583070576173
Au 10.642870875407027 15.278297424198541 14.966605872510074
Au 8.13200969603661 13.584144541393277 13.432375782614116
Au 11.557117715718583 17.235716229308945 10.775442652399525
Au 7.48520575209453 12.704302611333915 8.73691406104732
Au 8.550959736474159 15.084753279721982 8.000457416098584
Au 9.554133679666347 15.95518466684822 12.546613994360758
Au 7.571305674853628 14.61190154568015 10.885308604655643
Au 9.003979248668994 16.8128248804167 10.02605796789635
