40
Energy = -105.61976928 eV
Au 13.198744036886511 7.758886192530309 10.17458105634742
Au 11.456949850915217 12.775366782644976 8.65851041251624
Au 6.728976707843688 12.517703648271269 10.24740588617362
Au 14.106795952256894 15.553123278619477 11.738371163514108
Au 13.579171127508811 10.895777682396881 14.509067214609301
Au 8.429819607474805 8.393157386149802 10.180076879685489
Au 6.579532563507648 10.025721878391929 11.573666191039372
Au 9.650176593111276 16.10030982838067 11.796579616961298
Au 10.759440093642477 7.684302705881416 8.776707352053062
Au 11.766806644433078 15.100242874917326 10.254484729073049
Au 9.24889660444483 14.067445817911864 13.633196488949926
Au 13.123097779565256 8.311187335042387 7.484125860670063
Au 11.479940519922797 12.737314578888595 11.684405382500087
Au 8.625556925925768 8.825808660412573 12.918318484151383
Au 8.930612564300018 11.591422709371413 8.481264813975425
Au 7.275603647266797 14.768340903746381 11.756489218177075
Au 11.535554457909715 12.84687533322134 14.741257628861916
Au 15.444624818877786 8.850072145020983 11.576918502538154
Au 13.913062580212355 13.360926947595596 9.863218728156534
Au 15.794426232603445 11.296078109889129 12.962405882501164
Au 11.16223596889062 10.258468720005 13.007613053563649
Au 9.054823917288726 11.379563137527033 11.534033714379492
Au 13.46009661588123 10.805319204498188 11.509771450681312
Au 11.806624322429604 15.165149686156134 13.220800414221465
Au 10.736773120108634 7.5053270442275855 11.541361777492884
Au 9.241132728072843 13.944954626852963 9.936997253571882
Au 6.991265558616217 12.377616746097273 13.097219474619822
Au 13.996893652578594 13.43808088880845 13.498112620216032
Au 11.125095894655587 10.18103948670923 10.159857362585846
Au 13.148526869558482 8.151685775786339 12.907251222116205
Au 16.06903545713389 13.664771386032111 11.568931090325796
Au 11.113574499612822 10.249435871961014 7.381430771024934
Au 13.598165927239451 10.978017246846441 8.461853169004874
Au 9.073726051513932 11.471956997889434 14.613125824337553
Au 8.649706556542712 8.904447878536224 7.482176822785851
Au 6.615729097128662 10.126561975068574 8.832463428514103
Au 15.415820916969034 8.896446756451018 8.83250252576797
Au 15.974090910151958 11.270327056940845 10.157670758299691
Au 11.245268039757638 10.27177507643301 15.821508880370999
Au 10.77725208854889 7.791002818376905 14.293448836763583
