46
Energy = -121.7634798 eV
Au 11.402778059071577 6.955746996414748 8.81406925226313
Au 10.323468538226415 7.099357762087474 11.310966657489127
Au 13.139881755483655 7.36557118944729 10.91677442100341
Au 8.66487052628365 7.75508708883549 9.155904609434563
Au 13.171606641519901 9.190555117500654 8.788731273934138
Au 12.027771588852461 7.717163443602678 13.537083058772499
Au 10.55853693661536 9.410407998836348 7.893895171407518
Au 9.354895376234609 7.187273972252818 13.873787557124308
Au 15.292165869917444 9.335175461144022 10.640231613865659
Au 7.740640419391717 8.29041880678011 11.8575839951776
Au 14.71094932860096 8.173889290632086 13.104677689016984
Au 12.908477105659763 10.053273389815608 11.930708515688263
Au 7.505412760242234 10.043776395823464 8.008516646832929
Au 9.033059672740388 10.296537220537491 10.240260874639347
Au 11.597821106723 11.364424709875008 9.882976884739401
Au 6.226441046965256 10.207296227368529 10.560956510119379
Au 7.967700919834642 9.437067088273066 14.623129819359239
Au 14.746020222422434 11.50469536490463 9.017497762389741
Au 12.420350818459017 11.534767875708749 7.302627634805834
Au 10.6464257591253 9.338899785303642 15.418488664361846
Au 13.338884202708664 9.862944998216541 14.921671503295032
Au 10.158218174706859 9.782811410358748 12.64666109095241
Au 15.431313685168394 10.815170506446549 13.369611592711665
Au 11.731556100032925 11.706104597310322 16.40048814247272
Au 9.608065780831614 11.99531875374046 7.7892658555526175
Au 16.671680839702756 11.687115552167427 11.092952176164975
Au 13.260152351920567 12.871654957824433 11.43543828394346
Au 9.885207322182557 12.578482277178058 11.589323463959118
Au 13.64130968859673 13.859757260729854 8.270674699522885
Au 11.183207151307437 14.132014086452745 6.999908391575778
Au 7.616458129067435 11.374952437937349 12.675200930789783
Au 14.068683324620226 12.665162843322959 15.106623536048376
Au 11.788504295992231 11.920854186095088 13.546280788518317
Au 15.50599428638091 14.037583168843364 10.260542845437223
Au 11.058299884941857 14.386825732892676 9.756597045746325
Au 15.645647989564306 13.549389972838673 12.999570864776938
Au 9.230114528537507 11.843067012027495 15.115761970760488
Au 7.376499678942992 12.543643330727917 9.56659721322419
Au 8.622752267115777 14.542634813756054 8.14203006066002
Au 11.017326310266597 14.077559821987405 15.046440803542604
Au 13.318569280465848 15.65537066160169 10.9153305085999
Au 12.508183423677936 16.302949392059652 8.331208606119061
Au 8.540359463998595 14.019565100445066 13.564107807203996
Au 13.328500961666892 14.861306825589187 13.615129052909897
Au 10.875512032424375 15.146468680189246 12.456452638692346
Au 8.483162860665166 14.849694294581086 10.886615061789445
