41
Energy = -107.78948471 eV
Au 16.273457890660637 9.054982390750942 10.124202098095619
Au 15.821851872842984 13.442561286557495 12.157100423087096
Au 14.896628843049866 8.10105103749228 12.303783939033275
Au 15.703557983037383 11.713719612442414 9.901593632661008
Au 15.023593250598838 9.447296071165823 14.648217193513402
Au 14.282424787300807 7.092318432524168 9.866005123019708
Au 13.695553569671661 9.816772405934648 9.446384176529815
Au 15.188895619720734 12.184777874142725 14.625045100843904
Au 11.704084942263126 8.177490361084555 10.412878175299284
Au 13.21762511330191 12.472647109517219 8.81626178897602
Au 12.765633533002466 6.117045251847709 11.908468920009858
Au 12.599583680224075 8.1842125502963 13.806949836033601
Au 14.698187688031469 15.950109185757663 11.610308317251143
Au 13.076792025776781 12.925876124426246 13.002796463946321
Au 11.078812006980565 10.657350201211814 9.343374155567163
Au 14.618341779014962 14.896301345588624 14.271960158054165
Au 15.120284625245851 14.287536399414684 9.56671462141525
Au 16.077957195351107 10.69011183512438 12.414831064296191
Au 14.23262288186869 17.604279009215315 13.725357785390138
Au 12.182657254368964 10.581149750508189 12.004313461875853
Au 12.53714743041622 15.117638727791268 9.867729320125864
Au 10.320149807383132 7.096539050967722 12.624774816818386
Au 9.459383294712062 9.447469130594827 11.431845377862148
Au 12.654470588744546 10.665727374420808 15.001363463103672
Au 10.630793195709659 13.18828359561974 8.618151776882673
Au 12.903995553219774 13.200218486846284 15.92106946962105
Au 10.288981510606707 11.891148568535575 15.393317964312539
Au 10.856696387410528 13.030317693828252 11.602777664370073
Au 12.201981104511852 16.35938261017327 15.050672242404971
Au 10.322149706702728 15.840497514205563 8.162077037927668
Au 9.917812639109645 15.555516331677136 13.590772817028647
Au 12.113997267894247 16.560537925777016 12.320828172011002
Au 10.191519322648647 9.445663378918347 14.178686722293628
Au 8.669404069986372 11.791299095248085 10.257710536470388
Au 12.683695093724248 15.351541532167023 17.520265233369045
Au 8.221363617558934 14.355270287033772 9.275806042531965
Au 8.626040229790188 11.458238819942597 13.109583418765757
Au 10.448677109531738 14.540972605515876 16.136655034179096
Au 9.994276395315302 15.747316110990086 10.872813787899396
Au 8.079819069195636 13.962414801865965 12.0277583526408
Au 8.28553908580347 13.662857145166148 14.745233336771078
