48
Energy = -129.22138007 eV
Au 10.46946311364395 8.513264017551874 15.072246323710887
Au 12.366851453312007 10.50107961280036 15.729827579881825
Au 8.420891971344977 13.415336274737914 15.409997402731411
Au 9.451505540681323 10.91529797378834 15.899513280009838
Au 14.950997063282687 10.160489246463023 14.700981669509245
Au 7.003017939411897 11.15964634466767 14.689886832019608
Au 11.283187916970375 13.026625779333601 15.950365549805872
Au 10.835147765299448 7.926370840093461 12.385118389052742
Au 8.964948231885275 8.87999697134479 10.629824562375736
Au 8.348630381282371 9.163928510943991 13.320897559313046
Au 10.272449654368721 15.496453972379477 15.253855308319817
Au 13.049559573294854 8.280887660425249 14.075094627518602
Au 10.781411143545505 10.73290542764469 13.339657307497866
Au 8.044169023604665 15.704591881602534 13.723218626411166
Au 14.081923002821437 12.748839538837705 15.569447653717418
Au 10.368932526840904 13.453956989535095 13.14607524875955
Au 6.749018159138904 13.390582868843428 13.122678531062894
Au 13.167937346019933 12.277537691692512 13.025574634602707
Au 14.396984231978186 8.394327635990365 9.831039987027788
Au 16.67194177892534 12.373951060182327 14.694131334498406
Au 11.566603287281316 8.359138986688713 9.749230447223134
Au 15.291074199161313 8.456090715963304 12.485121580748862
Au 7.471045305327985 10.770742461723135 9.308785594935834
Au 6.42430710628451 10.711415786856174 12.00095642434149
Au 8.92049563422696 11.74044978519016 11.596135789851802
Au 17.319166229901366 10.132698692578824 13.232331378223453
Au 12.939420829300168 9.840334115388789 11.702313405229246
Au 6.555127660885048 13.10531846002216 10.414209253241847
Au 10.152318715511568 10.55150906879872 8.669218285074754
Au 16.69704544071365 9.935966039807349 10.58032897787057
Au 12.751305673086419 14.893596296156163 14.271820554528144
Au 12.887293525319027 10.33518265600587 8.330789304110995
Au 11.550713430723478 12.150992895256511 10.79520291981703
Au 10.695146634890797 16.13005851008255 12.520028730697328
Au 9.081315709601105 13.15042302691798 9.07497876130386
Au 8.5015517263118 14.901073617929336 11.168321341390413
Au 15.209413433236803 14.21204585444235 13.229097051806912
Au 15.6256281233935 10.142790949682304 8.074552421337648
Au 14.3743938858254 11.899503422649982 10.545740138729958
Au 17.02267951375873 12.50302765205579 11.91314944539061
Au 11.663271590178553 12.890379924940124 8.12112067452715
Au 11.001041830712065 14.999679490307193 9.956913587554734
Au 13.219110379383752 15.428692772718621 11.603397373200448
Au 16.87728510654079 12.389152917006694 9.16540283341023
Au 14.389039972508701 12.564816990953238 7.677597630741128
Au 13.472069419475622 14.970488551356746 8.84484134542934
Au 15.666143569834855 14.54416274189943 10.573510818960631
Au 16.04713173262953 14.74643618449116 7.8602073872527916
