45
Energy = -119.28249994 eV
Au 11.870615405771344 8.329899554087508 12.789999224137834
Au 14.689387257955397 8.851664223971289 9.323395244501942
Au 12.024303702228696 8.851075290586436 10.043057891810122
Au 14.500242196730598 8.790208887516869 12.10105397673644
Au 9.221887016631678 7.816647212074845 13.39914157601704
Au 15.8394122077812 10.986040030244448 7.969283129035652
Au 9.700109709094944 9.565098065568353 11.33804434479594
Au 13.084513392078968 10.901940738795949 8.373872163841028
Au 13.472849162669224 9.885601910445052 14.524866323830976
Au 10.655452695832336 11.359510460108503 9.542032489706052
Au 16.095260106242662 10.76374275423632 10.70863808570572
Au 13.03071959308805 10.991334770941094 11.547778774775765
Au 8.242780459216968 10.394720399840844 13.569475790342388
Au 15.74150852108967 11.058946265952436 13.394676786652715
Au 10.696969778367658 9.394465990868019 15.1788545844537
Au 14.482129604467953 13.404983006911444 8.398231645569478
Au 8.854412623750676 12.260526258339196 11.396137922947437
Au 17.118893985075157 13.018536543277259 9.227780411322113
Au 11.792826419074917 13.31934421676113 8.0018369006401
Au 10.882048091647361 11.493645836432549 13.348015115845278
Au 9.976520685047248 14.339045584465905 9.759452746686735
Au 14.634928109926063 13.225401532836045 11.481692511858059
Au 17.408350762016685 12.870859788592261 11.98694396243345
Au 16.9365610372225 13.388385437696524 14.608180909785027
Au 14.929664030628814 11.823216154070826 15.91472095843661
Au 9.255731560939864 11.814398947923676 15.734680977741272
Au 7.743410990438837 13.091502346118903 13.787631799506563
Au 18.18830997372019 15.172677596161664 10.499986594366003
Au 11.994172479060843 11.61472237991717 16.17154089588496
Au 12.732321873701746 15.262376946972797 9.753342570188504
Au 15.465771916450722 15.48043851787739 9.993734160184038
Au 8.252583862302322 14.957185064957871 11.800305239152129
Au 9.388441423930045 15.350184937922409 14.273953183536758
Au 13.251626875798268 12.909512159121967 13.913748850861516
Au 16.48162027876582 15.467206154153551 12.625170186630822
Au 11.783790683199035 13.392563668905074 11.61422182569842
Au 16.005306507393048 14.15259940321426 17.0693158759901
Au 13.712285196481545 15.873678326509653 12.300643492299287
Au 7.876313421564058 14.130797434164206 16.351076458743417
Au 13.300121831913478 14.00933237468156 16.73535469517411
Au 10.631138571155631 14.124875524839656 16.451609556855903
Au 10.90979723089147 15.979590162707181 12.02548066954335
Au 14.835569510593057 15.248630511809495 14.769139933617295
Au 12.096297632270717 15.532974602877465 14.526606759960709
Au 6.4309344974159295 15.567804896166585 17.893185673821545
