47
Energy = -125.17487533 eV
Au 15.123528532345299 16.466993120951305 14.680959600735472
Au 14.258619805341457 14.315279518044422 16.108967212596436
Au 12.404822956832142 16.02221841430685 14.875465619177632
Au 16.514459841176283 13.961015626192346 14.305711931308815
Au 13.466348380230455 11.921211316154588 17.254581352655634
Au 16.061503709649102 12.136938306534974 16.298875662419256
Au 11.5456072704644 13.857803197546078 16.36289308967142
Au 16.292987243445236 15.789508574465634 12.281376102043295
Au 13.614914231024914 16.855466735695416 12.36873979000473
Au 9.83931188187592 14.974587911118896 14.341816444736539
Au 13.78861740195686 14.146181948254076 12.995682802912569
Au 13.995718728057103 11.885769071676718 14.436949611210787
Au 10.88081297173073 16.92552698981162 12.733218083622393
Au 11.204630005595737 13.308786743065033 12.3363905488385
Au 13.078425446811499 9.58177141487885 15.804327233666477
Au 16.699277186383995 11.224393970250386 13.65991101497621
Au 10.896246926034213 11.131270498500125 16.64953197325034
Au 16.28951142263439 13.074523993886677 11.62065246928501
Au 9.00685244150343 12.899241175439277 15.83827607291017
Au 14.567295485850451 15.021056795535719 10.329761505806674
Au 14.780777624335732 9.252083403185477 13.582728698791673
Au 11.85759684248003 15.705324273206566 10.488920003546617
Au 9.2309596593842 15.035979292487605 11.533361807480812
Au 8.457688875080162 12.782710807995825 13.130119353986865
Au 13.219665010045693 11.609184462458527 11.716564705628379
Au 8.861258695438385 10.413545793199006 14.682731576829564
Au 14.87945824489685 12.43168738046905 9.34204274856036
Au 11.430779255814368 11.001455982258515 13.889363929328615
Au 12.82118880116206 14.1410858126077 8.43237139352201
Au 15.567765851898654 10.368780585373303 11.143206507255233
Au 10.031781365266081 14.359385666950839 8.932974665383917
Au 12.264640799940539 8.06789608222362 13.703481474911438
Au 11.117450738146077 11.944549488614642 9.846290791136008
Au 8.326268672554919 12.567379961043923 10.408298147186164
Au 9.520428870517362 8.17011383270352 13.327874178501643
Au 11.024894757814431 9.759334943115608 11.465404985047762
Au 8.173947044494513 10.252855205883549 11.943170404240385
Au 13.45243403091133 11.857628597104974 7.023234003701048
Au 11.055000477098586 13.127219539416437 6.577165575632343
Au 13.378412104037263 10.093486289623625 9.124399608211272
Au 13.566203344330598 8.353546207549943 11.231231154662805
Au 8.743239163671321 12.22561727211139 7.657000041109498
Au 11.265089544621716 6.795515236638554 11.464870059286353
Au 8.779444616652867 10.043863670397531 9.22553945669349
Au 8.806549017800934 7.773461454296716 10.663433187067817
Au 11.050337392025966 10.42559018169448 7.439258257287997
Au 11.15987081365937 8.2937967381032 9.09349864620467
