41
Energy = -108.22583238 eV
Au 8.96153089111146 14.52075065887556 9.977127524209013
Au 10.706666422607334 13.228162120535794 8.35131306541169
Au 11.477444478009213 15.6149883645366 10.229532624538198
Au 7.52652209127702 13.797500917372268 12.163449590036798
Au 9.856638728581316 15.388711851850076 12.445636903006848
Au 12.984302475298911 11.955410198007394 7.494985143482677
Au 8.57907072864036 11.77219675646264 10.315996428305018
Au 13.177692197527762 14.5288433999488 8.39644538547048
Au 14.256924198989221 15.938291786112732 10.523153943744388
Au 10.827228767896544 10.515355071724393 9.123356554892577
Au 12.585934235386897 15.990110513820426 12.799235351498151
Au 10.940326598539468 15.705764786538813 14.96267426981828
Au 8.565828693119848 14.355433316251755 14.770619985789049
Au 11.039737348766776 12.688837580361426 11.0868438554742
Au 6.310413615416031 12.819367104426934 14.441709741596691
Au 13.024475639502702 9.125701351058632 8.029671705098496
Au 13.600650682905554 10.915277479221931 10.13706029642696
Au 8.160413565020951 11.267338553402679 13.079965452553003
Au 15.38091158075529 13.004003457715438 8.828176557745122
Au 13.651503076904767 13.37740704138564 11.22570726576275
Au 15.358372098931858 10.534255890731801 7.602516822181066
Au 10.701929641362451 12.775707103916176 13.777438818671628
Au 9.992593120313703 9.750768745652357 11.729257304856928
Au 8.36942951707159 11.817556230456193 15.939961746124522
Au 15.153194961587433 14.91008152264972 13.022547156954747
Au 17.024795279855372 10.96892379598746 9.768991432520059
Au 16.405122849392445 12.940982946621626 11.570711991418976
Au 13.205898452053441 14.16591964018824 14.870455332895979
Au 12.681996415680858 11.173918944169007 12.735241739580074
Au 12.133139116525863 8.449540020039768 10.55345422791073
Au 10.700799522581157 13.41500018004305 16.46299216612351
Au 9.96009914620284 9.851283104875467 14.558459457327924
Au 15.313499384290969 8.69353464366689 9.752372528344804
Au 15.765194808404237 10.25467868090523 12.132889488490019
Au 15.05128741265307 12.257878758522429 13.991380048203679
Au 12.856702048477905 11.59572474881911 15.7183229162122
Au 11.880956835584943 8.34923625296848 13.292044851063002
Au 10.550259845482685 10.763280407968246 17.151799889009304
Au 14.336215777027556 7.8770465604215305 12.146482481304705
Au 14.311523948635504 9.561816370839242 14.374106864929256
Au 12.151607420623538 8.902246759943829 15.98474471001387
