43
Energy = -113.43752424 eV
Au 13.98269290906194 7.181679233271586 10.317204820626516
Au 15.750222627305758 9.204900489842325 10.796187409176339
Au 15.418495719680623 11.691128175315821 9.518792289273366
Au 17.628082643044184 11.074814660789064 11.26600086187855
Au 12.87482468057435 12.341956525614496 8.472873335126708
Au 13.431215160785348 9.776825450569513 9.404995335291582
Au 12.382766616822744 6.546657265092522 12.437979338862739
Au 13.365895786597353 9.225320595563058 12.405188616455423
Au 16.390091627711406 13.476357258270312 11.430821973436466
Au 14.320028984993906 9.315892844307438 14.992864716338596
Au 14.585997111379344 14.303846622159528 9.431279560794882
Au 11.353725328492219 8.279204457987865 10.488478244397342
Au 13.37644736829945 11.89269919300805 11.541582916584936
Au 10.788231873850313 10.5275777752055 9.023051093289416
Au 15.368417356293566 15.979912530534623 11.605059718763755
Au 11.074998695198595 13.21802148379057 10.7364247567427
Au 11.890999200331233 14.999019764215223 8.597024262062803
Au 15.556440312700373 11.08776256706378 13.147988117651149
Au 10.311450265843899 8.25879276819125 13.13936181346733
Au 10.738885003359707 10.647922436094689 11.83084771242433
Au 12.246463085106752 7.502253362125155 15.018310977195663
Au 13.642715777442648 16.858902690004392 9.513729299639188
Au 10.142277641956504 12.99510940600105 8.06838731748581
Au 11.679230003140892 10.260957583290148 15.041573759521233
Au 15.242466821320763 13.914353114288378 13.873559433494549
Au 8.94604195422114 10.561871993614563 13.931806624540506
Au 9.686873220481312 8.51659514860108 15.814452042830462
Au 12.99191356433432 14.642784747065784 12.164182328230426
Au 13.391195227510794 17.972450950647268 11.963945050315514
Au 13.875815869466678 11.982629366022882 15.231612268105458
Au 11.55373814540734 12.741918602422281 13.565813206948174
Au 8.988496397600125 14.752719604725561 10.013059791295168
Au 8.608501084360173 12.619895164502166 12.046236701954584
Au 9.09598697939942 11.096526131472961 16.650184642181422
Au 11.14392487066911 16.435476364515463 10.854523399542876
Au 14.235817185677762 16.478759437641244 14.121764694682053
Au 9.617783803455922 15.055109547529204 12.793959958652433
Au 13.22786919754291 14.543440035330164 15.799769972527168
Au 8.899359876393106 13.196229090936969 14.823312794906077
Au 11.29377273879436 12.695079325288209 16.369435286976245
Au 11.373962915268232 17.036613268080423 13.549327630794888
Au 10.479233569059218 15.290434449862353 15.471167971073069
Au 12.418964421017314 17.14183159626634 16.10621740789738
