46
Energy = -121.90683593 eV
Au 12.759824259650246 12.942100265959489 7.961245965973713
Au 10.461609186183118 12.04655635055024 6.477607681162171
Au 8.454909806315065 14.218755790504812 7.588700422483174
Au 11.882490306011007 10.269229054285006 8.140441184357208
Au 9.059904525757407 10.147427380004817 8.08508857822259
Au 13.071337174610536 15.655151257996819 8.53304919720547
Au 14.39002785684388 11.043408207775908 9.289005150674825
Au 7.330166787509744 12.089371438356181 9.027072740909517
Au 14.83529564666831 13.748299739407857 9.648793028434548
Au 10.324435203736156 15.775665322702721 8.845651142607307
Au 10.39284641067021 8.420893544179027 9.721782965624401
Au 15.854643470204499 9.149813032243573 10.9357166616435
Au 12.026215906608973 14.039737513029886 10.621488201672587
Au 16.354440141780778 11.905276589494846 11.026595471350294
Au 13.19850935564682 8.673545411872347 10.062754648688463
Au 11.972046187059666 16.836312448248552 10.808834326956715
Au 8.364706886564726 10.019292004339812 10.771212003432098
Au 11.933645116957234 11.19341894403936 10.756094153521117
Au 8.314006092321755 14.512470835120686 10.351831223785789
Au 10.13581474006814 12.644348281516445 9.12146358123539
Au 14.753840721244604 16.30347329403005 10.720398934539547
Au 11.810005367134234 6.651236668068785 11.33281829273235
Au 15.587796060876327 14.240759931939174 12.351139636233786
Au 14.017325665133509 10.685596646851904 12.497637672123094
Au 7.06937656770991 12.233857874841103 11.795923386797313
Au 9.77256377636567 12.520510921241153 11.916578909713643
Au 7.790234596975099 14.637819477377407 13.019952150484873
Au 10.383266170339093 15.366590732941654 12.551988987726952
Au 13.218768212505573 15.548445718598538 12.954016573896178
Au 16.10218785951824 9.255510327716413 13.7356222519729
Au 9.651991367138434 8.141971914371771 12.35496333562758
Au 14.171093932459069 7.570360394165134 12.46661807220259
Au 12.28958759373059 12.793104301141089 13.125117568606726
Au 16.28556165596234 11.993433394847736 13.787613229100387
Au 11.837554509998606 7.351888559579497 14.002186994445065
Au 14.274413963931147 13.645509546195315 14.808397886296916
Au 8.484995972588807 10.558329411647541 13.570945691490955
Au 9.420650177548566 13.159150132741532 14.715279570420176
Au 14.363730138354757 10.811131375460233 15.412879803422841
Au 11.61881773298717 14.772667020763699 15.099217880709231
Au 11.380168344839852 10.177061696258221 13.304326626946859
Au 14.197867124691662 7.981509899472991 15.229947127406554
Au 9.566211668782016 8.42961350428793 15.096328300202638
Au 12.017043110050544 12.220217192285793 15.978149587042317
Au 12.002253857476758 9.475465982815686 16.002105166600597
Au 9.531264215259997 10.909340943309083 16.180884528485176
