47
Energy = -124.33352102 eV
Au 7.04498301627239 13.455208418164073 11.021515764388518
Au 11.492933010161698 16.673396156268822 12.340420331722946
Au 7.870111550374813 13.770748920356333 13.67319982324047
Au 12.325436997091874 13.619824521361497 15.258236078189348
Au 8.407168302818043 14.801357028481016 9.1367753316267
Au 8.885144362575716 15.58929663955382 11.792786562991692
Au 10.272301721461673 15.058386723159158 14.191743752520452
Au 10.657710941751953 16.37681627311765 9.781210180291172
Au 9.801012404302266 16.08837253613568 7.231200506415545
Au 13.662964650741984 15.456743682811178 13.634175346698786
Au 6.680948958024073 10.739561426129637 10.843986971528922
Au 13.246528212566545 11.289785920934216 16.44323475075628
Au 13.192578954297598 15.500287474069404 10.517216004057191
Au 7.674194402387263 11.02426925218802 13.459252955111445
Au 11.19980626952286 9.662144252369977 15.619810526912747
Au 11.943253846903119 13.71472091187631 12.32345873567838
Au 8.551384330127695 11.9890245419833 9.127478711791825
Au 14.888809823563749 12.87939360210982 14.473533401355013
Au 10.014811303840123 12.142355715111615 14.702139504270498
Au 8.642256418061912 8.764705406669984 14.787697949220831
Au 9.571539327822093 12.46293891393118 11.833533149708403
Au 11.097949510388611 13.190850395937835 9.634372822572091
Au 12.174772039165656 14.933558715727226 7.8112119518091765
Au 8.494003458860554 9.164303808460414 9.482069689357669
Au 10.312402746436304 9.889565999708795 12.910221639141211
Au 12.64198479052171 11.26673111081995 13.674358668471685
Au 10.308267833852272 10.468061116940891 7.5965085136368184
Au 7.900978892115266 8.571567015834535 12.086430563521377
Au 12.485661828855955 12.09948000969338 7.338058699655322
Au 15.040590833093205 13.80022761929132 11.828805574413874
Au 14.273843301595177 13.577946844537054 8.90354222656824
Au 13.378856910460742 11.752007269441458 10.939669981205254
Au 10.936234614774037 10.46345371922769 10.259424558146312
Au 12.79098663638758 9.21485017633741 11.866271825278705
Au 10.874523409521835 7.205032664431505 14.276149418273475
Au 15.81211475730685 11.056221406782127 12.533005723966838
Au 15.21273224535518 10.099641353358892 14.987787122803637
Au 13.411645693077602 8.075498835389046 14.998054061574004
Au 10.478086360270199 7.382258044210167 11.519616681543392
Au 10.8015890902528 7.883075358568168 8.849480771414752
Au 15.206261717737242 8.327666458590913 12.83368341913841
Au 12.944709682645378 9.395808748705207 8.071062410966455
Au 15.03739425096206 11.06115593547085 7.785031754926147
Au 16.233762505694447 12.040931148063954 10.034254957744327
Au 15.075519902651981 9.448546371546472 10.144795684186365
Au 13.260553955464033 7.30590862823638 9.974736881348361
Au 13.01825036599476 6.534704779361422 12.645454944362076
