47
Energy = -125.68313807 eV
Au 10.486411882497473 8.87614614681818 14.668654367056662
Au 11.63460038910969 8.026836915420569 11.94097687490343
Au 8.972695561210994 8.20908919379911 12.405401799399154
Au 14.303593070246826 8.58686427783137 11.77604116082645
Au 15.729525083064171 8.246386604583787 14.121922016133988
Au 14.467833895108647 9.414184050021172 16.292461010867456
Au 11.87521817094843 10.253923643613668 16.815204977485315
Au 13.025409107080245 7.601643313220443 14.265436895084818
Au 7.943669182500982 10.11959231056091 14.098347631334244
Au 9.909335209141194 9.09945912123131 9.981975860152428
Au 9.717623500493987 11.474287072721541 15.6444791723823
Au 12.690559593927238 9.29632008135833 9.650810757936725
Au 10.680806391617923 10.761619095469195 12.294575389751875
Au 15.304735159885182 10.480528524201352 9.787417307371976
Au 7.926195687700022 10.701518172260592 11.379402102787134
Au 16.801165727784465 9.740704849571054 12.032658569101198
Au 11.457592867128628 12.990232231529557 17.193642915653616
Au 15.708523624207974 11.036514936641373 14.276448254923588
Au 13.413518672333304 11.388268829186703 11.679481868833978
Au 13.912424533954455 12.127138187916206 16.138063697405784
Au 12.842042950518247 10.324865946868762 14.128798065695737
Au 8.640502730605693 12.660873084576084 13.265431651392165
Au 10.9707713700321 10.153188470475841 7.663886332091887
Au 14.873569309522896 13.64085922346688 13.976007918768005
Au 11.760357697404395 12.84012475296399 13.851476571393896
Au 8.381247071978262 11.066062385864463 8.714317067907833
Au 9.719573414101681 14.249384104325117 15.222689284126183
Au 13.536936689672835 11.341231374934905 7.845972533349662
Au 10.982595713021412 15.731761594709825 17.148821572692928
Au 11.413186150015216 12.034507516297554 9.844745137950893
Au 16.094997578713965 12.40242482541493 11.844720189519641
Au 8.901951360775415 13.175821864944776 10.53631221632215
Au 9.09126545939573 11.428834243446133 6.088794869810097
Au 13.079484634709273 14.735751504684181 15.711686236024212
Au 12.6823355206584 14.010971868300244 11.542923171365718
Au 10.023657278539757 14.910874217505974 12.472888912993051
Au 14.634187941501807 13.22373339968786 9.534371518659944
Au 11.73384508224394 12.261693750453823 5.979576308398062
Au 11.29351714387862 16.5022175322587 14.456997471528362
Au 13.98428621900965 16.30005629198028 13.663633422232438
Au 9.861249488417286 13.369652653087012 7.858781820178148
Au 12.647203306117364 14.127122750837632 7.726460730594462
Au 10.811101831020114 15.091094079393594 9.748455584670152
Au 15.376960035917424 15.035757815268784 11.571061940932875
Au 11.966329952748692 16.734219522885873 11.746624732401836
Au 13.569194102559463 15.951676139369187 9.475781975009204
Au 14.583119749628233 17.682068296273854 11.35280730776502
