43
Energy = -113.72800407 eV
Au 13.822783817451437 8.1264391613944 8.95740318093257
Au 11.667101787042231 7.068094335007237 10.231597650325444
Au 15.723491978015076 9.676170480303146 10.0715328950429
Au 11.422043379142929 9.495462243969934 8.71662560385666
Au 9.462127226134816 6.2873693275759805 11.770375516017918
Au 13.682023777258815 8.475480614976393 11.696617033814542
Au 9.459038744347401 8.723426685151038 10.487232146634257
Au 11.24675557966689 8.062511380220107 12.895768993867316
Au 15.389259291423999 10.27525886041991 12.864200157685202
Au 17.075710759185483 11.760730071014779 11.14151596675575
Au 13.816662617563477 10.839653187739005 8.221047387704823
Au 13.171436545137285 9.469474085827896 14.379629268708554
Au 11.510654506614134 12.250148021637477 7.865199485866859
Au 9.249133028119282 11.115315211164155 9.189604625104286
Au 11.910305698939498 10.747113075045299 12.265193457296439
Au 11.329891965722915 12.746207842455759 10.569755575598686
Au 8.472281879373563 8.441556397001555 13.1691423876841
Au 16.343749951864748 12.797938545968075 13.68392486851193
Au 14.12765009247822 11.84166189662578 10.777659209752493
Au 14.922799096513366 11.27398870092805 15.44764829722594
Au 13.50320772449473 13.879589149396352 8.989377666702007
Au 10.426277198179488 10.0375861515353 14.713357624483898
Au 13.539005068820641 13.085435362143775 13.078021639920099
Au 8.985027990402662 10.991217018603024 11.977896820626452
Au 18.048413186021623 14.193504307442335 12.039413070128525
Au 11.314154501060925 15.465995913682788 9.832593772983303
Au 15.725980452821556 14.160550597706159 10.568339997596578
Au 7.786443544321006 10.72847650938837 14.477025366726586
Au 12.274596910524696 11.92413045859508 15.5986337858402
Au 9.357949929823564 13.840751794604767 8.712740295067487
Au 7.534317054915944 12.90575100242787 10.555057861515207
Au 14.433033320438168 14.058659372875297 15.455436912929525
Au 10.80499882563765 13.247917471915931 13.14004229226682
Au 15.729398652270381 15.41090634422932 13.10827655112623
Au 13.58318201736796 15.643256310218211 11.333886619483623
Au 9.0705929366207 15.00962533408367 11.409798034264686
Au 9.545437143331144 12.663603789433726 15.51694808560695
Au 7.881996632192725 13.249151898627089 13.26689336104075
Au 11.693023187261103 14.603626672421015 15.584415320846109
Au 13.434155644781086 16.35718827235449 14.113028053368504
Au 11.178995376210958 16.361902466520597 12.50408089412692
Au 9.227611432744538 15.35597121813579 14.36987281342542
Au 11.050793805891564 17.2504076462444 15.127920013293114
