48
Energy = -128.29383766 eV
Au 15.0647121170834 16.56444781367072 12.508257640879267
Au 17.34992321531594 15.676749772519269 11.257895045671251
Au 12.787283431065038 17.16504625463585 14.012416113520672
Au 18.961117027723425 14.332031149245395 13.006717626642518
Au 12.533389021825393 16.505492315803817 11.27456765727699
Au 14.885043892005845 15.771549492042382 9.798237343934598
Au 15.342034125374914 17.697175613495084 14.97645933180834
Au 8.032299085652575 15.225198525852514 12.13978718997636
Au 16.716790846441377 13.718863697313816 9.463423002694029
Au 16.67534803111054 15.300427733314036 14.499379767697485
Au 10.048449939382706 15.815432142201123 10.334922611175061
Au 10.397288154978881 16.229496501046352 13.131263462705968
Au 14.061124597982054 15.348376732857028 15.625115836779276
Au 18.02605261640197 13.012332566922725 15.24631884340233
Au 11.208025895523761 15.61615887058194 15.790483123053567
Au 14.455479977303014 12.172625913212118 9.45791020368233
Au 11.8301393908975 11.760794187221629 8.676105694529717
Au 13.97953880674176 14.042017195385847 11.696489682109627
Au 12.368108987564682 14.436593505863105 9.358078359437739
Au 18.530570894104994 11.481090842083447 12.938508091640498
Au 9.690061353592801 13.391505153845836 9.077306570361884
Au 15.415968486408715 13.03778068489277 16.03559193989174
Au 16.907644831086706 11.26919784651263 10.546630951148986
Au 10.254438765004535 13.425585128782275 11.901320069183896
Au 7.651877522372072 12.781781503311157 10.816352026749126
Au 12.18958920667648 13.93402653404488 13.83487550058163
Au 12.677357496093213 13.191574996458437 16.623844746388862
Au 16.460429783514314 13.284581324069512 12.492507166851137
Au 9.959556987499644 13.48830737807851 16.992063990474392
Au 14.238451563376866 12.023305346809702 13.571777579924051
Au 16.50953797146482 10.757234190795932 14.84405535607413
Au 14.573700638981448 9.71970774741242 10.987115920031894
Au 8.739334491168533 14.6804746313802 14.811901380922968
Au 6.89009777179703 13.109206249496355 13.47989807568377
Au 9.571148840253104 10.84769478399943 10.265497718637416
Au 12.482260897430212 11.727265662037775 11.420111287621271
Au 16.937608036488175 9.323414640731723 12.425886897783746
Au 10.904900762854712 11.46439893752782 13.666501146554141
Au 8.426875461977753 11.924764597054809 15.375919675949095
Au 11.933816731455655 9.375384462767274 10.041640143295368
Au 13.778587737325067 10.690631077788352 15.971609249555913
Au 11.000266043120414 10.960961991573258 16.425461212396968
Au 8.162956518932479 10.767523416005487 12.703471950363955
Au 14.597458860054132 9.079878264374939 13.838389332619382
Au 11.963330663172302 8.94905256238677 14.697675025149715
Au 10.209465684506096 8.972814431041767 12.248879335164657
Au 12.742227405184922 7.950936246134554 12.222169349283472
Au 9.251191225158497 9.37197117684742 14.862071564169927
