48
Energy = -128.68921785 eV
Au 13.94717323243969 9.824054887323003 7.914230198803612
Au 14.082187899313107 8.484547236993343 10.277687084021654
Au 14.154423276785524 7.785721230668527 12.953151844046879
Au 16.28883015554604 10.060356549871171 9.231604734579156
Au 18.42113990055535 10.580470282798982 10.87062041592869
Au 16.366267604397635 9.022874954045088 11.886208360132883
Au 15.053512790805879 12.47146712385417 8.094781091409637
Au 17.34931004487871 12.767366573806129 9.565404280163655
Au 12.47160528918692 9.141250210915597 14.723856985714669
Au 11.528840575026658 8.382096969421804 12.004217331135422
Au 12.37009001560247 11.91092828152951 7.251620777229263
Au 11.605152184287778 9.530022969718177 9.408153048079377
Au 15.288808017863962 9.992509467278314 14.408453241456895
Au 13.146421213442965 11.871221939152734 10.028528865626798
Au 17.568030000092286 11.242825100776857 13.375180609055448
Au 13.375657975605078 10.410008436715756 12.37092084002867
Au 15.507588000002036 11.836052109242583 11.490928907123537
Au 10.19601033342415 11.927532377025456 9.071100469998736
Au 9.258946983595886 9.784966795451934 10.92474808388047
Au 9.86237284255936 9.667188096283429 13.81050731796543
Au 12.946848039088826 14.379943852193259 8.665670042513794
Au 10.820622858117902 10.496342258025004 16.388831287953305
Au 15.192633073122325 14.467553092435553 10.25023162147348
Au 10.617472546231365 13.983679676214727 7.25196141338161
Au 7.662767549234263 11.044271899414877 12.781081575621132
Au 8.469012691025487 12.920352799011676 10.948125308718561
Au 10.920400147674242 11.695122825593536 11.82875592199883
Au 13.180562969840992 13.169796558694562 12.628710058756704
Au 10.333093809541753 14.807991489107167 9.856687790582384
Au 13.545566174389773 11.530035612300267 15.80827784697757
Au 17.206231641490447 13.907316954837613 12.142396073381331
Au 15.599481246871415 12.855923960622658 14.38945676003372
Au 10.593599203490152 14.312363704698587 12.602833076090988
Au 12.891622895477663 15.782330146555083 11.036209744453068
Au 14.92169685501445 15.272412937909456 13.011429453224856
Au 8.394479690667037 11.60384702758232 15.340991075366068
Au 8.18699009667475 15.582998571686375 11.679093173687692
Au 11.14844515701656 12.474645574705875 14.493733908538438
Au 7.763597671437981 13.689028023350739 13.630741427226953
Au 13.552940259369077 14.40761136034827 15.36003583248102
Au 10.560032276121692 17.049123837257845 11.790609874533525
Au 9.25189356831719 12.275285522557182 17.820606833616075
Au 12.393708997824799 16.325606383474756 13.75134682498874
Au 11.826918137462181 13.192112225285515 17.14943184229089
Au 9.30676160374124 16.229331708665555 14.185669464971939
Au 8.725037071496015 14.38283939696631 16.080145341485398
Au 11.247310673471192 15.80805864287801 16.164934182769432
Au 10.06218482404787 14.824892428424695 18.464377820172366
