45
Energy = -118.07153053 eV
Au 8.62526160987922 11.893294999429859 14.836153086876076
Au 10.972261925480181 10.832459250783058 15.958930558731964
Au 8.863489286297613 9.228083101286094 15.334937652902992
Au 7.309692420257831 9.759085749140285 12.975923471498541
Au 10.727487136652458 13.748637347646778 15.544106962969563
Au 8.99197561370436 7.451011496619529 13.26775649794525
Au 11.423668859880156 8.549489726222118 14.294411757872505
Au 7.266022144529636 12.525649072646937 12.492661252814528
Au 8.410108259686695 14.49596005346783 14.074392252667378
Au 13.13847421475658 12.482547458017091 16.31323509427848
Au 8.769459163759146 8.38815392510816 10.70037004657325
Au 9.967568093626685 13.207610457642575 12.001118069907688
Au 7.360221413534578 10.77490970305282 10.365955747127185
Au 10.082411186421709 11.395179005183465 9.912090688003705
Au 9.985109675615323 10.389581872468296 12.601981600235451
Au 13.746973487817328 8.414339693543567 12.725112650303396
Au 8.085557288215147 13.46627964374025 9.91336122042746
Au 13.645991915148153 10.14908064321599 14.887964965092236
Au 11.205654091931121 7.3643436490302445 11.704835788057094
Au 13.29244732322682 14.52647718581394 14.463243650540273
Au 10.891595969383925 15.619297584370386 13.484786488140879
Au 8.711221249909658 15.688831198899068 11.553768550904763
Au 11.92570236351066 12.098138359554564 13.602213846234903
Au 8.646971416827444 9.562124536913911 8.224994939514849
Au 8.93031116975419 12.242878625350032 7.48987536816043
Au 11.042883622655175 8.26382629242881 8.953308284097007
Au 15.271153843376155 12.422736042816872 14.548464509173236
Au 16.003289905588414 10.068132238063823 13.27851960125586
Au 13.473360310662786 7.408176229581955 10.102993264741766
Au 12.580663490007275 13.95863416436886 11.512121044861926
Au 12.180429291302602 9.920631745181613 10.936444822667802
Au 13.549430420112168 16.41856732866164 12.48175257366618
Au 12.691241098886142 12.13578018091074 9.336978524330705
Au 15.330636370809394 9.451887511528726 10.622206719072382
Au 11.286055942704394 16.329114928850043 10.832660481366988
Au 15.330513895358365 14.253847809763244 12.499024857202455
Au 14.041593841090464 11.65298446095532 11.937480789844765
Au 11.163132385281656 10.5089994316156 7.2852724201221335
Au 13.544668079700099 9.482799371330692 8.292148557412123
Au 16.664535102394645 12.0036751396715 11.225007898326252
Au 14.976998897684414 13.743890699064291 9.797846487242234
Au 12.57149507803551 14.854610070907226 8.841487808637638
Au 15.652515481010962 11.303670395914736 8.639391313253508
Au 13.744001580380095 11.814694638988815 6.7513707814247175
Au 11.407305238206291 13.231438135301142 6.882878208571994
