43
Energy = -113.90150439 eV
Au 10.45936952691097 15.467544259453048 10.099071539231142
Au 8.06294698334036 14.399995992586916 8.926723681321533
Au 10.515990838253728 13.770066311961923 7.861761167089414
Au 8.510262397566027 11.73940577460288 8.250621718799382
Au 12.893199484516764 14.640682604343429 9.063762792234137
Au 12.96241859251733 13.014494222305055 6.863095820691242
Au 7.301277137356555 12.441168749243518 10.798621972741023
Au 10.846159098751963 11.200318901578953 6.799812372451341
Au 8.124356559079319 14.944107083318801 11.642221870083107
Au 10.271096921907777 14.934188772290778 13.308380286527122
Au 12.615720320685536 15.255179743369984 11.854271642249413
Au 6.746561176593321 9.993669810919585 9.717562701136705
Au 10.114873981219203 12.908269411425346 11.074239822131556
Au 14.895274808180185 12.55339336051389 8.750291597016107
Au 9.020402705823827 9.025671297840656 8.511831252040947
Au 15.07344183290725 14.386256120285871 10.79449623389599
Au 13.772941346613054 10.399120177122615 7.396607151378776
Au 12.829316089979738 12.490900926565843 10.855510221944487
Au 11.604578804924214 8.70844249757697 7.641588456015441
Au 11.037086524087943 10.79789299522014 9.505957186628066
Au 7.11885069744395 10.314392577171892 12.522514397268097
Au 15.875684990483336 10.048931501544558 9.279501107438369
Au 12.665236103333054 15.128736682774765 14.610586880372024
Au 8.445632350071692 12.736904162292182 13.411873653029996
Au 14.370710775024644 13.413347145025615 13.305545037584704
Au 8.318686414886166 8.062256907887543 11.090823318160451
Au 15.482691320130595 11.663751067014669 11.486530315847512
Au 11.657255709301184 11.823330972166865 13.312114024042048
Au 12.49886653605113 9.805134462002163 11.623257239051666
Au 9.78666623153637 10.26665340214023 11.981683280247545
Au 13.661732483008482 8.402716201692265 9.397161865121658
Au 10.489853267344097 13.0249901427479 15.410536885298281
Au 10.884534840439235 7.652929258622903 10.10306923752601
Au 9.218496653540237 10.527636818698655 14.801190488785075
Au 13.264285286911745 12.67497585988379 15.740414050913964
Au 8.127916971631223 8.132419238813958 13.8383597065192
Au 15.107742080984636 8.937054638077267 11.80455864555232
Au 10.47856387429147 7.104459499335592 12.818085438467612
Au 14.19427759825844 10.670969063729208 13.880214205117321
Au 12.697305271166567 8.351817066557608 14.095646500240361
Au 11.893109711802232 10.347912428131686 15.794462234616441
Au 13.03908126844729 7.015722067782446 11.738400664327123
Au 10.322712127899056 8.079357518580272 15.494209034067513
