44
Energy = -117.57331918 eV
Au 15.121567591612504 9.999201580481055 14.669761624991242
Au 15.376515319089087 8.476439919821146 10.326505602196452
Au 13.998328020240594 8.299244447487274 12.715779204739723
Au 16.024390332769432 10.51879166909425 12.119245188528977
Au 14.072699691104493 9.321091185020126 17.12538907659544
Au 14.097283109723215 9.03540652526573 7.963130272914398
Au 12.454750928921198 8.930020518916715 14.928253559910235
Au 12.614038192839741 8.395395762775532 10.268323610515335
Au 15.418984355263511 12.73210778242135 13.973993825562967
Au 11.136938497918997 8.716538162818765 12.562256083796141
Au 15.234350637648808 11.07799854181242 9.451374215825348
Au 13.398350838126486 11.04319883941284 12.5801705200076
Au 11.596957020632484 10.550557164154466 17.032196786788077
Au 15.447297087891888 13.184697851199893 11.224312088613116
Au 14.14484238548026 12.009921748073939 16.443954898389784
Au 11.604634189751872 10.268993343972177 8.360632531715803
Au 9.88536989799572 10.00619050759335 14.633832149951632
Au 13.685941471862824 11.551219120331712 7.045285599162162
Au 9.943559666063873 9.057959297141224 10.12564762702609
Au 11.868450542212187 12.096596187263094 14.685914014453134
Au 8.530952544004249 10.290679245284304 12.099526997249878
Au 12.73489678178017 12.377199148422813 10.211596620288871
Au 14.694849807278727 13.656137886284835 8.567030879861056
Au 14.841120868630334 15.819472769095162 10.20573218658561
Au 15.079753223303127 15.28563174236023 12.968133571482834
Au 11.746273257253781 13.390151414227674 17.17430592717887
Au 9.373809779789461 12.05278654798091 16.43837282215531
Au 13.151286127387964 14.111930750775842 6.261367051304243
Au 13.595569692061256 14.442923843941816 15.313822512155022
Au 9.542994209882114 11.79114249376264 9.743360222718373
Au 11.212668672767732 12.998768601160792 7.9048763688138655
Au 7.6725323159460554 11.702510457839338 14.282416301983782
Au 8.615560089981066 14.257214126273952 14.706845598913867
Au 12.613955886992152 13.873498372230017 12.620352331605355
Au 12.494890969150747 15.407007878967072 8.595909701140352
Au 10.830159650447197 11.749171223161078 12.191695722535925
Au 14.398307827878824 17.841516187733898 12.031396365155214
Au 10.461724439049425 14.38117286167754 10.282238377822432
Au 9.238792362520782 14.609422459449842 17.410357094682357
Au 12.727311330455404 16.643660651506714 13.832092960667596
Au 10.965714134242017 15.55576769429069 15.52626679580218
Au 8.543404390651324 13.308447076346013 12.087039097949182
Au 12.220444939097925 16.36222631731252 11.110723876425523
Au 10.21779005829467 15.450003230853412 12.828595269835139
