49
Energy = -131.7292524 eV
Au 6.461141181533799 9.650090760262461 11.377291649512118
Au 8.889386837397385 8.513068038516142 10.411727885176106
Au 7.306479534861735 10.279173563333172 8.849336112079747
Au 8.357852793442916 8.9409914565528 13.156493787497855
Au 10.421889014854402 8.879314927049691 14.959269665252542
Au 6.766793501565173 12.308380411931276 10.750204421574058
Au 6.836438429059095 11.47788551282492 13.402778911640606
Au 10.952156123408702 8.324283179603235 12.297925097543086
Au 8.1025022181285 10.285589546623731 15.535314613789264
Au 13.061017897880914 8.413639413068202 14.12585757969146
Au 11.577990373141475 8.160603991874105 9.564171709122187
Au 9.589175214723308 11.04007109127033 11.31405413990675
Au 13.642464742239753 7.840674914014768 11.541299343239034
Au 10.04809892030615 10.19941911805256 8.433038382844977
Au 10.594248439242598 11.431560720194263 16.06263645505796
Au 8.701663709079925 12.623793679370166 8.704628639593878
Au 12.58592534573286 9.50329844846691 16.6093223812531
Au 12.053361872545384 11.083314985791239 13.55265150801716
Au 10.335335279731275 13.146922887688438 12.806107407029677
Au 15.741818464885599 8.292544121905408 13.334958946041931
Au 7.520213206328581 14.092719375833154 12.67264437667733
Au 8.537037094007236 12.96847261420684 15.019787922149648
Au 12.757531908732398 10.249684978632429 7.914528913312112
Au 9.69135782689267 15.766918945879963 11.489359235886099
Au 11.31022635844506 13.970431127308322 15.327853445990637
Au 11.48844979557589 12.910415708133515 10.314729522083951
Au 10.07966351638447 15.00308369371273 8.85041869302836
Au 13.292044920461521 12.138103222097225 16.046144722001657
Au 11.22953001249332 12.583328871542083 7.577649015037724
Au 14.306027235860961 8.265731388368883 8.969267892354853
Au 11.881355461470175 15.762428419030464 13.226108857846768
Au 14.986456246424282 10.017085041388478 15.312082933411157
Au 12.578785570157807 10.403387123058549 10.934195863884957
Au 7.56528775984938 14.833437991498256 10.002891687528699
Au 9.295174909699686 15.535024547829785 14.213525381256412
Au 13.807228933157207 12.619034022963243 11.865215102552058
Au 12.26230224173011 15.820184867555172 10.447447204231937
Au 13.929661959740372 14.332624718703402 14.479071987219923
Au 14.718520084183494 14.332563108417094 9.682037187647468
Au 16.029632219564277 9.389684401185772 10.830400734202044
Au 15.903221574527862 12.575521148117073 15.28908371252846
Au 12.645415613566055 14.96736255381585 7.884583048628074
Au 14.002875445729234 12.637979321076115 7.471220832111692
Au 14.415436387147096 15.551880865243023 12.086818094291738
Au 16.421752012597306 10.961661956318855 13.069270345579126
Au 15.584621673592494 10.563483503908532 8.35804720736414
Au 16.23829540784079 13.692022394070394 12.804284071314562
Au 16.622674027717128 13.122181146146431 8.071163167252909
Au 16.440084869285894 12.105546342486724 10.567704373683668
