46
Energy = -121.43093698 eV
Au 14.1537216917714 13.0515519509173 14.861817579503613
Au 15.706065251726525 12.424687417944096 12.536613578069538
Au 15.615992183027334 10.746726408438082 14.66561319498894
Au 13.132254010395627 10.415713653340408 16.055845419589925
Au 14.070237942572431 14.701874716461647 12.529690615954841
Au 14.443213958380289 8.313140134951153 14.407913059071856
Au 15.283316275132014 9.618828509091667 11.912814778002739
Au 11.589657893558469 12.73672500609525 16.052923903427864
Au 12.344696517518427 15.146487459823977 14.801329436200827
Au 15.577805781600475 13.92424641743703 10.2164470641451
Au 11.733137384641593 8.13884327163379 14.42471918547185
Au 11.541905747674146 12.919962094679455 13.266263497042663
Au 10.379448578888935 10.260349262619036 15.753231749093247
Au 10.231570304619305 10.531179342950075 12.9487455529005
Au 13.01944798752598 10.559541261894132 13.252088792535352
Au 14.154201943636915 8.78657111469056 9.481351620095943
Au 8.86861957898384 12.593973417648906 15.42891980578393
Au 15.41408481025503 11.194303748786094 9.641597219824531
Au 13.240554421660578 7.549297752086433 12.076350415443255
Au 13.035078290954706 15.036525319402177 9.868326718833854
Au 11.549525976112559 15.754219141026836 12.120821478484318
Au 9.667042785947032 14.85831291934235 14.106019886544482
Au 13.250168278602253 12.311246377617655 11.076807270752177
Au 9.017295517010158 8.328504630320905 14.288399155643756
Au 7.612080250794801 10.70169918293879 13.8806036088048
Au 10.419292820775413 7.407529352397527 11.971344647027745
Au 14.1388211132833 13.110500125089617 7.999621185269663
Au 14.122547825202016 10.45465400391989 7.205082519985205
Au 12.037270194619403 6.976736367440132 9.655231875030083
Au 10.692791574962467 13.453668292049022 10.697450984814544
Au 11.847797636038429 9.710644070543829 10.81858263870065
Au 10.339081765215258 15.807014149240528 9.291580164412103
Au 9.413384151046088 11.078821007641096 10.304796745558775
Au 11.836369501789594 8.970825210659653 7.730325769534979
Au 8.83420582147038 15.665504219542855 11.623170169943863
Au 7.544255468558601 13.390809389128853 13.094848669706781
Au 11.794730436549877 14.352691382025988 7.42506945053459
Au 11.81046172790475 11.63806053223993 8.844825298319828
Au 8.084218224664683 8.86743124948932 11.671243628963943
Au 9.606520567068698 8.309939474030704 9.382959769717113
Au 11.742747029237696 11.76204523551682 6.180560356826249
Au 9.408760992901373 13.143430041143308 8.079360411503894
Au 7.871687410149079 13.497769015368881 10.300939652127047
Au 9.517947295116647 10.422238552833601 7.426929582382238
Au 7.28312295903314 9.8589505032808 9.017087516897256
Au 6.69763737326063 11.270459022958027 11.351663276028098
