47
Energy = -125.01267905 eV
Au 6.545675620939576 9.39404603264155 14.09188162774657
Au 7.643181491892705 11.913668853695372 13.997820098504015
Au 9.150323724525524 9.767410718725742 15.092537514259938
Au 6.861680264190141 13.367682700108425 11.796588351127639
Au 10.129181587653537 12.393976172158933 15.17909906168826
Au 6.8731679245100405 10.598238344135732 11.582840736967265
Au 9.159763043326194 14.104132426231613 13.28767240877625
Au 7.225039155967513 14.640477390078857 9.418161466372982
Au 8.581007240057026 8.567809491293037 12.548389495481675
Au 11.803452212682696 10.17413984284068 15.823887918445163
Au 12.505529412492857 12.984583975900055 16.31824629729778
Au 7.568553676097557 11.856209103854294 9.250571488421233
Au 8.502249839994546 16.017955119575106 11.453610579109233
Au 10.013459106206001 11.202773535063844 12.289960334540579
Au 11.726153096504829 14.556362344220897 14.03345096727772
Au 11.22750526236646 8.59569464920855 13.586371685923936
Au 14.549771317243339 11.122079437262284 15.785030538590151
Au 9.066734656286231 9.66747776023787 10.001425827748127
Au 9.540937066494555 13.403845150796844 10.561103416318922
Au 11.302231068241134 15.534417647772322 11.47361268482542
Au 15.055709506440733 13.365305066646522 17.293291327847598
Au 9.02171522161222 13.594072036355502 7.593937151440944
Au 12.478108196199962 11.702849322298475 13.641654530842336
Au 9.914746532203726 15.889790753228704 9.042213321714286
Au 11.68745777497529 13.973796387751756 8.348745193217278
Au 10.623429005429786 7.688566782263982 11.028240103605379
Au 12.107906081060737 12.62766289164334 11.045539049061796
Au 13.8152205646023 15.876193018856672 12.591473608265051
Au 14.228131607121881 14.868330308758187 15.160452117648376
Au 10.528786256361002 11.45986690906306 8.588285291770346
Au 16.541765367024734 12.95507314001372 15.009999051943772
Au 13.886895561141827 9.077194839570335 14.12674844671812
Au 13.19892519299466 7.8182221131834915 11.71048370277623
Au 14.547282463995083 13.176262143239882 12.52907156425308
Au 13.653008635175077 14.790599026036952 9.9748490602933
Au 12.0867124277848 9.431565619884564 9.498438070028183
Au 13.406974149455275 11.835175116947424 8.635362140805494
Au 13.991954597857966 10.627302281886074 11.55730678710238
Au 16.448250225345337 15.299466540728037 13.603100752927187
Au 17.301863686533224 12.931049417885866 12.270478834397796
Au 16.15771131954982 15.32169542705474 10.9349162543263
Au 15.770158173130987 12.892108235478302 9.794674948235192
Au 15.897217894508573 10.703696726472632 8.174175426779136
Au 16.237787163298673 10.650420181002582 13.596913851874758
Au 15.861180293128257 8.321741078087474 12.245506645893228
Au 14.79291605379628 8.745293272732987 9.662684601282402
Au 16.842217032227772 10.566775214704677 10.853335939988023
