47
Energy = -124.54239961 eV
Au 13.982716150250024 7.936620339199118 9.054217646994063
Au 13.038535425580449 11.82655488553592 8.149872145466064
Au 11.57006274028115 9.395747753221102 8.62471046395077
Au 11.56992025303807 9.116205511056114 11.847981112155622
Au 9.229212535449498 10.186804497986067 10.644008741288074
Au 10.102290873791206 11.826774719049636 8.150192175391998
Au 7.6660955335779795 10.464232063334386 8.393985762202442
Au 11.569835794359415 6.96033809727132 10.076619334376176
Au 9.157148541078378 7.9369136187941605 9.054032729817685
Au 6.646155359189496 11.577032672498728 11.102067024135076
Au 6.972059272122277 14.389982847619173 11.302076206574547
Au 7.688068228669245 13.190078715826358 8.786724640063035
Au 7.665211985062995 9.766929588416055 13.094010800910894
Au 9.15254736059474 7.53798554387309 11.905285423527207
Au 8.727822769749235 10.906803642596966 15.425899658093416
Au 6.880730832879945 8.785382808736754 10.592846184386863
Au 9.307584778668684 13.039227957997673 10.984657179657988
Au 11.568726881565135 11.59722029777662 10.528799382689618
Au 11.570496912250485 14.079686792205015 9.212839191735677
Au 9.160566162108868 15.163249759308046 12.986494788569933
Au 11.570672541288518 16.80440299989217 9.052024596979967
Au 9.232527611895087 15.648077332158149 10.05459665500592
Au 7.7101162426950305 12.752763030262923 13.49507520600507
Au 13.834717207698262 13.04007000759522 10.98455820181693
Au 11.570300421857972 13.614886407127042 12.542220818004633
Au 13.980786048961178 15.162784418042538 12.98650075835355
Au 13.908733337963083 15.647487887024637 10.054905197585962
Au 11.570618709960826 15.644796366414914 14.431636609311816
Au 10.107710623858722 13.349922095197108 15.099151669317253
Au 11.570631885072208 16.231801514326897 11.694910550315914
Au 10.11754367051334 11.246460669031665 13.075686351583366
Au 13.023105018197095 11.246105362553271 13.076450591733844
Au 11.570303787080121 10.848373844827975 15.623202551869117
Au 15.452831896517216 13.18917865241102 8.78702068650188
Au 13.9125461628661 10.185247028072725 10.643571677481468
Au 13.034683272044724 8.66154055827134 14.396712189706774
Au 15.430674468308993 12.752131296447855 13.495030895244907
Au 14.412603881454245 10.906254889301314 15.425800651316395
Au 16.168535346579702 14.388952491952935 11.30203690378737
Au 15.474121485094573 10.463338313701499 8.39406998086678
Au 13.033264484522078 13.349589025277542 15.099149997311608
Au 15.475071563383322 9.766164747833633 13.093928598888233
Au 16.49435206982926 11.576091887429309 11.102140153418096
Au 13.98745511925044 7.537586191654336 11.905228461416153
Au 16.258930581406407 8.784740381291558 10.592820267709644
Au 10.105490711316179 8.661762473916315 14.396722716026659
Au 11.569865962806896 6.659700515681519 13.081508967764746
