49
Energy = -131.42255197 eV
Au 13.766158205084901 16.252235673151286 16.111876723609647
Au 15.331893378022983 15.562909200825967 13.96841011840265
Au 11.039712857402971 16.318839212935455 16.154415712314407
Au 12.569367653457055 14.192349050538102 17.514869188493833
Au 15.11783312944941 13.830479967956636 16.345247484870907
Au 14.410363090246719 16.359151641155652 11.512799035578631
Au 15.774856991556184 11.219109712959435 15.492263604739756
Au 12.41780829046713 15.676413158660726 9.715279099469818
Au 12.615888009222315 16.208067201868726 13.542027680201864
Au 9.860966189693155 16.317577357233755 13.674852995319052
Au 16.977089218562124 13.406246775793692 14.192539954376961
Au 13.21589840953295 11.648532908061144 16.459276453109542
Au 9.003467590491828 14.353658089172374 15.923093813696862
Au 10.594170694661921 12.301159715445875 17.000143160117492
Au 14.039513180339183 12.925479411473527 13.940882298270612
Au 13.760792177077436 9.45427023180493 14.810204923322187
Au 16.3850004145798 14.309982228829268 11.602053234941426
Au 9.950907113621806 16.152969083192417 10.638642273111127
Au 13.550191557000957 13.606865098146573 11.312789289536912
Au 11.577360693427178 13.934858971353455 14.855151030545608
Au 10.976032442567089 14.088220414880746 12.133345833809928
Au 7.623656242171642 16.416287688562292 12.04489493809899
Au 18.254326300567218 10.991508302034394 14.292551369037998
Au 8.223061698437473 14.018247444312363 13.284009642235041
Au 15.072780061250674 14.989146853411961 9.172921960651026
Au 16.161057909103388 9.467742702232668 13.291903615121015
Au 17.1137369315392 11.662178430561541 11.858093146062048
Au 11.096405447672737 9.952216936962312 15.539096920985855
Au 9.2094777087077 11.824437207276489 14.609163955973992
Au 8.01491607845007 14.10176402734289 10.481366427406396
Au 11.692771336826508 11.606121360786902 13.288131467824378
Au 15.564381226424686 12.27489226588916 9.69829442332226
Au 13.985944855914038 10.924478926645698 11.950415110458941
Au 10.427652504279102 13.951518746921174 8.907088451751521
Au 8.927730785211129 11.783218888263631 11.823724548747961
Au 13.126577681160507 13.190930027999812 8.40132157913585
Au 11.583587177991964 11.63189435788718 10.536314999312053
Au 14.005394793002925 8.050096165361168 12.380715399282447
Au 11.797883615045908 7.711376593199999 13.994681028446978
Au 9.9311839771394 9.451554174357277 12.98787703911267
Au 11.389402105246456 7.780223294610834 11.260462898216435
Au 15.763991054845794 9.506389133392497 10.465163535616195
Au 8.53019447036407 11.898141575286239 9.02506247032519
Au 13.643310207699066 10.467072007842077 8.803717979226903
Au 9.469618404285828 9.519637256869734 10.289708342495471
Au 11.12726899520487 11.458117393479109 7.779658414171495
Au 13.727954675013113 7.824565525157442 9.687496323634337
Au 11.462881860620785 8.685063533445541 8.54519551752244
Au 9.094006015019124 9.654458713583146 7.5448247045858485
