48
Energy = -128.15560884 eV
Au 12.764432680789977 10.1413264571067 16.811125053090684
Au 14.366831523947646 8.983547495805775 14.932528843878664
Au 10.263563887583334 10.657986308679217 15.844420104382586
Au 8.03483767087571 11.157476401414701 14.216957227918462
Au 8.928327166775876 8.525271749847933 14.534253078423617
Au 11.663794878898775 8.366986461234074 14.959620649363707
Au 13.317434199904618 7.444540652635504 12.883576120172236
Au 10.463245486348997 7.36138288494553 12.660162425685133
Au 14.710493614841926 11.840047929910044 15.561224262752065
Au 12.122778732815936 12.757124286939188 16.12531863308534
Au 9.48955726536443 13.259523731042387 15.269027134561524
Au 15.716313681212807 9.234841610681341 12.465351381479655
Au 8.301078626254638 12.582566846548094 11.918743053646926
Au 8.478086243377808 9.556374437950794 11.961068857424197
Au 14.10170409121242 14.570909602689996 15.60167809078633
Au 11.516624082502474 15.435510146848795 15.369162522939742
Au 9.454467901681284 7.832661411676584 10.041787023110079
Au 10.619282587759303 11.155153068236224 13.076599438353997
Au 14.224486829294872 8.439832631013603 10.358674631527556
Au 12.042373492591246 6.670006100836275 10.593325421389466
Au 11.364507977623822 9.64384801863468 10.765209665658785
Au 16.828284850833032 10.252321019789834 14.77991531216024
Au 8.869097823569822 15.856581331409311 14.68455052124253
Au 13.161883062247794 10.290064357209644 12.697025582905919
Au 12.655407037284888 7.698894518809983 8.179813754929082
Au 9.08240047688027 11.10445649528618 9.705913228334426
Au 10.864822809697133 13.968108108015041 12.935204554942196
Au 15.79024285670395 14.769486477262786 13.469660848127347
Au 16.117850991612205 12.072445051145017 12.886060044265209
Au 8.684015500562225 15.347851789989091 11.982947429835269
Au 10.580024578066876 9.510076756823954 8.02614288418245
Au 13.449968126172855 13.062408511656733 13.307804878529703
Au 15.259711631209269 11.094378415031079 10.380930771908893
Au 12.135366529059748 12.312241469191841 10.929726607717141
Au 9.634085682366425 13.853659972820056 9.843388318916777
Au 13.299556125545067 10.350408068546109 8.507667985661888
Au 10.825332507221573 16.99429168970576 13.132843070960167
Au 13.577749594821144 16.6068517717267 13.811385991918234
Au 15.681733156798394 13.830950015242337 10.796979241069787
Au 12.860000497536422 14.95925475061445 11.322380148000677
Au 13.948828371552006 12.985236826620067 8.768682435752702
Au 10.496587155672719 16.5234179667323 10.335833606033908
Au 11.228181775734281 12.216227000075422 8.236790006487395
Au 11.840339075789155 14.877518528021561 8.423105561954028
Au 12.758662193154386 17.830749349798555 11.39717390237051
Au 14.507906865282905 15.683571289982003 9.142115353741772
Au 12.511387157026784 17.51585538549229 8.665346246652915
Au 15.271377670296067 16.6334895245271 11.5773655325668
