42
Energy = -111.23697751 eV
Au 16.9963054911263 14.542326772787858 14.29722354275539
Au 14.318416546940758 14.968687390457669 13.723831528535086
Au 9.46823732746848 14.77948727163884 14.048944892278683
Au 15.06484380751025 13.25543120169196 15.76456838186688
Au 16.267316836501813 14.144198076428138 11.66177276839725
Au 11.791064922185736 15.31629959477629 12.767498721084811
Au 9.676971479818272 12.351028523403315 15.531256275635346
Au 13.978092547997335 15.655812312715106 11.083192601053906
Au 12.406673579894651 12.885385526399247 15.598025749355955
Au 9.468394360603302 14.755939438181274 11.3143881041801
Au 16.121011639723367 12.016668317044665 13.433375811897937
Au 8.032442086385656 12.63160396303675 12.892923906810843
Au 11.532688018855048 15.833102291828009 9.871882475755044
Au 13.60647830686144 12.880391677392925 11.926999116684874
Au 14.221377165271237 10.741511063550655 15.110481722240047
Au 7.329887988446239 13.681494748897219 15.342523411864375
Au 11.10526010377577 12.55229535009582 13.139717278803161
Au 11.514232967900364 10.276379431725122 15.125978484271462
Au 13.899428910724836 16.153916485436568 8.390391264218218
Au 15.087725670996418 13.78530205942847 9.176608154444033
Au 14.907322533692799 9.70219132006164 12.639836097219218
Au 12.524653918230591 13.845519935997723 7.98974712702695
Au 9.176379628582085 10.202887615664505 13.724313701835012
Au 11.311125491500894 12.657879289880192 10.39438355378334
Au 15.719166562896643 11.533704157974764 10.643667034255866
Au 9.752627177761685 14.198507123155919 8.547273388966001
Au 13.292835009984397 8.295020405097903 14.38195772725244
Au 8.210774531888791 12.529319425478628 10.159226266763731
Au 13.691136522751485 11.413730709762593 8.631562461047043
Au 10.625809846292437 7.872986847816522 13.734564294963615
Au 12.189372578324047 10.443050389415573 11.798429918936062
Au 14.48523391071388 9.185880929793687 9.994519191130388
Au 7.544540361876688 10.32025024814551 11.507028959329382
Au 11.00783140736189 11.593320508228487 7.780025030752142
Au 12.43200516984601 5.860563682768277 13.49713608083189
Au 8.087796090995614 7.843406610624927 12.68806485702538
Au 8.307006285980748 12.13027876844538 7.460896648841441
Au 11.861708398583447 9.348438209457063 9.169731251387292
Au 12.764157634198936 7.76353059277768 11.584358129228717
Au 9.098015964656918 9.912857363303777 8.864627607487744
Au 10.085883378142986 8.369184463277984 10.954646403465066
Au 7.371632793193819 8.104094862399808 9.986285032782185
