42
Energy = -110.12269398 eV
Au 16.3464023903713 10.754256918010324 9.41758312098027
Au 14.847695420085099 12.729878669835989 8.291662679427587
Au 12.966162663219555 14.632612686650141 7.902587100781166
Au 14.826685114912753 8.699912477825944 10.72176401929809
Au 14.713974457898342 15.313124696490073 9.808034380726044
Au 16.46916755439532 13.21143045958974 10.631304201525642
Au 14.064483136618529 10.027786100271902 8.165496107843023
Au 12.37729238252691 12.091877766480764 7.161959565866523
Au 10.329329106232597 14.06123715690818 8.372763844923023
Au 9.793078087064686 11.443349496599602 7.874356104896954
Au 11.574522060106485 9.447876774640415 7.219827959768818
Au 16.392750528333387 15.717434190792869 11.920158121281366
Au 12.497046961821999 7.964706345574509 9.419271432984155
Au 15.647567760970796 10.952970225845757 12.104251386744576
Au 11.846866654198264 15.26736670949451 10.44311419232891
Au 13.611357374271181 12.944528585980102 11.0043410167841
Au 13.612140733691394 9.297484735579596 13.277545435066996
Au 10.860499432851245 12.403613362573434 10.538160768296128
Au 13.705791995941171 15.454649251262609 12.560765767194177
Au 12.652952680681324 10.384728198970308 10.772583923431945
Au 15.719979982301567 13.539312252087758 13.36817249216662
Au 10.075778368899249 9.264289328010591 9.568608097798316
Au 14.948315427345042 11.319797411948295 14.687640559127248
Au 13.332467109614804 13.727281070592225 14.76530547734958
Au 12.14783473689649 11.78794584922635 13.151122323131261
Au 11.172146472693028 14.54881389948258 13.04459719827156
Au 11.218254700536303 8.196241084068845 11.993497705999348
Au 9.174540721359085 14.537729036197831 10.91594033097536
Au 12.698706137731563 11.2688436749179 16.10977104094905
Au 9.770335298497578 10.607919186384299 12.340038385479996
Au 7.933434348556683 8.615785746419537 11.083811092335127
Au 8.181372075964624 11.325095318685893 10.06254925963049
Au 8.737627140292382 13.33981635432953 13.406973268256259
Au 10.660798305555403 12.952767331877958 15.305190021410581
Au 11.180708191666351 9.376782801610524 14.655822961759977
Au 10.269277400861903 10.91754832388341 17.194965915647774
Au 8.697698912749326 8.342419027595101 13.644161387948007
Au 6.943485824161484 10.542773125771138 12.663944660233184
Au 6.796215473332409 13.212428067923204 11.474718082317365
Au 8.429931096549739 11.109504090378428 15.07915960189931
Au 6.207166418741405 12.596272506198936 14.199227895945981
Au 8.996263369182264 8.687489042224986 16.272347135551104
