49
Energy = -130.31193966 eV
Au 15.862725560109189 12.537229227432958 13.278328645201253
Au 16.601213224443644 11.593632698276759 9.554444578064235
Au 16.363282377366954 10.258526983549254 11.953478337298254
Au 14.987327389425769 9.977834762886909 14.26576672722533
Au 15.94399121886171 13.923654944323943 10.782309740377292
Au 14.265144102778539 12.332262094800148 15.584581636562223
Au 16.037839586369078 8.801715316229982 9.685656790797259
Au 15.262050690808822 14.966181247895898 14.275790336867644
Au 15.191053291489325 10.338136582399645 7.515767302551032
Au 15.039460987382911 16.33024832747422 11.737554447892622
Au 14.4982069216128 12.921797672191616 8.246149846498028
Au 13.88168657559204 7.503669686515556 14.611681576075172
Au 12.701069555191806 11.74467888131651 13.413843379289487
Au 13.272756855858036 16.919849865782872 13.82991563445349
Au 14.071116306151607 11.763673129633336 10.921363963167636
Au 11.16881101660826 7.567734124002798 15.53060858455971
Au 12.779537678654949 9.849222966723474 15.977762489609706
Au 11.402544746491156 12.238743632761578 15.920846208521644
Au 14.24268418457599 8.374857324652801 11.830504774921124
Au 12.562741899537604 14.525386309780977 15.089279148303785
Au 13.830639890284381 15.291700067722813 9.402764838600012
Au 13.363290954433273 14.21134836446662 12.35562976283728
Au 11.830744573320294 13.38579420573441 10.218008116056696
Au 13.33461510483565 9.289895067912356 9.307219894587615
Au 11.970750795435801 13.69351303102936 7.450023072106423
Au 12.6064660648558 11.016791844147754 7.1411069665913285
Au 12.008313319690417 9.05288231592266 13.365580069380089
Au 11.419097726839471 10.794217043320659 11.137758905239757
Au 10.407791951735716 13.041799106665696 12.650554565097751
Au 12.219520368569208 16.71338381039512 11.249529571564606
Au 9.840797900253586 9.950457840460308 15.906745402409229
Au 11.532019368015412 7.941962397382896 10.879050861576442
Au 10.723832388522991 15.892379286293293 13.510234554051424
Au 11.163323850587654 15.911610194562721 8.862755598270818
Au 9.331382441545383 13.779829343255917 8.807999394980303
Au 9.833322045984731 7.3112910543885015 13.064682984115432
Au 10.632951971999837 9.664416474339577 8.713204529914483
Au 9.51890637656866 10.330135128937352 13.118310176683185
Au 9.579847240550418 15.420735847877324 11.040118410081694
Au 8.857202887328354 12.503222883115837 15.04956421886586
Au 9.974909732588475 11.765159704197188 7.064702640777628
Au 8.918412947668514 8.843312713356172 10.732334792670821
Au 8.384844662581107 11.218448378701579 9.305893092584425
Au 7.735257741561666 13.27557392975908 11.031326830873228
Au 7.253206114549143 10.270643932965603 14.717745562721433
Au 8.274716168086622 14.717274560512527 13.395424675435489
Au 7.2721350943937475 8.253960473066645 12.876781231667495
Au 6.9712955493412645 10.691228767960169 11.631458688547998
Au 6.5139023292082605 12.652744536866686 13.506354888918993
