43
Energy = -114.08233638 eV
Au 7.716136968854215 12.365852594151868 16.6519193896732
Au 10.152232618703195 11.955930417103483 17.756438827571845
Au 9.664200042912206 11.497234384242544 14.8999641462871
Au 12.08907548868293 10.867702704303522 16.17432222305466
Au 9.665298863093518 14.136483179831517 16.092238706473225
Au 12.72139909760988 12.534935861956596 18.26407693762008
Au 9.344720291579739 13.979080757048338 13.364714845558392
Au 11.681382395731744 10.192318179185014 13.548718833458313
Au 9.5020015764227 11.361461009606602 12.187767695134355
Au 13.642404926360525 14.854617566607153 19.30823952425491
Au 14.758182247420322 11.342173601673379 16.89071036152874
Au 9.708375436812231 13.705249388081567 10.590984801145737
Au 14.077944291917154 9.550585095042125 14.81015397017375
Au 12.055725791105298 15.030602508905003 17.068790357225808
Au 11.136403457660837 15.780368126968856 14.571047211910376
Au 13.882639498570132 9.366105206057913 12.07951376490343
Au 16.75991998333661 10.126488581505878 15.492714309307722
Au 11.820326506554432 13.079181132461338 12.507617745128751
Au 11.71509357623527 10.361632595544293 10.761039464235713
Au 14.8460600230495 14.198831680818751 16.98637662716215
Au 9.480472598723523 11.211907447633223 9.44560891870899
Au 13.234601819290813 13.378411811997784 14.807893369616604
Au 10.908286222736391 15.818763035987395 11.828034305970208
Au 13.794802113826632 16.260572253335845 15.226126470335235
Au 12.62011748169821 17.5535315422723 13.127846536989818
Au 16.255019615616806 8.626965047183727 13.3165154062774
Au 9.950536813801582 13.368812331255082 7.815587009251282
Au 14.374648324414599 12.387205495385642 12.513197948493918
Au 16.29077831245379 12.802262431785342 15.087565390896017
Au 12.044245914379273 11.623144685909065 8.28219681518855
Au 11.391131553363156 15.33445354313703 9.144938541132678
Au 13.300112602296666 16.645741314280706 10.644552002768364
Au 14.196566399773268 10.625269015278866 9.597800302764671
Au 17.038503225345416 11.311815670271802 12.907892556277382
Au 16.40458131153337 9.575680131160489 10.784726713036417
Au 15.125419802217808 16.376282814468205 12.687030778954485
Au 16.379852634406983 15.519246912097103 14.967898570007813
Au 13.968082870792184 15.780922163477708 8.128089011756687
Au 12.414408460199889 13.995958147445078 6.81909988594189
Au 16.263065095356378 12.33938279379757 10.41255032000218
Au 16.704327821706013 14.083775414605865 12.623828850659857
Au 14.441540769075344 13.1003475416177 8.478416992981876
Au 15.463225488118153 14.976564218258341 10.32910389391733
