45
Energy = -119.55093347 eV
Au 15.137266056325316 9.662136130210087 9.590580850681595
Au 13.320671180633829 10.945741187750409 8.021405435455275
Au 11.48620057838808 12.852994216169678 7.146091797677674
Au 16.115478503988488 12.114639602870025 8.836646913213858
Au 14.148292346689324 13.60577071144284 7.750326794738988
Au 12.228145214881964 15.470492646127592 7.659909099685952
Au 12.499746109104676 9.070258704344194 10.124752292224233
Au 10.634083272361089 10.768490718248504 8.86576444994321
Au 14.579787907548027 8.642531043908594 12.0066106494336
Au 16.21912555952072 11.059846898693841 11.72680554874459
Au 9.079606720271055 13.053349009836483 8.573036811250644
Au 13.883208304047713 12.470255223520667 10.470873247787965
Au 16.227576520792226 13.862743175258688 10.989684372621317
Au 11.51807246289718 13.716347468454291 9.904870516319505
Au 9.952525554840275 9.075921524206084 11.134478353394268
Au 13.91114172180788 7.592547360467679 14.491438456481433
Au 14.062519314194493 15.42682496928346 9.978878666685372
Au 11.961112292121156 9.022549032068564 13.064946226775671
Au 8.353454798009993 11.286038075809344 10.552532781318511
Au 13.825775027566323 11.370056996567397 13.259845062322226
Au 15.793661908474103 9.719305020604128 14.267122754146854
Au 9.742492126013268 15.692722011897024 9.076725357921712
Au 12.464426633413858 13.756164643889194 12.534503291912108
Au 14.84789826498725 15.364290624944742 12.842927900548778
Au 11.923383147096084 17.358143285043184 9.558419311387912
Au 7.66870492075488 9.449743521220384 12.552402188830946
Au 11.48767481876009 11.36989018008716 11.514831841986604
Au 8.856818415227254 13.927328266338128 11.236367846290648
Au 13.644716480338996 9.657441321930646 16.247161700787807
Au 11.443407617053316 7.991615952195307 15.61157596768842
Au 16.154128101412176 13.0440169330657 13.649076186632046
Au 9.376623084309328 9.600163817793295 14.677923546881217
Au 15.348791604426165 11.815356520390857 15.947325302231379
Au 10.635627369307102 16.009300853424385 11.738374506612699
Au 8.520730527628562 11.96346508592904 13.23583844891857
Au 11.369514095119825 11.679528281607944 14.306223378418018
Au 13.122196800864504 17.260938844397085 11.957320266523501
Au 9.84565969745322 14.32119704522897 13.815487651356177
Au 10.938056991718721 10.276280463016551 16.932789253359292
Au 9.18776480941444 12.300316149426495 15.866669530811977
Au 12.98814388151015 12.16547455745377 17.189953468426044
Au 14.015315200258593 14.077202124795772 15.194545041137209
Au 12.192775134069002 15.945374252818423 14.176086982535315
Au 11.383429547901045 14.166839581549755 16.130484879253224
Au 10.491151476795562 12.622910809039881 18.28054911513587
