45
Energy = -119.78585374 eV
Au 14.338385244460017 8.696645270153587 11.172595328416467
Au 15.704155809704625 11.082155762465176 11.520788222695787
Au 15.393739504958948 13.218736464765469 9.673166810998667
Au 17.314827548186393 13.246996205826443 11.750419495794336
Au 14.016393351676289 10.882072346227181 9.279298062213744
Au 12.373029972772638 8.620406901184655 9.200745534174638
Au 13.817659441178437 7.153313755071382 13.43089309427501
Au 16.227677029871796 12.134620063854522 14.15600154125644
Au 14.807472933136294 9.70927318362249 13.71887496513379
Au 12.202834869354957 6.794181092260746 11.204639809318493
Au 16.827212379063635 15.531327399801116 10.303404834380867
Au 14.236996388632095 15.726925560961567 9.25210243042369
Au 13.953119057778478 12.980286460518467 12.91988910565742
Au 12.566412100795308 10.873775546789176 11.695008398141784
Au 12.782722455808276 13.326916335539623 8.809831697102295
Au 15.91264610442593 15.250506848194776 12.877379903481806
Au 11.136812017328593 11.067856720367631 9.207994402023383
Au 14.279702842301553 10.911412804271032 16.09183999521217
Au 15.952335771183863 12.847686589528916 16.886064360166912
Au 12.755934225122473 8.770896846998047 15.37868554211314
Au 11.014012308749216 7.544076296219407 13.563308311183356
Au 10.41776169543061 8.943418811614452 11.154710154496934
Au 13.06067454100438 13.295264769354347 16.861066033210836
Au 15.105073037918721 17.439312791656256 11.28661777886227
Au 11.49754431190858 15.762474255053693 8.737130966506863
Au 11.588743986403605 10.849808893363523 16.955471015860482
Au 10.071538785583208 13.556703038901828 9.531189382199186
Au 10.061214144995393 8.505555237600126 15.949775140289987
Au 9.451928008037351 9.849312794444643 13.547381201736375
Au 13.054477395817704 15.269899336015216 11.81514142812265
Au 12.001513480190555 11.37951833086395 14.277869264110965
Au 9.21648118030142 11.423328017958609 11.230729982035914
Au 14.825063556386292 14.663957566532128 15.26954034020615
Au 11.217794720983774 13.240918202250308 12.292007821587744
Au 14.133985260750604 16.988826452135232 14.065769646357404
Au 12.417789733897358 17.668375124109872 10.491917346556466
Au 12.134676102497322 15.49491864349329 15.371306082521492
Au 13.382822880555269 19.161359327439953 12.61090434494164
Au 10.275701174716387 15.95693305581677 11.205297490598335
Au 8.967549576885546 10.978278548081299 16.064855584002743
Au 8.786200405282282 12.53602582754221 13.846661873005221
Au 8.369033035987089 14.06374302100027 11.641853573636176
Au 11.470342010731407 17.29563062476116 13.340986977554474
Au 10.498932723773276 13.329980398440359 15.921755050990054
Au 9.790425528916256 15.154016887935366 13.879637168051522
