44
Energy = -116.01320843 eV
Au 9.7758927031717 15.190026406594473 12.275596016430043
Au 11.734830774128756 15.902969601326935 14.111847105208602
Au 12.931686270134177 15.753551744174079 8.831103287347235
Au 10.169873855347497 15.800888747592818 9.466025496035572
Au 13.941022682710141 17.176258955682993 13.145973706233992
Au 14.884114012803611 16.074769917989325 10.761266195943048
Au 11.225104480181125 13.978792601029093 7.613216917564665
Au 11.98711852978355 16.685364279676634 11.296760896875238
Au 8.233421614653867 12.925425901356448 12.992132036836809
Au 8.507129137465336 13.703604349638756 10.261372193314497
Au 13.978944206942716 13.736139088539616 7.1644857694116535
Au 9.790670972763953 14.156992519411997 14.990005004685816
Au 12.797062400017658 13.616582422427186 15.423187706855364
Au 14.267089245325343 13.359565507267838 9.89028391900063
Au 11.200172339051859 12.590803093572974 13.30147136320277
Au 6.763561463245117 11.715241819231293 11.015425577352698
Au 11.402170235431814 13.469110700578646 10.420659191092104
Au 15.009362689593805 14.891437367908871 14.377226585069145
Au 9.78667908730228 11.831279511804444 8.473388480160205
Au 12.537374953798427 11.502129949831296 8.002909028837966
Au 16.03673989565207 13.638651854087641 12.016148588823262
Au 7.877379412888078 9.863879690046641 12.700802322665027
Au 14.719512290808426 12.13840704611505 13.878785771546445
Au 8.29953030039007 9.776764926746731 9.656244787512456
Au 9.042119679588895 11.11469274389975 14.891837299651147
Au 9.957892950056307 11.193711190638513 11.290977235584196
Au 10.817317785876448 12.181969695816983 16.657368302732475
Au 13.259974655878116 14.300508437791207 12.323910975697457
Au 12.918797426994669 11.358560789822349 11.490750979595973
Au 15.401177563941234 11.544103088826002 8.205043816861503
Au 13.93227075342994 9.528570620370287 9.31677282398578
Au 11.456027921650827 9.736050777072975 13.160071025954032
Au 12.940805096312763 10.773141825868107 15.459640898952344
Au 11.117684382650527 9.459567646311449 9.260776120141664
Au 15.623659745235376 10.984788871186186 11.15258717642062
Au 9.772326730220385 8.15540370115582 11.382419118809226
Au 9.413296634566189 8.225682059521615 14.283855383712991
Au 10.659816123153517 9.470566511873665 16.47029597016812
Au 14.386518873400801 9.484568836157594 13.40884562576296
Au 12.577113585384472 7.787954903043934 10.912124326901106
Au 15.396513151931314 8.164813763796884 11.211929006023796
Au 11.243628644436 6.5642015912314875 13.008323463778803
Au 12.430218177754801 7.928538013915259 15.098205237250115
Au 13.98703474576375 6.741482479822666 13.114495220600734
