47
Energy = -124.45366005 eV
Au 16.16924631907413 13.924123437831772 10.384121049592808
Au 15.819247728514718 11.55337549447007 8.987606147551386
Au 16.457232582175788 13.874645372800657 13.126581766725105
Au 14.391393471149497 13.933132308847377 8.131063888752635
Au 16.687968276567165 11.523208410001374 11.666257787535299
Au 16.465722048196525 9.179695181742435 10.264922921803489
Au 14.42257322787526 15.529095352540583 11.986143342307987
Au 14.94547205954143 16.26062024368221 9.431595008634421
Au 13.734312115008642 11.533161831225037 7.086456995122056
Au 16.38598603502877 13.642701043952318 15.883841044970914
Au 14.56105494195479 9.148337580738543 8.151062989970644
Au 16.324670653708342 11.333333082534336 14.43100885554254
Au 14.150039300269471 14.556565754677498 14.54303350953147
Au 15.292142590832162 9.254966307728077 12.980233706939275
Au 13.980077839038884 11.833369928336287 13.023092732557844
Au 13.425391928774637 12.940868432070463 10.570608956519138
Au 14.869524274033667 7.172333935454446 11.231839295645905
Au 13.802183624666037 10.157433922971745 10.674690314000445
Au 12.001101457607627 14.369086361802674 12.704166192635707
Au 11.666111448139587 12.970730808908742 8.19816570829096
Au 13.969081934167876 12.139853033592846 15.968372567833303
Au 12.325478931086712 15.38786720414824 9.691623819379776
Au 11.837852605450669 10.071882349617926 8.451376599446995
Au 10.427148723345281 16.267975026044677 11.433261109117973
Au 11.628682636590288 14.751336305817677 15.533350626914753
Au 12.677812306579487 7.6507703128998505 9.632406836906585
Au 11.514292702808548 11.330120401515549 11.707585691529305
Au 11.534827748112669 12.161829218309762 14.407024867489927
Au 11.368950229604936 12.651210590248452 17.280140090363364
Au 12.590475878319664 8.173165601859907 12.460686712412905
Au 9.761433695347101 14.235997046240957 9.676579872277486
Au 13.043043117639069 9.636328832701398 14.740357659109602
Au 12.633255339564046 10.198937984978867 17.41355556195624
Au 9.66929403010598 11.442372034055554 9.426102730015367
Au 9.477919889217347 15.476870663425636 13.915935258400756
Au 10.492149997137611 8.954091422705671 10.657261023388594
Au 9.542088091596906 12.982897905706203 12.556802571596242
Au 10.361691311771029 9.381599968785526 13.530277643446293
Au 9.180118808780385 13.346568915953759 15.783422495657463
Au 7.85996325300153 15.429819398139403 11.589454898191653
Au 10.208985236590506 10.364081194798645 16.111449480292762
Au 7.533537772289656 12.825178385192975 10.495985633112731
Au 8.443410028687614 10.379352940440347 11.752170661528108
Au 7.190454427781068 13.89220726579898 14.000872077282677
Au 8.165249950150564 11.013063114774392 14.488738313860626
Au 5.45906217967124 14.164249820840912 11.832973586387986
Au 6.20248372057621 11.645147131559646 12.685435191829011
