41
Energy = -108.51764166 eV
Au 8.906109113664003 8.900895058104984 12.399095349582037
Au 10.983258050282984 8.535016403702073 14.084861158116261
Au 11.26713521643276 8.343687626998586 11.042102356838463
Au 7.300689763203155 10.985027843216983 11.811011756810075
Au 9.350086983373298 10.029465849675578 9.956387908200213
Au 13.51521731831348 8.78678107420238 15.136529164922097
Au 8.96822644218167 11.011392752686739 14.219866790337804
Au 13.17287500445503 7.479321409037279 12.76771998182838
Au 14.030750318577406 8.808510236672783 10.461008466017256
Au 11.4580190031552 10.942573582815145 15.572206880192207
Au 11.965188283733536 9.850742726875705 8.818009560200702
Au 10.171411942116292 11.740162242487111 7.984495563888078
Au 8.105001382761172 12.520352360694652 9.594332797770075
Au 11.25190402564929 10.964653788455927 12.746537277772807
Au 6.080377057331922 13.420612683441789 11.210862711211488
Au 13.957054407860884 11.000340416367647 16.757972311195715
Au 13.9547472519943 11.29363862732005 13.668759854319548
Au 8.333065545249584 13.36161109322081 12.788409819761533
Au 15.455419010537929 8.918800969401255 12.91303108721965
Au 13.179606390865484 11.471292301873804 10.946422046463784
Au 16.079270405087037 9.702566056792065 15.506699720766267
Au 10.639144013649881 12.814168868766266 10.81941918970251
Au 10.451880251379249 13.398509712493238 14.53443029924247
Au 8.098683195750553 15.155137533356438 10.459506796433319
Au 14.551445837933848 10.9448920255884 8.603591377828053
Au 17.187260969344084 11.035996381825768 13.39362784928381
Au 15.99478545244778 10.939157364686826 10.931398582259968
Au 12.601533069844214 12.880278856215655 8.360636891813499
Au 12.675184764168586 13.596385656059592 12.591621541265367
Au 12.989327406509366 13.33612252571217 15.675836318341496
Au 10.150379730339093 14.426156626970418 8.627021156739358
Au 10.147524526103869 15.380307016188297 12.478958994339722
Au 15.85503447942202 12.569355794017357 15.357315772222549
Au 16.012679376682225 13.3025537076052 12.446367098411892
Au 14.901280095661372 13.489603282575283 9.861857242318473
Au 12.631478737487956 15.268711208388174 9.721428427080761
Au 12.221203246254188 15.677869769062857 14.296206368719188
Au 10.22465771260619 16.78628320150408 10.045047794834991
Au 14.871960790638749 14.910046306174943 14.36849857664828
Au 14.552316777696902 15.546534236536273 11.712649015204478
Au 12.269920768029195 17.05730248007973 11.838463498343042
