48
Energy = -128.07667489 eV
Au 14.058862668600732 14.670406024626764 7.682992346515438
Au 14.907215271911532 11.927912326274669 7.609875863146505
Au 11.509094654535126 14.824441574217902 6.473120472468842
Au 16.11604064784415 13.785913598286697 9.282811491508193
Au 14.305283073419206 15.782347271561248 10.211641714864031
Au 15.585722387596855 9.925752757296245 9.433422223193483
Au 11.74812258497311 15.664623086137242 9.031859857003832
Au 16.5729127679868 11.876049936874063 11.454356471498887
Au 16.16106926851778 14.624659442027626 11.870886325285952
Au 11.965287191021806 16.585531871841585 11.553100574845715
Au 14.269439941484466 16.27582785312588 12.943202536147764
Au 12.190780694806229 12.586040012958517 7.861235155166726
Au 11.52218945580399 13.248437168065939 10.642049485277191
Au 12.900382653278744 10.09592439189137 8.694522298307142
Au 9.689986600089133 13.797041533754067 8.409057268507544
Au 16.250630166127397 10.789727095744542 14.17810675205091
Au 14.003628100780459 12.212920778256766 10.301406920612374
Au 12.082124692012036 14.193155728020544 13.138937229353903
Au 17.155503145078598 13.323323286027183 14.000000143876028
Au 9.522073110849394 15.345942299391508 10.827114858174644
Au 14.806625336576126 14.533438300840308 14.990957243636926
Au 14.896622774298699 9.595294128676981 12.062048012460833
Au 12.344623178722623 16.167508065975156 14.973835373880261
Au 10.000052674095583 16.265728493237415 13.398988037720864
Au 10.278978043145548 11.117689166224464 9.269462118569544
Au 13.74156318076552 7.880781542498455 10.091748534779052
Au 14.294136816699787 12.53531284228941 13.028570803689973
Au 12.619892597741778 13.964374016414853 16.635727720615154
Au 12.229730581690035 10.801792258774197 12.010294179046449
Au 14.455746865242443 11.928477019265355 16.02860277330018
Au 8.387845494341006 12.780861456712126 10.633801479466031
Au 10.054211274913829 14.375947419633713 15.362442172565542
Au 11.0333646562862 8.698059950701479 10.276947486883994
Au 13.788673731967695 9.5910472941596 14.634467011002025
Au 10.010669206866243 12.233267282536419 12.90016026110926
Au 11.975752967671255 11.86648490779024 14.691094951274486
Au 8.102151865557873 14.296520446214897 13.121022536765087
Au 12.691577532828157 8.010771682794186 12.726108921816992
Au 8.943709922858647 10.024555850798416 11.439041628437
Au 12.297632570248314 10.268794613671911 16.94271036435198
Au 11.662836250073578 6.162670155666468 11.030472747141397
Au 11.123040120588573 8.711007967650056 14.88994857962266
Au 10.460336217603803 12.375688945639231 17.18949868777718
Au 9.883753904931334 7.6193878552044625 12.655286821668769
Au 8.444684162867933 12.081460711162245 15.315102839170253
Au 7.194065699072545 11.630360443081202 12.905869766416151
Au 8.526979909178023 9.51047631685843 14.180514053266384
Au 9.488565461465381 9.863604989697182 16.735320170666924
