48
Energy = -128.78097046 eV
Au 16.25500234191895 15.374531550988646 15.055081539365148
Au 16.958661418370234 13.68123746143154 12.963231517417038
Au 14.699863889581454 15.442980138984217 12.811338819076637
Au 15.167178410362574 12.879722415141506 15.077509123681258
Au 13.48566584977 15.102379568734378 15.399787022456136
Au 15.690831005893973 14.36319089379576 10.43303745991218
Au 16.342710120702378 10.95197125154598 13.467371176805123
Au 17.06404943211115 11.882397128097464 10.874580436876919
Au 12.903556508723316 14.963650138532893 10.807429607961343
Au 12.060102160356003 16.081877838381914 13.208273203914636
Au 16.8025636830068 9.178299027222744 11.37850733818841
Au 11.883693428774942 13.098782133767383 13.224033010223835
Au 12.503192990776409 12.502469985183353 15.919029899855621
Au 14.249194251114707 10.363869754614171 15.321810363565222
Au 16.391187429844457 12.771894933688184 8.344708128405795
Au 10.763687807637387 14.692782339674432 15.360276390994706
Au 13.689962630639464 13.463041787775442 8.651312503455918
Au 10.240255081628414 15.725950858734446 11.146931406742443
Au 15.18793011937075 8.425399625535306 13.473494050672707
Au 9.426955488875334 16.550658101787583 13.776149797187152
Au 15.724350837962547 10.162316655178884 9.053315116959189
Au 12.150319465230515 11.884327995229953 10.607180300775012
Au 11.481583857620034 9.919198172100899 15.603552822466867
Au 14.394638914176898 12.567119482088474 12.106373800039915
Au 13.203970426752417 7.824435494808552 15.450129604703742
Au 9.676403725212902 12.946695396297509 11.514901348263601
Au 9.729537664964873 12.155889065160249 15.610259510855467
Au 8.23934517786348 14.108502232379548 14.284881165382387
Au 14.410548515989083 11.405108888717253 6.936521382725031
Au 7.608950957441426 15.63859063394892 11.99257670414631
Au 12.965827320731307 10.317691823736649 12.770963238027253
Au 10.974734707899945 14.059983417977449 9.01950305258303
Au 10.210344340455677 10.85920916743878 13.138081636771501
Au 8.113154456972554 14.259065756185812 9.642260154686763
Au 14.189447733677321 8.600950847560368 10.76304186181373
Au 11.735474727948374 12.027757074856904 7.174011742188572
Au 12.922974842213382 9.924910783216136 8.705262921079871
Au 8.793417688307422 9.464121187627521 15.357263242103274
Au 7.4468099355721815 11.48342743363217 14.128440537812297
Au 12.66006482187966 7.477725303785468 12.793935504837364
Au 6.823569158685671 13.07109357716208 11.988954826515592
Au 10.20761253400854 10.468361345626782 8.972364279963637
Au 9.094225859088384 12.603912829084225 7.607127292090132
Au 11.36611175552751 8.760220767724428 10.762318121261503
Au 7.693690144483003 11.48442920634329 9.735794703326507
Au 8.758134300628928 9.387298091321462 11.195677494019666
Au 10.089868344310156 8.091397989587037 13.327323597361913
Au 6.315895553274777 10.38203163266731 11.875553175385884
