45
Energy = -119.47523631 eV
Au 14.286412047859942 15.959007838865872 13.426621323653285
Au 15.390990128137364 11.468340096177604 14.3620559073107
Au 15.525281003592504 13.58297320767977 12.590954933705607
Au 14.511132787231759 13.902535942156039 15.375521043529968
Au 11.678153543747111 16.04299832661405 12.10575500615557
Au 14.032684368214744 15.125194985010172 10.794914446393015
Au 16.068462329080713 11.064618066746563 11.541804717689914
Au 15.000081947516735 11.087919661597176 8.873675374999902
Au 12.104273593986578 15.703561748785187 15.03289247295569
Au 15.107449118430493 9.03827719991328 13.180066560179553
Au 13.65738812724596 11.424152975391614 16.460661230526355
Au 11.624662046942506 15.059477318842935 9.488139457282736
Au 12.57267331061186 10.902618835578828 13.449814357067792
Au 14.724226504794482 8.839674293329804 10.492236379897214
Au 12.667994985742222 13.638193855965724 13.18353360776271
Au 12.2268615630125 13.624121798097276 16.947283371045
Au 9.605465925960877 15.17894485013927 13.774865372744179
Au 13.902377882109507 13.64296150740342 8.493995775311346
Au 13.08979994054193 11.500322395858937 6.911953336698302
Au 9.94741190992042 15.068141556306973 16.58167323176804
Au 13.256160742760233 8.934803493465221 15.211414308721283
Au 13.41110327626567 8.901803016399162 8.033258846139745
Au 13.587838682160253 12.178463719387778 10.996859032270633
Au 12.002451904187563 9.911698244968703 10.508114217508046
Au 12.647333834053285 7.965550146755839 12.62874750866672
Au 12.627546607622799 7.073136655424151 10.019912808199017
Au 10.624126489333243 12.722806687568731 14.764781809798139
Au 11.128424559482163 10.413577067424697 16.19830749796726
Au 11.553403829791906 9.386536330307793 6.088286547934984
Au 8.024763702022764 13.380747282466707 15.634947737078098
Au 10.712889578593074 12.110144364425077 11.79945450729803
Au 10.417815360741814 8.866928718596938 13.946299290082202
Au 9.401373975788696 14.615547342039868 11.070747183388326
Au 10.346730569835401 11.822416593946837 6.608961257079863
Au 11.522891865825667 12.199945282270521 9.132840382806643
Au 9.402639621009632 13.785989017873286 8.381915912154053
Au 10.168999920539852 7.986798745785183 11.269789847946829
Au 10.670878074535633 8.038030952723082 8.441323726325152
Au 8.209635158007188 12.832797125884571 12.959229231601931
Au 8.635006972598834 10.73886820721911 14.924375507383033
Au 8.237355912374328 12.127733901363479 10.342783582980546
Au 8.5877676258392 10.081827985808701 12.219383920557373
Au 8.913321322225922 9.26566696573323 6.777396034286632
Au 7.812633719552052 11.571053859468611 7.701135668216659
Au 8.558270034905707 9.47783611004312 9.505950599884526
