48
Energy = -127.13374905 eV
Au 9.53644559775438 9.619579038939484 14.877590215548851
Au 9.883562001510207 11.925919004579944 16.338848858545433
Au 8.381298762754447 14.525124071290623 12.616559245123236
Au 8.410770607678517 12.023946039044741 13.86965104320599
Au 12.455823913879435 12.872535262902806 17.198681990439788
Au 7.287430131241673 12.355314328621288 11.294677903576838
Au 9.039565355862852 14.339734803404848 15.270277867679876
Au 11.654425778838972 7.814906177018704 15.037270329744526
Au 10.977460053792214 8.108873344485314 12.382553334093005
Au 8.587068487056744 9.742588799142395 12.276041504831687
Au 9.5982155824376 16.61378470761047 11.093720463384438
Au 12.170750572409633 10.360185172235536 15.906667833166567
Au 11.09362854380491 10.884320285071432 13.044616974285276
Au 8.455622329136677 14.55182163596042 9.821923525312478
Au 10.129174591922254 14.253927836054018 17.80839698716458
Au 11.251373765951985 14.316950597501622 11.755144122534057
Au 7.61366651154727 12.454221719777122 8.410074297669885
Au 11.650209102099021 13.229017646452577 14.26973836746475
Au 15.795112255377566 9.725807380418862 14.58280568818351
Au 11.81845884290124 15.408765087634185 15.94703370241562
Au 13.601711484684309 8.59140109561843 13.30610848744498
Au 14.698631240724465 11.479630408843116 16.46441098538861
Au 10.290714518479922 8.976197281934352 9.902894102801413
Au 7.6583592173913955 10.050333777154549 9.79308527445908
Au 9.956708394621863 11.991118723610448 10.710806033216153
Au 14.290605882752116 14.065542964302681 15.468086749484936
Au 13.734167551637919 11.454950325157407 13.7727722604067
Au 9.428357971874899 10.474798187200781 7.702462381315464
Au 12.961603386846654 8.99693658503274 10.594576836584153
Au 16.46525133712885 12.501525376572681 14.587971463135265
Au 10.406549264920937 16.21748062991825 13.687822882627623
Au 15.531703241486086 9.511029516161308 11.637816712859626
Au 12.664493791227134 12.02112982733667 11.110254552953444
Au 11.290489360100299 15.372352932017685 9.219090928604672
Au 12.01559743149584 10.711726409189833 8.517775251090375
Au 10.361860013481866 13.061063026170721 8.076211879002882
Au 13.097477094761961 15.698790219231311 13.460442750379723
Au 17.726559390868278 10.673670747176455 12.884696970842118
Au 15.271301519888667 12.537820428735023 11.77383288992512
Au 15.674066671478222 14.896548992008215 13.261020192646278
Au 14.606633959669928 10.868582421688625 9.34775648544709
Au 13.069134653790814 13.361888194023551 8.588777514051268
Au 13.856679198645734 14.975031011355648 10.81415425303014
Au 17.903181101131047 13.390107841316201 12.348506772703102
Au 17.265410395455692 11.17262062168528 10.20027717788166
Au 15.752520633287018 13.39485504691148 9.064815345772178
Au 16.624623507300377 15.374176570721131 10.751385599290954
Au 18.485884434420246 13.531707338290525 9.630252449794579
