43
Energy = -114.3022673 eV
Au 8.981066586375494 8.841143558486056 15.590560019431535
Au 11.23582197885191 10.495875566638265 15.315189889662935
Au 11.50403470296679 7.738141721688885 15.400467987744202
Au 8.684275237393566 11.486005734532563 14.617707138775609
Au 10.013502180332447 8.06893274325721 13.074518275056667
Au 7.5173263343676595 9.292444672064645 13.314685094176923
Au 13.513433676085896 12.052368824568608 15.190023185456175
Au 10.947342416413132 13.17576718109689 14.740864051611887
Au 12.857656291113297 7.509898083953993 13.009528755946945
Au 13.793317370608088 9.214577194243242 15.073284523541128
Au 15.838827044403137 13.541165187179432 14.599308283530473
Au 10.292833434982011 11.298579909220592 12.381243169297482
Au 13.315975718514865 14.730628062903754 14.618106204133378
Au 8.79782738195908 13.770538300194893 13.039240815214521
Au 15.99651091147008 10.843149145169562 14.770247239811443
Au 14.157921531180817 7.697209068111768 10.65606887618659
Au 7.520127170000067 11.552584833590522 11.760835951115286
Au 12.80671477109807 10.29631527181846 12.584412347187047
Au 8.801338408138397 9.21593889294081 10.862687678506788
Au 11.353257227404267 8.036878275771297 10.70712104469661
Au 15.32902857834379 9.165934822618219 12.682639115428339
Au 8.565962341415522 11.474873758305954 9.161778934493478
Au 12.629027865669768 13.062134582607786 12.299595847867675
Au 15.577642168858183 11.998197523378842 12.253965443102908
Au 11.035966544094517 15.527757533925502 13.26884836009106
Au 10.151978977246399 9.28018255130635 8.507614889257791
Au 14.977868458304233 10.417597264932244 10.083912486655588
Au 10.472140701858299 13.598691725481524 10.666427275241622
Au 13.449753433885563 16.96111213320765 12.943647949211117
Au 8.991339791252024 16.03063498150076 11.417002357216475
Au 11.864427087519275 11.165290757537681 10.108975289615717
Au 15.005209752901015 14.734258580760583 12.262747173913743
Au 12.82581551485902 8.951747659522718 8.479230107762714
Au 7.662509400223371 13.885288743755565 10.318517566994569
Au 15.441512476653845 8.364775457153685 8.323356684341798
Au 11.255510271016487 17.616642750959866 11.409163288633524
Au 14.38665252675896 13.1728787834434 10.00711975451223
Au 12.978856726732548 15.545795549558118 10.562715455704332
Au 9.330212922820543 13.96047549042509 8.044843243892306
Au 13.59497658220777 11.56649782865678 7.8976992497174
Au 10.817402973036781 11.701077370460643 7.467503177137193
Au 10.574916956355453 16.12710438510281 9.152522063089712
Au 12.214859227660856 13.94429755885401 8.420222615835266
