43
Energy = -113.5273582 eV
Au 12.590714162554633 15.8358703760713 12.118347069188061
Au 10.838428981066198 15.572167816064674 9.879100748865453
Au 13.885863694501033 15.46138008974189 14.61709211977149
Au 11.263745808945194 16.29968654469159 14.63520179851766
Au 13.421489194328942 14.420365917020979 9.84907587561735
Au 10.090677849074318 17.00346979388498 12.293165108187052
Au 14.890843967024153 14.248754545340754 12.261773849342408
Au 8.384113073513277 15.229485551559305 11.180918536344295
Au 11.445126873301945 13.320082965076233 8.136494184130765
Au 11.03073507685575 13.136264612863062 11.06804559758183
Au 15.417377310239777 13.14955870928809 14.728644113006133
Au 13.072065639701993 13.261110045920018 16.159485837999057
Au 13.260362233121906 11.933425775715452 12.279113502066483
Au 8.874092031338982 13.394430110383304 9.20035710031824
Au 14.133935574842676 12.846662442658095 7.6274087214317605
Au 10.395930012482866 14.018991292197246 16.140105915074603
Au 13.128550047116482 11.19618994420291 9.539067370370875
Au 8.908162937299224 14.88377153685649 13.8519264036137
Au 11.653509294588012 13.616940319661262 13.716439777751969
Au 15.48842055523501 12.506082055534025 10.222334781741203
Au 15.890772188342751 11.278775642135018 12.759510930511363
Au 8.023897542677002 12.638150311276652 11.87412335287606
Au 12.275399430370276 10.73500652498177 6.922686632987316
Au 10.7002129022535 11.036563441482627 12.801558581809267
Au 13.996884199027702 10.780494839810792 14.903191263366352
Au 15.397666823449029 9.6900674982949 10.481587670907883
Au 10.496787706264413 10.549634192781443 10.027796173647054
Au 7.7928103155038 10.880236646299855 9.664871301417335
Au 8.787391591421276 12.225326993439952 14.498300808846716
Au 12.481087579393618 9.29077467095747 11.403272896886063
Au 13.384556359004327 8.600593418358375 8.367788705263191
Au 9.572753345225108 11.233671734577868 7.502981448680913
Au 11.270097539701505 11.279890431512019 15.645261193594395
Au 12.066989794463542 8.833482510532814 14.397883271328615
Au 14.243664903060646 7.214312317420737 10.523357530755929
Au 8.106990305808974 9.891665721860482 12.222802919734653
Au 10.014906710869766 7.830520241631124 12.464354094367899
Au 10.683664963338696 8.661504260196024 7.910278717883523
Au 14.630286515417032 8.758309074749045 13.090147247242484
Au 9.381952968427418 9.471652731932974 14.664343538215158
Au 8.861666074909946 8.255435989089992 9.92485906641256
Au 11.410442577899872 7.007023006294434 10.030481584091168
Au 12.570452941597445 6.737696951210892 12.629942253813434
