47
Energy = -125.4497444 eV
Au 10.891927653035468 13.79146146887079 15.565770469413419
Au 9.93981389452101 10.994067523951443 9.961832410443668
Au 8.955227352142108 8.533874460139392 11.270042456560958
Au 12.675283716006579 9.612408302219887 14.657784473590821
Au 12.331187284916691 13.19978929867883 13.238864221283917
Au 12.438206138141663 11.880338102197443 16.949652350734656
Au 15.098733278584445 16.23212026334812 14.94194045617394
Au 12.099219848651723 15.768431293974478 11.41588141199034
Au 10.852336223470187 10.893253760773888 12.651886394580263
Au 7.706713731515514 14.075561705610992 11.864630072760013
Au 14.068689309624816 9.715634288668316 9.510765483766727
Au 7.09561030829601 9.819831703883922 9.74293006772745
Au 9.92429956716922 15.1797775358458 13.31277297444058
Au 6.727482426515557 12.566591549786358 9.798772724976065
Au 14.741796027990071 12.733259267143138 12.145354334349898
Au 8.24371253764886 11.36127082148568 7.73431888668673
Au 14.548663488408472 9.936900533288402 16.6681686360913
Au 14.293468933203872 12.105805782161497 14.766178276933832
Au 14.670247188757497 15.696880969228754 12.282611694466778
Au 8.79705192934734 12.678041053131661 14.037133292263862
Au 9.397025322603342 8.787606412701146 8.438498671142774
Au 15.011470938154847 12.501360782317304 17.70085268022211
Au 16.013629349123168 10.25437445735447 11.467263955341382
Au 12.47619772297266 15.84056968252131 14.214160585996822
Au 17.212858522212905 12.139368312349355 13.24021656551059
Au 13.238410023615469 12.487472371666481 8.050869284891162
Au 9.495253102718143 15.855203662688997 10.539692325530947
Au 15.497294478294105 9.613846683597092 14.043164488870243
Au 16.85990125735782 11.263370099198047 15.804762297658451
Au 8.799209468944127 13.951294030762067 8.683859079398436
Au 11.072218929298403 8.158762131799664 12.987374032520922
Au 10.372146964812684 10.967390503771485 15.507384711880665
Au 11.605853916982541 8.485702215893989 10.229145058192529
Au 7.456493756251908 11.232186464883506 12.078732256764084
Au 16.351964225502762 13.974202691227049 15.825185096112339
Au 13.520207690221811 14.46254185518502 16.390815018736372
Au 8.699735616420137 9.612766369891348 13.840816038606519
Au 10.341887478242855 13.315807487893323 11.237415113654226
Au 10.654288570789623 12.495304599393132 7.226542083366611
Au 14.092116422314852 14.49621363895737 9.831813855497357
Au 13.637663888014783 8.861181060139032 12.118496346422969
Au 17.09336258938896 14.941543734951335 13.421897972435465
Au 11.811897055425762 10.081523395461836 7.9233795015049235
Au 15.543205580633739 12.103986683781907 9.447484012217352
Au 11.503730005006409 14.64350546322949 8.856069899554923
Au 12.566098003080048 11.738228116500867 10.688296109260714
Au 16.754194933593006 14.137374057419564 10.86650851939769
