49
Energy = -131.26168335 eV
Au 14.118796068708198 8.973446590610402 9.41908635467837
Au 16.055773752970932 10.27556209665565 11.030925420347138
Au 15.44824051580466 11.174989988056046 8.258045422705221
Au 16.515996638622802 12.855904863762564 10.127393003111692
Au 13.965540241314573 9.448126167881881 6.664218907888392
Au 17.059511461045272 12.30087027659738 12.734321922929855
Au 14.195458963199673 8.513691040622733 12.111526004476028
Au 11.728403998496683 8.654425941792162 10.811754069681212
Au 14.662661282262391 13.888486977509933 8.346318005739098
Au 12.963727633027467 11.951515628764653 7.170696863747905
Au 15.707875251758628 10.205957346263316 13.829324910504626
Au 15.869102257135072 15.478157321430382 10.27361034409942
Au 13.597691838821621 11.638564862025529 10.357578036926455
Au 14.316603523634953 13.38928058102764 12.321645967877698
Au 16.424642365132485 15.001897380649543 13.011712047663387
Au 11.65815799451841 9.568231288504164 8.143529672518252
Au 15.404728890943776 12.810993811957326 14.90908842800957
Au 14.22211077719843 8.157354566959519 14.846147347762654
Au 11.762728217104781 8.23757349409539 13.580394937399515
Au 13.391912266310941 16.23785503737523 9.35487913235744
Au 11.94877519780143 14.366120416107188 7.892705169592446
Au 12.983683019144365 10.907607969538644 13.222305542479724
Au 10.555113250010091 12.063346131927005 8.533272962428978
Au 10.995350873840405 11.548115227466516 11.359675786877133
Au 9.425934975398505 9.83021430299571 9.781387193432954
Au 14.095345323271951 16.470886004459686 12.053326281163477
Au 10.642161068225223 16.132833229496654 9.567102876554827
Au 9.3423430362791 8.877952693436688 12.382615138242857
Au 13.917218203636931 10.730538840141515 16.00100096449052
Au 10.261772104544624 11.007111802657377 14.045285808770918
Au 12.102728683572296 8.619837845105524 16.41679871391106
Au 9.284529493400148 13.663782087945204 10.319995649822847
Au 14.195263528926548 15.292751254043615 14.644565645098274
Au 11.674605386843272 13.360401997190477 13.40672412986087
Au 9.508416308217912 8.529753905016102 15.119566152923444
Au 12.170244917194722 14.050677957865977 10.711213029757765
Au 8.562949370560192 16.15324498513403 11.321137051418035
Au 12.884120329780222 17.740441564290105 14.130191999194977
Au 11.225950919574965 16.34655996628587 12.351192971141026
Au 11.426806896539961 11.235030851495893 17.165769051371974
Au 8.21398581658208 11.37424394879383 11.735866236858017
Au 12.896392526393486 13.306955630225696 16.127913590849438
Au 7.776041852111665 12.52074846704924 14.343097846924007
Au 9.81992524610155 9.052907355302498 17.836726143430408
Au 8.637512246766624 11.025699936993757 16.41062193991352
Au 7.108918853002952 13.875253495783912 12.06750578022147
Au 10.089184021110718 13.308343279750117 15.84599435515377
Au 11.50095274289582 15.578392026601218 15.09926012599628
Au 9.214063618509638 14.835604544967714 13.639293344780214
