47
Energy = -126.13394834 eV
Au 11.187293457400209 16.02402924286574 13.618270651440236
Au 13.26900160376325 11.3751910976368 12.419137599304623
Au 11.59310479049582 11.483435463350427 16.011309839288014
Au 10.93149098379695 14.594365449499232 8.950157878393766
Au 10.347157357767903 9.143044486255693 8.101270050999096
Au 12.729060130298594 16.05587023045218 15.90788470317653
Au 14.890157752952806 9.525277766723766 8.92360425168029
Au 15.887963276380535 12.63834742351989 13.258298710146585
Au 12.164756386140262 16.085945599755867 11.008088010708532
Au 14.09324221117168 8.469528599761771 11.346472955439069
Au 13.543683701853626 14.143050952325437 12.480783389266435
Au 11.321775428639524 12.603025430846102 10.73797068583265
Au 7.855876998914916 10.258339932740586 13.401880676613107
Au 10.389161403316427 11.931114449246424 7.8869387545812195
Au 6.529614595629586 8.423904894186885 11.849617509963872
Au 12.172627440006478 10.06825302053234 10.13858157250862
Au 9.056436756462888 12.130301553783626 14.930809664233664
Au 10.86947667395331 7.4085276810142595 10.359104149199249
Au 10.182904119956419 9.431827033063747 14.796244976038667
Au 14.309377316804992 11.748653048741751 15.333453119849278
Au 13.798112632861102 14.97667607196978 8.962177575495216
Au 12.673962603046967 13.261684689420653 7.256438171868453
Au 9.183469486060057 7.926661751825573 12.498358464476363
Au 8.354959312660693 8.419699162050323 9.816521264697391
Au 9.706203629327756 14.860947267155831 11.467281816605146
Au 10.571682827640325 10.452300809132545 12.313564033112826
Au 14.82109189553381 12.270340079729731 8.630407937406572
Au 10.694847739314836 14.186973138843424 15.980928690798358
Au 7.102157146452874 10.886789276389228 10.76125030383356
Au 11.830228843126358 7.695435977259434 12.94471874619954
Au 16.260589507779194 15.37380772238573 13.009266068717167
Au 15.76577475191255 13.856912516178015 10.659587111209365
Au 8.61148667000661 12.959860077011589 9.73679744849031
Au 15.376520005527304 9.873038022505837 13.513180309740564
Au 13.16371164466686 13.534557440848278 17.04443432248967
Au 14.40843605973571 7.2927374231371465 13.789959835420873
Au 7.906941352112909 12.898879227071323 12.446501358538873
Au 12.77814807350557 7.872880660492054 8.459266903362918
Au 14.936948689559063 14.496283073971515 15.204924517047555
Au 11.243644714470939 13.054445057601415 13.482079564485765
Au 13.84676059820664 16.759789576347952 13.50414027970637
Au 12.950770667816863 9.346941573617025 14.917335831189318
Au 12.756786423893853 10.528638456257015 7.398794145808418
Au 8.783149946006422 14.877998183765536 14.113605304851514
Au 15.729012826810623 11.092364897190365 10.969947082484666
Au 14.878945249903252 16.533353274347473 10.92028621742279
Au 8.007487509756325 10.633964430594437 8.204360739277519
