43
Energy = -114.19182121 eV
Au 17.65778183090222 14.307495519872356 9.997328641732437
Au 15.652552060881447 15.16462950406539 11.711214754992985
Au 15.200516992264703 13.93728681322474 14.217149008439097
Au 12.795725941272138 14.339099723163704 15.538158210235798
Au 17.039342783214195 12.784351772087048 12.191024787692685
Au 15.112916950402322 14.47325889770414 8.976068358027051
Au 13.301006653750377 15.729376857967068 13.171294503555758
Au 14.099761370215539 11.891607098741986 15.87613392362062
Au 13.514998281503965 16.240025545241135 10.410006742624452
Au 16.316859574429916 11.40906971310739 14.374628813432526
Au 10.697547644425489 15.098447439836534 13.830564979953042
Au 16.165161866973403 11.982693898474846 9.633414667395561
Au 10.341553051068713 13.137471390374342 15.713510912508648
Au 11.0616344805902 16.489761655027344 11.565281091799518
Au 13.684819942355055 13.203051050406271 11.843431418227494
Au 15.866236703338606 10.28434584670087 11.893996725506742
Au 11.942495619309582 11.964847306470627 17.516208609425085
Au 11.993895169669372 11.874119813943024 13.734772436860865
Au 14.17130602289243 9.729377790917605 14.050356303184158
Au 11.406931695643069 17.159770523937034 8.887728731139191
Au 12.472955142748587 14.637881264248378 8.310239151661287
Au 14.607762741297874 9.783707505755977 9.475197086911745
Au 9.969812975044087 14.91186842909891 9.460512752998655
Au 11.952984135913416 9.877427491887287 15.730248251567929
Au 10.960481386693028 13.12356132122096 11.543450670429928
Au 13.587817531280365 12.150273904855279 8.453333816546994
Au 8.569084019940266 15.30409134195447 11.843133209994653
Au 14.088098578090525 8.212244501976523 11.703214618993051
Au 8.636633241098925 13.187362085905232 13.556898248861312
Au 10.822359836619894 12.37615253115684 8.742672860250876
Au 11.96436606183614 8.044077968801362 13.69655709520396
Au 12.642531810557248 10.759377035765567 11.338422435779028
Au 11.965449057795325 9.874309771740883 8.695077473343268
Au 9.423278636926652 10.823756714316305 14.611765282579444
Au 8.46830723058085 12.772103011699318 10.316590110968413
Au 12.553584757119308 6.003330614679579 11.952391268968269
Au 9.720233944397455 8.186776025012954 15.303552733489344
Au 6.423006806850792 13.503581738316598 11.963369373356754
Au 9.741968413211394 10.338934247817761 10.357442444771296
Au 11.364832078859735 8.186984277254451 10.844901271735065
Au 7.573356538714643 10.941937389225554 12.210951082052748
Au 9.354706344018018 8.791576655450502 12.585857883892867
Au 7.259751388214765 9.155003303508577 14.318354548201247
