47
Energy = -125.25457311 eV
Au 16.265628820919137 11.164241308556658 12.448072506553054
Au 15.370240160216802 13.56895754872092 11.438612769386625
Au 15.365383202742176 11.17740552013923 9.855779831861698
Au 14.986441288636119 15.568808010308052 13.30429453752096
Au 15.153034682563048 14.900086792494724 15.936892241867774
Au 14.776310601555686 12.74330242690985 14.186079782327333
Au 15.763937339681483 8.747903516991661 11.257577072607633
Au 14.650067925598824 9.38093729683119 13.686262621702364
Au 13.335205621687106 10.502357430017588 15.809116261181376
Au 13.829447494289006 15.75976988866933 10.720318333282002
Au 13.37477829722996 11.570226241125159 11.957203015304598
Au 13.933701993815161 13.40184923610749 9.066950866800145
Au 12.788980387650634 7.816707297574899 14.933743564749411
Au 12.94007894943769 17.36316392887639 12.822365315778848
Au 12.64172646958752 15.842929946274614 15.116716769457314
Au 12.07480851392651 6.490699132567891 12.422570321744617
Au 13.960354534472522 11.052969019680154 7.530919144468171
Au 14.23437060197462 6.5774494182192935 10.794768608919707
Au 12.478431361557215 14.196838238257692 12.712885161765605
Au 12.957267295163794 13.259910859746487 16.265233216659794
Au 11.698310515144113 11.951891513539548 14.165132596049945
Au 14.029774351295682 8.767453114843944 9.076687517930855
Au 11.926311483117253 15.192426476255408 8.78671926913726
Au 10.164160805767581 7.175732757268558 14.230875852533764
Au 11.856797974931037 9.310097567941733 12.810433306656895
Au 11.781250181885579 7.3047944623495065 9.78373909484416
Au 11.602748547071624 12.412093280081868 7.757500307301338
Au 9.70382902330068 16.74003673597673 8.510701148694768
Au 11.624149973184194 10.180396493129631 10.262658683962352
Au 11.656031451604134 9.495673051800926 7.648508026327697
Au 11.316960848860553 17.23546936118273 10.687561953170192
Au 10.457086801077603 14.17578964686503 15.266934069281234
Au 11.291908919592133 13.05557861581432 10.521504530102439
Au 10.621367113335978 9.633431395879514 15.481600237435046
Au 10.471991638428669 16.143788239326334 13.25444930180922
Au 9.936052274288304 11.33039448692086 12.166558499004612
Au 9.555311364494422 7.601176288614641 11.577101516593977
Au 8.992830465479013 11.799577179990493 14.921739275583636
Au 9.475878456515133 8.498181718638522 8.997858082187662
Au 9.362044887900774 13.991733047477101 8.397079520653955
Au 9.263543869211752 11.191816276067026 8.601429654536624
Au 8.484620618067666 9.267498573346629 13.604787543531325
Au 9.262170852289097 15.359787709279319 10.878362218123396
Au 8.745273972376385 13.909207365132401 13.104743518214624
Au 7.940448170346594 9.835063574670048 10.797739962909015
Au 8.09865266062818 12.791338978648692 10.561228084267174
Au 7.120451492116305 11.563237504500337 12.837963900202459
