42
Energy = -111.17907982 eV
Au 11.695560148768477 9.440350842108414 7.882755819053703
Au 9.210085488477256 10.47527024871427 8.303956025919312
Au 8.50556092753391 15.885997000854177 8.484315196968467
Au 6.949743253389845 11.759747493229636 9.292040492022528
Au 13.900675017321202 11.052622363248782 8.418384893161763
Au 8.82519251295397 13.206201213017875 7.864425333396668
Au 11.46649134889539 12.203321133044792 7.894011520204398
Au 13.469720320917673 13.66652678890922 9.284466497639409
Au 15.74609986688246 9.474755356372338 9.655530902088262
Au 13.197943196592327 8.490832760159833 10.041262935571705
Au 10.464850090786896 8.854632317013607 10.340119064634669
Au 9.715458446833345 16.069782814060158 10.98691686077329
Au 7.80247293169973 9.467127348145553 10.558371656641585
Au 15.638038322491436 12.248286345417455 10.231731614346396
Au 7.782615761256066 14.111387779074905 10.469750568214243
Au 10.972836559435464 14.735500437311906 8.82738855942919
Au 7.6826561555185435 11.816910468716813 12.038481821054708
Au 10.029102307856714 12.267391526844412 10.46041489127313
Au 12.48045095056352 11.028478698515373 10.929283319637069
Au 12.570881626772405 15.941799653720562 10.761129908664342
Au 17.23266174574062 10.410678555525942 11.711385509873036
Au 9.047602747465284 14.119601647425299 12.940771214501607
Au 14.761629141285448 9.156132510011247 12.2518218425367
Au 12.013474244418914 8.589192829615156 12.628917333186473
Au 14.093511194121954 11.942463976231771 13.082552857091873
Au 14.713220668919842 14.491059027669865 11.68881253124114
Au 11.935366296166068 13.540569693970484 11.988625863071357
Au 8.821986949682845 11.833580952422876 14.502157883532112
Au 11.209670174567572 15.901218592592253 13.281577534178851
Au 16.701324459505763 12.923439085637558 12.757079861348863
Au 11.453361345105321 11.357037292364623 13.55967371367432
Au 9.326849260093844 9.578161798353104 12.834423146425417
Au 13.694367607314362 9.422429103925388 14.749119619929951
Au 10.84158159347313 13.83657119104966 15.072428985907854
Au 16.313779784726147 10.502606786229805 14.28577717048232
Au 15.577692492568254 13.097073323230656 15.26767581070722
Au 13.464753368542638 14.573735614475883 14.270881490214457
Au 10.880084478304937 9.187447477013981 15.132733615560303
Au 10.532058551071481 11.563165879919046 16.581713952662287
Au 15.178441984947185 10.763427945088125 16.735595807191476
Au 13.065057084789032 12.650841272975427 16.299293968304127
Au 12.631240061812923 9.958793325362922 17.24839287725474
