49
Energy = -130.61221573 eV
Au 15.913806014956247 9.954956962152279 12.278761338288428
Au 13.578270345776394 11.819199304095717 10.734761000732608
Au 13.0827777181575 11.400333673859944 16.38979930079403
Au 7.582464483161648 12.169210362516706 9.890259623147468
Au 14.251943372514237 13.699154238541688 15.360950527277403
Au 15.031468138387442 9.97689123818813 14.99269148738538
Au 11.986388640168531 13.729197767140521 12.13885744571957
Au 12.238631045417955 9.161525386390041 14.87869735874291
Au 9.944641645395954 15.396654787444735 14.02282791129108
Au 16.375075555887467 12.472316338833858 11.197533390158526
Au 8.285148724129105 10.177548170285144 14.439233010715691
Au 10.024452612607178 8.29432306768148 13.188898650940363
Au 9.253430468002687 13.560624239456526 11.737034034890431
Au 12.358853596464535 13.187711293892487 8.258288434983314
Au 16.16939001717161 15.132196490824317 10.44326837341769
Au 9.081483434532593 10.206595298473644 8.710113314452803
Au 12.40333780287593 9.74301804144075 9.24955618505693
Au 9.58179603153021 12.92373891993942 7.977460355092619
Au 13.353013161960318 11.738040330929593 13.574237943091834
Au 15.115977271203146 13.200878892591481 8.792984454284227
Au 11.228901550173532 10.931512100081777 6.968140411099391
Au 10.786658731035098 11.667657063387855 10.446537843817675
Au 8.72974267380204 13.021742397824424 15.218705330355982
Au 7.12278053922844 12.14849999998162 12.9711563278528
Au 14.592680173586286 8.028927810535905 10.665615716865032
Au 14.778773199525034 14.419879379543426 12.694039152207562
Au 16.187224158032645 12.259234271747223 13.913897428041532
Au 12.650634207658857 15.60824050158624 14.188462182156918
Au 8.54772147175894 10.143751808928158 11.602106036327518
Au 7.278717215586846 14.861375492331257 13.851669012419432
Au 13.43349222909816 15.132212388223067 10.154997706947178
Au 6.528922066485905 14.325221835754334 11.287877465918001
Au 11.415556987589142 13.554639773731676 15.638569843496866
Au 8.04911100483593 14.881462722915705 9.090037826605686
Au 13.992400968756005 11.10896032516878 7.373637467364394
Au 10.366738237641735 11.044883420865194 16.207267435210504
Au 11.469107484015865 16.456246669218615 11.819660245031283
Au 14.298684963055877 7.956327744466245 13.341023268483994
Au 10.195139256866184 8.21587991460163 10.414665503307203
Au 15.705426629273118 10.367824580899777 9.51031044086133
Au 10.73905364290831 15.029897193490864 9.55397839348949
Au 8.718941395974664 16.24597125326705 11.534836952874736
Au 10.512288545823267 11.643447750046363 13.359718420086077
Au 12.240094379335707 9.70191388334106 12.05255351171475
Au 14.506068584437067 8.43896947248906 7.912784074310137
Au 9.786943696715314 8.376738829530058 15.923790278085672
Au 10.620610719487765 8.223089262202178 7.606746605837154
Au 12.461837760171266 6.899887568730296 9.204855050659473
Au 12.177333877911558 6.909009897921502 11.957072706601059
