48
Energy = -128.79170554 eV
Au 10.666720326834671 6.889540746423537 11.976299146753181
Au 13.180694812906689 8.110545185255809 12.370036222198292
Au 11.499713372445953 10.569462437201992 16.14028376429656
Au 11.043478191864578 8.78796760354239 14.030817103656338
Au 15.521263146322909 9.476024785069802 12.71798758073481
Au 9.044742479740824 10.517506766316462 14.787404506189533
Au 14.14804580929273 10.928400140788005 16.97748946383128
Au 12.556091966406 7.186647090782444 9.908728398095146
Au 10.220694390252836 8.774447767686416 10.034076611139833
Au 8.722494038616784 8.72899796251487 12.53342630798692
Au 12.688134860519003 13.16903763572978 16.479946612761662
Au 14.951428605782887 8.590661920582493 10.167696602135802
Au 12.033122299029662 10.625879753277786 11.68972502767647
Au 9.773514807762842 12.832980828921679 16.302359386032744
Au 16.283318965480387 10.3414803196537 15.249373775977107
Au 11.303282211514665 12.431122184782062 13.991606684766191
Au 7.362688114383032 12.683953201685323 14.948236255620783
Au 13.615252047559997 9.542205879920983 14.684611818736894
Au 15.124324348433332 11.151467237090587 9.107951739775814
Au 15.261395882471612 12.913959481237093 15.237190592877097
Au 12.68336355903595 9.818026638806732 9.04873700078921
Au 17.184620459812574 10.24050719849195 10.69684575377828
Au 7.90213113486122 10.168415915359434 10.227863138758252
Au 6.920127438648329 10.778834924336534 12.967338567571995
Au 9.458037998875458 11.648386010929466 12.076782996199324
Au 16.942944797675004 11.855424036359691 13.037006450574347
Au 13.902246157525928 12.084883765795148 12.97016537141913
Au 5.8496697689298855 11.957976419944524 10.697683912871282
Au 10.336531247949102 11.381982427440683 9.189995258424627
Au 16.972611327627217 12.967980269596307 10.514697017449365
Au 11.101697443964138 15.232021922995875 15.743228889507739
Au 12.763079955261942 12.466763895898495 8.358456468664988
Au 11.539706409092213 13.415324774806106 11.454819981860638
Au 9.004907495084232 14.752672804778697 14.074317502829164
Au 8.185820320622156 13.097594456311091 9.778200927612101
Au 7.213417219940158 13.655875279420378 12.370627665045395
Au 13.541945640139055 14.91398096354544 14.441573813618287
Au 15.514683851114395 13.705045500019686 8.160396344405083
Au 14.127100832795533 13.472936910732471 10.60772553782062
Au 15.774863466670858 14.33023474741949 12.85003258384672
Au 10.584183751512452 14.15840703521963 8.923282996889778
Au 9.276100407909174 15.205402487131854 11.280378684382192
Au 11.309738752330235 15.933604014491946 13.087269934085061
Au 16.03034419157343 15.55096148375266 10.337709339500856
Au 13.107784392381244 15.140964069699315 8.231442663158766
Au 11.609067917300141 16.354215075014395 10.330849346442639
Au 13.843869177886733 16.18170088266501 12.021714600629542
Au 14.096476643692572 17.327770469496073 9.524000169013563
