45
Energy = -119.86635045 eV
Au 8.712667134634891 10.815990863114838 14.008834214964129
Au 8.544247782433539 8.41139088945025 12.573088776948156
Au 10.550530334788041 11.442409148646258 15.909030423099932
Au 8.01440033176462 13.22562207479825 12.923388435908732
Au 7.927982920910695 10.939628592282439 11.278650810208704
Au 10.771304641267392 9.009651744918335 14.442005779908518
Au 11.23209053522067 7.2353910865207025 12.343250028574438
Au 12.419042496791084 11.602862696418878 17.941561882840144
Au 8.805396687656106 8.679666307229796 9.788102756949737
Au 9.679147527012386 13.969095321325648 14.970763243268209
Au 9.921656369303854 15.211513847760841 12.351972679315436
Au 12.961302288396972 10.103236902601191 15.657430868868994
Au 10.79115324638325 12.47070372570094 12.907705539896325
Au 8.569668792786766 13.49758595734132 10.294740949218495
Au 13.405537202543268 8.661334270617662 13.355417981941702
Au 10.98735904727556 6.976731469637694 9.626052520440565
Au 10.61170735749959 9.928725392612465 11.611455782690944
Au 13.988473752166442 13.905533540427466 18.396423515438197
Au 11.85448221533147 13.957968775503971 16.579692394485186
Au 12.037960492343622 15.409810763862621 14.20549619885595
Au 9.015421723934372 11.173358165988219 8.67127316402476
Au 13.275027802501949 12.852313238796762 14.205389172386226
Au 14.443079332371212 14.964023402183503 15.913449247442
Au 11.206017045619548 12.205992501163685 10.126157590211093
Au 12.433733056507226 16.39137344348475 11.622221995508752
Au 13.080808633792666 11.08473687319038 12.0582769426644
Au 11.299251494875307 9.521472854154752 8.600706405722713
Au 14.762956612847344 12.10552358569906 16.469477276272865
Au 10.556487597721455 15.370981252229784 9.666305994519858
Au 13.107758991083331 8.50030342073487 10.567262373267784
Au 15.250457603796477 10.671386890734022 14.11263741666204
Au 16.230268047386915 13.314286700102247 14.467647581928249
Au 14.672405564366214 15.477447656351483 13.244576157384754
Au 9.507339635838605 13.683794314082899 7.732770217854777
Au 15.409583773659145 9.876950045661754 11.35573636138071
Au 13.01682717631198 13.750796294588717 11.505724880010101
Au 16.958672989834433 14.37511409331115 12.06913848073453
Au 11.743675162547193 12.009744797496749 7.430320766697497
Au 13.021040975496554 16.31894298435941 8.901315730541949
Au 13.725740250233837 10.849202112901 9.166535648826796
Au 15.03968928667637 15.426279831486559 10.486462001778394
Au 17.218111279173627 11.646213151311484 12.43922943604446
Au 11.855312016085183 14.788902111701567 6.993050111354535
Au 15.58599109279135 12.558825790742919 10.388900103641838
Au 13.757454779590095 13.603424408659684 8.62529011754624
