41
Energy = -108.51910282 eV
Au 15.8782473570211 10.104022768316202 15.309135537243577
Au 15.784494494669264 12.467162959214448 13.81656986612151
Au 14.733222430685693 10.032611250943859 10.00456456803707
Au 15.392471599990296 9.843867609684922 12.669622146061442
Au 14.857104819455861 12.488082680780483 16.41349890460607
Au 13.592829897013889 10.028134390065839 16.889621171275508
Au 13.522305580563344 8.786014672625871 14.401861430436377
Au 16.176394454948586 12.06337247272959 11.204194151402438
Au 13.260980104506503 8.331290797264938 11.65892820339793
Au 12.096360819521289 11.124393790330315 13.625197948451225
Au 14.562394373246413 14.249113382159592 11.781635711755206
Au 13.89930606189875 10.578693829853549 7.44407744005898
Au 13.611516411096433 14.00780995495999 14.419773895859347
Au 12.959180030594363 12.135812701837613 11.23062840669214
Au 12.49469776889022 8.739942366084533 9.006599091817746
Au 10.696421356406418 7.484315039266321 10.683638776639505
Au 14.663381361975084 12.772688907856919 9.063820679079221
Au 12.127812998203575 12.259293234479037 16.18921259869949
Au 11.043584922841525 10.227875764797725 11.20854754385811
Au 11.0005777795919 8.190573317497515 13.341910912061088
Au 11.147667400835795 9.520972193525207 15.84870691188487
Au 12.032012646701652 15.149729215552027 12.373554630717484
Au 10.271931253146033 12.778797404100084 12.334960220974661
Au 8.552723381040723 9.001735600747024 11.713710690464715
Au 12.50095638988359 12.937727157979962 7.346750824588141
Au 10.887996620430222 14.23978024698198 14.808732096977119
Au 8.756372648286066 9.29050453512454 14.48843585622331
Au 10.600726019882881 12.382320198139222 9.519082543357777
Au 7.917694702348842 11.305238548149784 10.248433701939103
Au 9.468036421480972 9.310261147292458 9.005886931129702
Au 12.622009418277605 14.598762391297793 9.664059384545174
Au 11.201204608882808 10.433339800773112 7.1965533064186165
Au 9.586578401862694 11.845340339881389 15.084478752704337
Au 9.945155783606419 15.185052485156113 10.396134906500933
Au 7.737327683091602 13.751788398258816 11.559766869629314
Au 9.301278120570968 15.46607093128685 13.030562683949357
Au 7.786484447705354 11.400383413545036 13.014250116010608
Au 10.478032721161215 14.628066121819383 7.746597451885692
Au 7.945624091810636 13.802963533373577 8.853410181016182
Au 8.737728425864644 11.481959672976018 7.484114097561588
Au 8.422679281383857 13.827639864665482 6.172283949342117
