49
Energy = -131.75520902 eV
Au 16.69988405123063 12.216584591003661 13.21126786223353
Au 16.01127826451175 12.18420260179416 10.511155434489135
Au 16.314230417315454 14.654283718053808 11.892913571556662
Au 15.90112294281314 9.535964352116316 13.309562140835713
Au 14.817563813684094 13.513598209152518 8.448283969469772
Au 15.272247110088907 9.525455742982395 10.60425770362369
Au 14.98195643695633 16.01157029125249 9.81987651365785
Au 15.170017873585861 14.228488556480993 14.392498615594143
Au 14.86536505433316 11.47280312975054 15.140625355708709
Au 14.058602624019302 7.658184227699364 12.209157251739343
Au 13.945232375721911 11.356443481135802 12.393722407091827
Au 14.144809704669905 10.855147373401977 8.491982096836072
Au 14.128821772153676 16.324082357503762 12.524935078997096
Au 13.5213801734639 8.931454696246394 14.621945862618867
Au 13.697396856895775 13.87682049293803 11.063787231418745
Au 13.29075625294692 8.254978073614701 9.229824184899423
Au 13.008507616817615 15.48740499493525 7.871810699875991
Au 11.942340826959352 6.413082593456034 10.913145835009697
Au 13.115742028723403 15.93435247612391 15.06531700483436
Au 13.092820903390125 13.373766306887047 16.23706718413554
Au 12.74825031832589 10.608293216338303 16.662655499111477
Au 12.513552629159067 13.508187852443383 13.548294522702045
Au 11.49298617094669 10.85526051113529 13.565993247471269
Au 12.295607387757963 16.558070634121908 10.34377318524265
Au 10.812747807016079 8.997831111557533 15.530407780080775
Au 10.926202442383676 13.968273345898574 11.396916396366835
Au 12.180143209725314 11.695809905256898 10.281013429419193
Au 11.644683140531082 9.207936474207468 11.366389094374512
Au 11.59151704164549 7.229585308813527 13.512268319204212
Au 10.514651130790956 14.828152836039914 8.705807578411155
Au 11.418238410697573 10.066104863918733 8.0329106318693
Au 10.562084425006622 12.08726798510794 15.93080964812616
Au 12.180551015895002 12.807570568730384 7.636049430640099
Au 10.655557478609735 7.487723339134761 8.69732350719989
Au 11.345347812096907 16.429475619026768 12.9791280942004
Au 8.239846984314429 13.297522558069646 15.115934623533521
Au 9.751743935720949 11.315079802456628 11.487810919096718
Au 9.32110569855903 7.380695316786585 11.157794967811773
Au 10.565092045035083 14.814042193425273 15.164976039894903
Au 9.643035276251988 12.157486112768433 8.66513146434052
Au 8.689704774894508 10.61030692274218 14.393871847283089
Au 9.581440938855314 16.47269652594162 10.804620741577057
Au 8.95632323278745 7.902386809806046 13.809928755787194
Au 7.486254247432563 12.436393462540234 12.63867555221464
Au 8.297744794895442 14.028705027497365 10.348843106708184
Au 8.778096015894885 14.99023449042938 13.020912031182133
Au 8.912329946364503 9.467438994963349 9.284146866744308
Au 7.6647618833996 9.485262314204382 11.935740582972421
Au 7.253824712103134 11.501039637487562 10.032238139187283
