49
Energy = -131.73682283 eV
Au 17.20889042241825 15.550434134846284 12.511349603487188
Au 16.60844723077079 14.505222425464364 15.124382645257844
Au 15.319644848774574 16.8153366354282 14.062569761331206
Au 16.06910449867261 13.990934313408836 10.59308526126797
Au 17.258940990750887 12.821533908856567 12.846289456895976
Au 17.198427158347695 11.831251833781632 15.41911753341435
Au 14.980632282081237 16.53375305270934 11.236169495252861
Au 14.198960726409181 15.350322875068652 16.297902595373014
Au 15.844890167958347 11.27308717695432 10.924256819556954
Au 13.193240359390884 17.789708117387015 15.482600488509801
Au 17.027684838102665 10.055052408256724 13.230797198865828
Au 14.225432722267572 14.270011897284304 13.64709377739025
Au 14.710084430925523 12.633655411449185 16.351521796472042
Au 15.765834167133317 7.815992073065439 14.253090030824481
Au 14.553517011409763 15.422110020967398 8.712133375353757
Au 12.915488450402613 17.470611302642904 12.769517320211557
Au 13.476462180710229 12.756538853482015 11.4035663351694
Au 14.654728182151965 11.447668099873137 13.658160115864293
Au 14.461773991043367 12.650357012640608 8.805143509828964
Au 15.253557899188555 9.918221487239878 15.970758426151749
Au 12.422774264275857 16.41392984650778 10.127523717750808
Au 10.702713654152692 16.96309287975868 14.54640784908138
Au 11.627558106698793 16.156973079155858 17.04123854252074
Au 12.039150470162651 13.491826544249205 16.63901216389365
Au 14.931606520251611 8.822972463621076 11.7662715299964
Au 12.032224920408808 14.200073158110147 8.484416612541454
Au 11.761112993376578 14.800429229356984 12.445848467788608
Au 12.570940514649456 10.8011751490693 16.08452427063064
Au 13.588017126181267 10.147679964587967 9.693343124080284
Au 12.191952326627144 11.513405216404855 7.718966577601281
Au 9.854705133662897 11.986095514257997 15.695056859615823
Au 12.435711186666811 10.208286632706795 12.370858393958047
Au 13.688129378029082 6.621816035855933 12.770259549698578
Au 10.36195448868514 17.178912019259133 11.785896394714126
Au 11.993280614896038 12.516183564216814 13.995692173261148
Au 9.935169618946595 14.910842531722954 10.219922210928273
Au 10.714168712698703 12.337694314432424 11.536110510572431
Au 9.575095846502668 14.754743271890097 15.890955354328314
Au 13.126383663157368 8.48560896212109 14.705481730411961
Au 12.225960467375522 7.880896858121886 10.863757432652513
Au 10.642266596254313 9.602915024153592 14.47116586807274
Au 8.887435286511948 15.406818285139869 13.211475004542732
Au 10.837433205003306 9.799075333049847 9.426913561166467
Au 7.761134003280129 13.247475964964034 14.436541911206957
Au 9.883127145209563 12.513382764933468 8.862611990908848
Au 9.866613435948034 8.904997020519714 11.91716313577903
Au 8.491179860209533 10.84505006258991 10.488116590219244
Au 8.09967064846055 13.296376056672784 11.671802103142172
Au 8.510034955900892 10.894158849732772 13.315329585733414
