47
Energy = -124.64425581 eV
Au 13.162334679124392 8.476952554347001 15.059343409286036
Au 14.822116685144492 9.170650030986618 12.85590069618702
Au 13.034028739891452 10.365390557579488 17.158595836535017
Au 10.829511739201884 8.868594943891903 16.534393895249003
Au 10.182840366203415 8.634654885312008 13.919744166146327
Au 12.351015315177131 7.809138611639131 12.461147635747862
Au 14.290724810225406 7.709216393686299 10.520355981461341
Au 14.764918004407741 10.957480265103866 15.089857769799696
Au 9.905939445770104 8.767913226478388 11.201462236486625
Au 10.640240497928751 11.65166474024673 16.368190227991498
Au 16.71838820119868 10.895162307371965 11.747286717418314
Au 11.67829192535963 7.210225388202404 9.828321767587074
Au 8.513748684757644 10.151286126550406 15.555532352459043
Au 12.242450486765183 10.572848091076665 13.592927149725693
Au 13.10499970815268 12.938357168271082 16.253672641917085
Au 15.641157502032529 9.809986623974199 9.45058408543694
Au 10.244114437715163 9.032355999457554 8.455789076423581
Au 13.142700405856386 10.4882586715896 10.584746669528293
Au 8.541523038711906 10.650951847565173 12.819507322098918
Au 13.194813843128177 8.874769655662737 8.188109899536085
Au 10.707284302804636 14.304917994705967 16.046795539555482
Au 14.33289477158561 12.114174015613253 12.57556406413702
Au 8.58200463634357 10.904020015448815 9.953965136685648
Au 15.174004343524176 13.755620080953252 14.664226070065181
Au 11.467624170420308 11.947568654342968 8.842007379305729
Au 16.56496232114824 13.729709910102924 12.194278102068251
Au 14.071965357663021 11.5107330164761 7.866379311905408
Au 15.618692708560616 12.621168231924344 9.849074018427523
Au 12.715122896799915 13.490930468281519 10.794785221339149
Au 8.590491378728808 12.7782114496098 14.619224880904113
Au 10.80597271172488 11.633654167536358 11.543883328381972
Au 8.992612137922144 11.135942792583922 7.25712173449688
Au 11.89111405116928 13.312653171643554 13.56463509539609
Au 11.75872220190673 10.538294765614568 6.509966068563476
Au 14.28790741970766 15.308902430784553 12.476336507538178
Au 13.021776706804465 15.523635741000737 14.975423363059184
Au 11.374800727913964 14.993494946818304 8.190765469807587
Au 10.537715996161957 16.892008701502508 15.087287965193912
Au 8.216985096470918 15.310954202522495 15.741647073405728
Au 14.000245448930912 14.237734071521105 8.417598098213956
Au 8.489154546107049 13.175162144403883 11.629491964209343
Au 10.223393191696784 15.237723542235063 10.703362261767563
Au 10.638874475741336 13.134371281966134 6.383265638243359
Au 9.357718741921135 15.149945014421714 13.283335387309025
Au 9.081785982784858 13.490609423929525 8.857906930715519
Au 11.783965354931002 16.49093175282569 12.659090841014859
Au 12.91640686300058 16.164449581038475 10.171458916061306
