49
Energy = -131.56308203 eV
Au 18.157965640357258 14.724556583270452 13.320294214706708
Au 16.67984151039964 13.530314531038146 15.281467674681252
Au 16.806257910745597 12.441318052448679 12.649337348279685
Au 16.44517374215416 14.826921208541664 11.15451385889483
Au 15.52851052281733 15.637903197216803 13.706387549218109
Au 15.89815876096602 10.878887095790787 14.740677229917425
Au 15.32596382565531 10.21390071118484 12.073857599215403
Au 14.990484554219432 12.26758816951677 17.02989927407598
Au 14.416268816379509 14.898929101426658 16.177270914048894
Au 14.126379311266396 8.757464374459241 14.168244108788711
Au 15.517661553692689 12.326138121735891 10.215811206306418
Au 14.155777850717131 13.068974515179137 13.876267465670715
Au 14.687139931763717 9.481857802423072 16.771242820772876
Au 13.792015952614738 15.771046986051863 11.532444474822421
Au 14.700326590935846 14.746823229564313 9.08995702586169
Au 12.673258538878944 13.611571275669549 17.86600117288302
Au 12.806449191296014 15.889117971132634 14.103865532819142
Au 14.355771514100875 9.964963356785816 9.500183481857523
Au 12.52479471664259 10.906775062460545 13.139412217037885
Au 12.829044297000989 10.94544489394384 18.166981591513668
Au 11.81001417091401 15.827998495264076 16.65974053206826
Au 13.345671007932744 8.336333005926905 11.557856391746974
Au 12.05494920633041 9.673876459963399 15.845264324909586
Au 13.144285917402934 12.349688623854467 8.557100260038018
Au 11.456167943791295 13.219967949465303 14.248711235427786
Au 12.963962093230958 14.690639550732058 6.965580802648982
Au 11.302386678439133 8.372092972242443 13.557794554261788
Au 12.305279108863711 8.275304347039611 8.9223054116576
Au 12.080694075771614 12.263279638383652 5.952086753918696
Au 11.699206128096774 10.666125814964662 10.346781528161321
Au 10.022389404813737 15.610118741629714 14.627298501423919
Au 10.21049562659117 12.480120288669383 11.768593703765712
Au 11.959999092910177 15.147552268719625 9.476976010118525
Au 10.699181008261736 11.980852893469596 16.759085655128427
Au 11.015149886346073 15.485466582961935 12.02735614118844
Au 10.970408653187258 10.492336862931584 7.645907519533084
Au 8.787190595677469 13.159741842442012 15.166158814778269
Au 12.897242511492818 13.065684065952533 11.33241455468545
Au 10.836687086117642 7.230990005671994 11.156938499081212
Au 10.45099135366757 13.384571377966079 7.819679327254555
Au 8.40350980403835 14.528232452580998 12.706030320247375
Au 9.55913964867877 8.711990300527729 9.2249795992341
Au 9.840617171461437 10.628169605147258 14.452835968334014
Au 9.411704091913167 9.662754571024593 11.851153255616083
Au 9.311467290685266 14.61142810405472 10.002804523442624
Au 7.803140939788185 11.717218092150876 12.939814004321953
Au 8.828917325776388 11.30609669325075 9.419242295194232
Au 7.06998832341768 13.090036754275912 10.716449563953539
Au 7.718840665528391 13.387870523407367 8.061286927337424
