40
Energy = -105.6777673 eV
Au 14.507414817511469 16.683690338346715 11.22698399527956
Au 12.212935850086264 18.189114608521933 11.527436810370027
Au 12.931941673299013 15.931972687842439 9.111169974455878
Au 15.645396675684722 14.660579503134052 12.656458709641676
Au 15.033972481831292 14.193776451231557 9.983101683649885
Au 10.483691958071304 16.644616429873185 10.120614866687625
Au 13.272124312974386 16.8436555332046 13.687295758302906
Au 12.561548576092504 14.710837337185966 11.799680091024983
Au 13.414857214011795 13.518098081347983 7.813713002229337
Au 10.531588842184524 16.413391421303107 12.93333366340837
Au 16.06616091310786 12.552515351923905 14.422344900359228
Au 14.99467511622641 11.577697980984821 9.009738952684707
Au 15.84307161954712 12.05187395821257 11.656905499732508
Au 10.954414816825432 14.000868236772092 9.118065449195079
Au 14.49770331531398 14.860333194193887 15.129014932233684
Au 9.238015049805394 14.498020094686916 11.259141784000093
Au 11.682354271854361 15.194737234733566 15.204334317390817
Au 13.44534757004408 9.296079516520448 8.412867258020857
Au 12.923630714190683 12.144709812211678 10.780029980997664
Au 13.425343572100582 12.646742575799617 13.636925953251088
Au 10.909936116420125 12.58706724723924 12.617330149089982
Au 12.966534164219206 13.142702421029096 16.571582770943376
Au 11.709893636553192 11.429261531492628 8.333644915352549
Au 10.253881017027144 13.10973540543667 16.35943514084715
Au 9.231424665422443 14.26397383119799 14.086770493346895
Au 14.681411484449919 9.56720129919502 10.84365428559447
Au 9.631262759495513 11.795191873601057 10.12522009503331
Au 15.217416350899445 10.015339507223521 13.521572411662206
Au 14.514889396262182 10.953733063345199 16.035762970637677
Au 8.095611402719992 12.262842944649925 12.40874043577166
Au 12.358409694164774 10.187540291451445 12.732465944181826
Au 11.721581751913739 10.731112867558044 16.077795300064764
Au 9.3854651997452 11.20241868041499 14.619852457971296
Au 11.260872119670156 9.372573372589944 10.093857022744766
Au 9.449785276942006 9.837954186282278 12.149064175644812
Au 13.704124054130972 7.780347797887954 12.616700985463806
Au 13.34140623543685 8.595913309904967 15.280873889508525
Au 10.567724515916497 8.70769672275552 14.543412579042654
Au 10.951306211380844 7.492651344765237 12.036730019853628
Au 12.045212695559407 6.352893175514665 14.300301069306357
