48
Energy = -128.66502152 eV
Au 11.94724553566253 7.525039372066476 11.038189300438058
Au 14.496806726461905 8.823425447422393 10.967645035667296
Au 15.856343495758459 8.814707932683149 8.616274162298309
Au 10.35997644293985 8.264775059795854 8.842696802002212
Au 9.798535808559954 10.2337621294838 6.8256428659355715
Au 13.105217166116066 8.332931702766762 8.597868598699455
Au 8.802607896887372 8.508202951585028 11.183825448224294
Au 8.576243814025014 10.476483940374054 9.221151399065311
Au 14.309428363672822 11.04076791393293 8.726750773400028
Au 16.496919487465103 10.896215726454185 10.45892018444158
Au 10.525940472698581 7.741775961457684 13.374345462458665
Au 13.215029428313978 8.81498694797769 13.324378487969849
Au 12.684008979465945 13.340979410845843 8.535264898627068
Au 11.055478801855582 10.00589864849281 11.672503432191096
Au 10.072155041202874 12.850525825574326 7.66338651484176
Au 12.97565520827384 11.881596258379858 11.05248572476975
Au 11.563489468179988 10.779934230168818 8.852571716539988
Au 11.57907476396605 9.535406314397122 15.395692177593713
Au 15.647354240219965 10.273919928743426 13.001892332711078
Au 16.90733476687911 13.006621021525714 12.152186267080351
Au 8.654035015509473 9.880262108168557 13.70334785396131
Au 15.07461592446317 13.393714226668036 10.03766602868471
Au 7.786010408087475 11.350798819136784 11.653876623764534
Au 9.241411787852943 8.181946188405849 15.768959065209085
Au 16.476285591863647 12.12838804915599 14.833291673311592
Au 14.024733536529705 10.773181083253474 15.19000618158558
Au 14.343561191107144 12.993729620934992 13.23211345841472
Au 10.283143347130109 12.554547673755653 11.386748128463775
Au 9.327290371588647 10.997142994708057 16.13688269005383
Au 13.188144943894748 15.593628319705138 9.980853224199072
Au 8.171632253907234 13.221807902448516 9.647198118677762
Au 10.536181236925676 14.846244418140925 9.535120667871919
Au 11.778454119683518 11.844611643237597 13.695545763893008
Au 8.768479242638103 12.728145746433219 13.880598666629451
Au 8.80191770159637 14.80781500061645 11.873682141931061
Au 16.31920611087149 14.830136391653781 14.366371996439167
Au 11.940936143268384 12.161885104853251 16.468232597598657
Au 12.19529284717868 14.370241365416428 12.482408719224127
Au 14.390158665196715 13.429787358668039 16.164796458093708
Au 10.93101206838613 16.644775231164857 11.714382679174983
Au 9.619044506765016 13.684977591890682 16.36054559125568
Au 15.333042064708911 15.459939988845996 11.800983276296451
Au 10.10811631372878 15.324588568853434 14.230945809901103
Au 13.520439735962654 17.62840210147377 11.736831993059178
Au 12.02603508074953 14.974223813293468 16.251407764098825
Au 14.460368591266272 16.12417380884347 15.991853478706643
Au 12.453413720893039 16.793655477316058 14.161074822386494
Au 15.292351709253634 17.405559244341806 13.761524009699816
