41
Energy = -108.27792618 eV
Au 12.039096811157844 10.310632016102629 16.362027167650908
Au 11.824387610178784 14.965374191625559 15.770921651745155
Au 12.72428369872944 17.26322880931677 14.556059534328641
Au 13.324554484437481 12.574694595258503 15.388968949399889
Au 10.852651200930985 12.725096029329748 16.83645240477148
Au 14.055329857651003 14.836931280442322 13.96335072115471
Au 15.206513556221442 12.448018291931753 13.279405641692703
Au 13.911654253705159 10.025054417939657 14.405058631352732
Au 15.550293751420858 9.871441294918977 12.223930926293
Au 11.335626093531618 8.78759506268723 14.197257359792493
Au 10.46134371785824 16.048155034888307 13.609309560514406
Au 10.572636308271761 11.323930588994356 12.668603402974812
Au 9.559768921605338 13.552490129631412 14.54384099159172
Au 9.5474681870401 10.836907519148003 15.208957772232791
Au 14.291760804171156 14.062677574673335 11.082387541694713
Au 11.764998337952745 13.814691805469057 12.557990426266478
Au 12.916687697459187 16.36244005173565 11.934881493544793
Au 15.321406744360004 11.645939290674484 10.122052677799697
Au 13.1638800404037 11.368811970830402 11.884250819356401
Au 13.247632602234932 8.255512209346293 12.25332420102791
Au 14.876715572232849 8.582829535749495 9.96443812682578
Au 11.463516201926424 9.79916665017558 10.45352111867855
Au 13.521806410176257 13.100698828992705 8.555606902596018
Au 10.589171589132356 7.472746726307327 11.892963242287324
Au 12.332096901944725 7.218590545255449 9.732982270649256
Au 14.062015613437989 10.384046167485284 8.000697856649012
Au 8.731983562660698 9.256481215904339 13.127645547411902
Au 12.04943764852213 15.195721846803664 9.661843499927803
Au 11.225380067645855 12.48965868828602 10.159357955696569
Au 7.88199840280414 7.464884073490868 11.215478150811395
Au 7.9231820520472755 11.97179650949416 12.742115351656565
Au 13.990898976078892 7.6024964698168 7.566237454352601
Au 11.884733133082971 11.64232628122028 6.890740578831576
Au 9.61203908931792 8.133547590849169 9.241948824711418
Au 8.8400884085661 14.509962608379436 12.079381458001691
Au 11.632689015813687 9.016709697340486 7.6102734686487
Au 8.057171330419736 10.202229378427491 10.550049618699717
Au 10.42353742707766 13.70073080192208 7.8604300113936505
Au 9.597956042902785 10.887859594516375 8.323145010732164
Au 8.359052996616422 12.839851079664335 9.918455905716902
Au 9.302790922228532 15.478279588931082 9.633891814491863
