45
Energy = -119.16048505 eV
Au 13.527287747701749 12.843844968455972 8.236571041104316
Au 14.241192730929662 10.15319164637675 8.057171479304731
Au 11.001468931057902 13.361764276803402 7.288824725783756
Au 11.571704378732639 10.753388703066411 7.936516804105785
Au 15.258503643948616 11.618909327942315 10.147019771808749
Au 15.431009777320421 8.74838291717759 10.021188980891907
Au 12.5831242885866 8.604711028162733 9.544892318539304
Au 16.442599448409542 7.450797765161455 12.281367890702736
Au 14.566978126385667 14.335161942670622 10.409338178760198
Au 16.373138641434895 10.185635861725546 12.266169753120584
Au 12.56192936099693 12.319754543582553 10.792152150505116
Au 15.324461626964363 12.760547434481792 12.696003375568045
Au 9.139431986169116 14.742721502095067 8.698635700637825
Au 13.68349080941714 7.443602877369309 11.923027689066625
Au 10.826014253865376 10.594051947758429 12.037782030232014
Au 9.914889648202465 9.397402608152186 9.656159888947792
Au 9.233234958657697 11.958751324769237 8.942371876815628
Au 14.33507926412218 16.798287422288375 11.678219685077394
Au 11.804722761853942 14.878419335198782 9.545993715929795
Au 13.569614485749513 10.256269836054802 12.331225252554129
Au 10.96728905056024 7.757855553617098 11.612802021963814
Au 14.914307560786735 8.516891461144821 14.266123864369709
Au 11.391136575777628 17.019664551018625 11.35693962158843
Au 8.13351489913654 10.775936986863984 11.249143671294368
Au 10.165918411225807 13.288694560147597 11.816687244468886
Au 12.289395252528507 12.319933441095928 13.758630810345942
Au 7.509240194399421 13.513803563841925 10.530463833753117
Au 12.027210611548625 8.436534603549994 14.089761084759644
Au 14.886547902927001 15.255522883729032 13.945656079479537
Au 10.476171736319328 10.525957347930802 15.24798650644742
Au 16.95403465283864 13.552544147544808 14.809070152317148
Au 12.596958867938477 14.68293771829035 12.375760896036688
Au 8.964180786043611 15.804750977146318 11.186503694488957
Au 6.077127029721689 12.161126641364127 12.436539944243966
Au 16.148109734006347 10.901890874424696 14.931904166270542
Au 9.202711531327184 8.852005514247868 13.4207809413145
Au 12.614923246545306 17.11940864212115 13.88318574030909
Au 14.405778681466252 13.01369633555357 15.595401215539528
Au 13.418169914527507 10.331924675173687 15.585637802512714
Au 8.123738416213268 11.335698492942447 14.053653220789956
Au 11.91159731677041 12.37883523650694 16.659591202663705
Au 7.896594138951599 14.131260223262322 13.285003191075628
Au 9.786359554509653 13.303470952609354 15.12862631383096
Au 10.1562280632586 15.702586562713797 13.688189672962308
Au 12.271048909005096 14.788263220083385 15.29429821329185
