47
Energy = -124.81433189 eV
Au 7.1752117417176144 12.552323542204157 12.636803685467846
Au 8.738532785999647 10.465645660239195 13.46448860472141
Au 8.697346978784413 12.801648010600763 14.970248684575202
Au 8.362938904094902 11.046854940533136 10.695153422432714
Au 10.780339001390857 13.072152017747522 17.020646800714463
Au 8.551691731341931 14.888677170036381 13.093357612232298
Au 10.228564804888217 10.64152007909879 15.812763683936907
Au 8.344628546383625 13.877266211888951 10.453244999299534
Au 9.563316541869863 8.68528477057495 11.511198489354877
Au 11.36699692960649 11.213236057883213 12.288230294455081
Au 9.800388310959931 15.273115561465744 15.471771858481377
Au 12.323096808266984 8.580155685417289 16.261676312386115
Au 9.336458467044055 12.258448499249518 8.470142738041261
Au 12.26575775905227 10.856391695232436 17.770310111459015
Au 10.800835554172222 10.162210791285476 9.570533768240018
Au 9.677104622332719 16.291504310622063 10.984771765861895
Au 12.239733591648935 15.498546321754041 16.635634954610587
Au 10.933294260939062 8.743880576170938 13.900055077561678
Au 12.328974809767523 8.59395821818219 11.438523883717465
Au 10.844818831976108 13.921790326043025 11.686656163424887
Au 10.920298579115943 14.740640601143332 8.912836083938686
Au 11.57616226181815 13.284248081230892 14.30262540714543
Au 10.266212380031225 13.65099999569433 6.3880476498128065
Au 13.67278929946336 8.13688405462884 13.87073570590471
Au 12.884134690330876 10.902453288770028 14.615711655052724
Au 11.979107637112502 11.58230842341454 7.535148220575446
Au 12.60109118371571 12.588871126824788 10.093278738646026
Au 12.376042416264626 16.587572109997947 11.032813504285507
Au 13.580008837758484 10.054629788519808 9.354525391492714
Au 14.744477047249788 10.246247112251387 16.507114714388628
Au 13.492537555145962 14.221916910514055 12.30135656044336
Au 14.17962394968251 11.5121440613247 12.21958174955932
Au 11.81100831968483 16.07536935808456 13.717619381724898
Au 13.613138839720552 12.999564491895347 16.774960251388986
Au 12.897056069448507 14.075701569111082 6.8441963079639985
Au 15.00514644445855 8.824738774718204 11.504222474879064
Au 14.290144169286819 14.939512168290216 14.961354918932068
Au 15.995041473491293 9.686259857015092 14.085749212807565
Au 15.489849704276644 12.399032296770567 14.827417713672787
Au 13.75360088991964 15.199317059221075 9.114206937954416
Au 14.718930410888538 12.485064250139123 8.15339062475429
Au 15.171216392422178 16.281778892054994 11.190360013060904
Au 15.763590600236729 13.620499238581221 10.439396867168492
Au 16.18187177146745 10.905891778097612 9.91073195225193
Au 16.15352231871793 14.46113094522654 13.057471895992622
Au 17.63885200831056 9.353139882432837 11.774731678356714
Au 16.938531942454045 11.884136947153664 12.473420577299493
