41
Energy = -106.82112014 eV
Au 9.460472498135283 12.7349236125969 8.591654418929146
Au 11.28515586202969 15.841181083125878 10.271388849327382
Au 10.387865990860584 13.48896846513673 11.286890331173481
Au 12.153341723209106 15.049218789062898 13.064171747240286
Au 9.517451002702293 15.834719740999024 12.571294601938913
Au 13.10284641634625 12.650878707291689 11.619317500366048
Au 14.761438013601369 14.0109725572925 13.348552735173376
Au 8.58975090092057 15.139418443319464 9.956920147289857
Au 11.40305524821907 11.274165345175911 9.965608061766476
Au 12.379343491229088 13.677145425675235 8.785904162191303
Au 13.900193724222047 15.180126804435432 10.820314846982827
Au 12.674029462598293 12.67017278806852 14.680773033892395
Au 13.108158072958227 9.86692487357629 11.610706856671346
Au 15.178461572928969 13.792154981414456 8.76352637234525
Au 14.177931018349554 11.245663027018576 8.916130016390605
Au 15.818076557125037 12.468364405883413 11.106185660601348
Au 15.818338199068034 9.71444384726216 11.0956543463804
Au 14.88178448535671 11.20902352463581 13.49075007693714
Au 15.117164853826326 8.682641963509878 8.612548229103242
Au 11.773466199829143 11.319782502590847 7.299874673322097
Au 13.977576211337896 7.361905259790115 10.803994809790614
Au 12.682379838984984 9.746743754247015 14.699041815352205
Au 14.740885031055758 8.414165572546738 13.365606413495252
Au 10.446053795817033 11.205413198585974 15.602399655973478
Au 9.948282957188805 13.55677456221698 14.17154923555065
Au 10.931549914946874 11.197209340491604 12.834421431207225
Au 6.717325332053513 12.581707871946943 9.660331578441811
Au 7.634601404598922 13.57893028712434 12.395837856999188
Au 8.246357811231762 11.208265026222431 13.808460241036888
Au 7.7730826855391255 8.918176060695982 12.20349494302728
Au 8.670019764077491 11.276742775215506 11.04817514423845
Au 9.501110912645162 6.665785155485838 12.376273982193188
Au 9.655088226765338 9.726786073850569 8.358151502957913
Au 8.53305365378027 7.545998038619386 9.764919485246478
Au 6.001509594394115 14.971701403446962 10.680203935138676
Au 7.031931560000299 9.879354402872558 9.408056835319854
Au 10.460331094615908 8.978380383612947 11.139133492186701
Au 9.972854528158772 8.836425505340994 14.148293985915418
Au 12.150508355248997 7.407353810028014 12.997307786076684
Au 12.361176390373796 8.831551850925452 8.721597668603104
Au 11.375596143669904 6.5688880699887955 10.254182035915813
