52
Energy = -139.06107201 eV
Au 18.57141708665848 12.275625127816397 14.397494464815626
Au 16.3047270913487 13.893126985300565 14.565427965809903
Au 16.30860455925466 11.178847259083012 15.489707355476975
Au 17.24386418408084 12.942006886900195 12.072947927267021
Au 17.375250936313247 10.178417729926975 13.022820929376552
Au 14.064460722171647 15.42767886599845 14.63138841173682
Au 14.125448683568239 10.051124157031238 16.504665042687826
Au 14.058369935971925 12.818388463501407 15.746606761590217
Au 15.86864469749812 15.369061985103436 12.22953609467601
Au 14.910219610900453 11.529742274590918 12.952029134786024
Au 15.235320851303985 8.821825277563631 14.207796714280786
Au 11.661645726074847 16.727707944033966 14.57581877275336
Au 11.547593633815659 14.069583456427113 15.228098176812242
Au 15.465406041581069 13.317119351233424 10.096820566021425
Au 11.831011464116344 9.01017447051322 17.577188178171134
Au 11.706440414842154 11.517094925193268 16.538174531676958
Au 13.617004580141689 16.982335410960548 12.331947722948248
Au 15.482610531578086 9.123294749100827 11.40492507235116
Au 12.745832517817613 8.034369599522751 15.174907719484304
Au 13.487209386369342 13.865097019170813 12.313052831960983
Au 12.29031007170696 11.688442055117042 13.766782954059817
Au 14.98701176034972 10.731753771935962 9.13636613162888
Au 14.474479064292229 15.87772160081681 9.879642614026745
Au 13.444116302947094 7.555607158846364 12.57236605436232
Au 11.272098718256482 18.387593359316128 12.267056270854942
Au 13.050295915132383 11.506674227494646 10.872519104016503
Au 13.719611715696665 12.949539843163503 8.003505728049943
Au 10.720714849560395 7.384952781772815 13.438412831473727
Au 12.01089473542403 14.082000254923194 9.917405429448076
Au 13.235656541279027 8.765171216240384 9.938725129611655
Au 11.109551617718548 15.31986826383251 12.215905964899175
Au 10.107755716659085 9.214362301263987 15.462929352840773
Au 11.995234530827348 17.160161256031937 9.908974351701415
Au 11.61515193472319 6.674902040872697 10.742188558950744
Au 9.09599005353968 17.058181338403916 13.465653177431921
Au 11.287316142013243 9.724836020644618 12.065263338166103
Au 10.525349559465386 12.553762076918307 11.711640159407748
Au 9.681120285853016 11.919385491782926 14.750847955010647
Au 12.771789930172647 15.644428065194898 7.744664554140654
Au 8.624560107101985 9.488069474574193 13.1469866872502
Au 9.277127698471503 17.13321142395956 10.714480447215296
Au 9.02673335937221 14.411462563509595 13.903025736399526
Au 11.071511070801654 13.556009368206647 7.154403212472502
Au 9.851568556494824 15.506122472302398 8.679920887749192
Au 11.412933760567787 11.206684582898179 8.558998616930223
Au 9.1241655232876 7.743030641660158 11.168793801375626
Au 8.381047474751284 14.550066968791592 11.14173660513983
Au 9.169641937966851 12.836767080690473 9.113745415702763
Au 10.624553736184808 8.716484667915577 9.071614772932158
Au 7.357338952503916 10.655743621201163 15.15335659841375
Au 7.912599194850148 12.160681725271374 12.544767783791812
Au 8.927994146967702 10.4870883584971 10.447155641861878
