50
Energy = -134.26482845 eV
Au 13.892961074385235 8.157145617480708 13.990431530639505
Au 11.784941960534429 7.329341462200577 12.426926221479535
Au 13.145336975260607 9.350605334198088 16.372097236560535
Au 14.01235406918403 8.367740869562306 11.179950738829982
Au 9.489859307688125 8.879138394868813 12.071617243057124
Au 11.127056827912321 8.853870220854738 14.605091946639229
Au 15.860556870933138 11.61434653829158 17.30667598162743
Au 15.755640576627657 9.586498797814505 15.447275255337818
Au 11.447074417315603 8.610347390116011 9.973691123688463
Au 16.011835876247055 9.536439035006017 12.723504724466723
Au 10.906402906759087 11.104921559581701 16.212469230836895
Au 13.032844674604744 11.603509579988387 17.894549431852266
Au 11.882962266873461 10.343316172037046 12.294193315369126
Au 15.631243256227554 10.285786132863734 10.12070427478944
Au 13.663316696266131 9.350935289302964 8.411278123499693
Au 11.098035137776503 10.26120430725984 7.731168503105558
Au 8.950398796712614 9.775072715444411 9.505004082776475
Au 9.781591121335042 12.57700369751395 12.20484595261389
Au 7.62233598599929 10.845174504028872 11.616533343300844
Au 12.913772021792434 11.487415733921683 9.986147430946033
Au 14.115487715075883 11.98364516163967 15.263568504453783
Au 9.038264756012245 10.644703886955702 14.206224130024426
Au 16.76522375409792 11.857483992445488 14.084787634830539
Au 14.332749509145593 14.013360215578112 17.674287176944972
Au 16.359349591300443 13.963494434815894 15.802727569075202
Au 7.220076114483078 12.826836991566756 13.53829416211764
Au 14.227775324080659 11.822705575721907 12.484999549101103
Au 15.791067833407343 14.45849718259415 13.204873063078887
Au 16.651812113158872 12.505679783137301 11.359710360318049
Au 10.271367755714664 12.35530487053875 9.593849047306188
Au 11.858245464771286 13.776799652851263 16.46050163681672
Au 15.304396571113138 12.648157146573613 8.78183125244204
Au 13.223502109109083 11.852202693449435 7.109324317387254
Au 8.665473886187046 11.54643790053316 7.414254683809637
Au 9.512379085687053 13.311946166703205 15.04289797081984
Au 11.99617193259694 12.672200011971144 13.786549662374373
Au 13.91614891040676 15.243510016796211 15.214183248527972
Au 7.346414341538646 13.488958821959793 10.863360698117548
Au 12.067084597791084 13.856946376906532 11.10420200235491
Au 11.252103077731226 15.440278178571448 14.261393952656746
Au 14.900987328109714 14.622792924151339 10.631579017754866
Au 8.37283738533612 14.085589501163486 8.387609008586585
Au 13.154800813249201 14.350523055980322 8.276427504910345
Au 8.693291626101775 15.16039010644271 13.004630010685249
Au 13.465902107103958 15.938081331931715 12.632565754320401
Au 10.854064605858913 13.363753947946176 7.045429592508441
Au 8.360007953752165 16.001289222353858 10.374637939810963
Au 10.777720001223104 16.32539859999659 11.655328418441496
Au 10.650694210435889 15.565127968928206 8.805254632578642
Au 12.94054079267698 16.49455301515167 9.95702389411881
