51
Energy = -136.35849209 eV
Au 12.012631997994182 11.457760745818064 19.398910188104484
Au 10.762590872328667 13.355499917060465 17.87734687060902
Au 9.676371426470624 15.235327258309974 16.314133409625676
Au 13.603763980387209 13.145843538516912 17.881971050474014
Au 8.523273823332199 17.284242865048864 14.958580530393483
Au 12.431448875989801 15.336243375620317 16.7005018767893
Au 11.2633768893867 17.3600269563538 15.144787941331694
Au 15.264803665466061 14.872882640987516 16.591516561817414
Au 11.248832510503766 10.769327847215383 16.864096409386068
Au 13.963392857678695 10.407438823598737 17.701432737180134
Au 13.96383939702103 17.33322964072588 15.43112081387856
Au 9.431386004533037 12.444432436606858 15.570564437539156
Au 8.577468466013508 14.673030809478835 13.788873094026119
Au 13.289386129423413 12.27911933055668 15.163852921340585
Au 15.968362103454542 12.137008475530207 16.70173214921733
Au 9.965852717600054 17.031643444981285 12.700622296135409
Au 11.267982510471263 13.909166205044029 13.993212665780641
Au 17.501173240336723 13.858969716242864 15.154391037887544
Au 15.790837218768411 9.445680228847108 15.937396427663215
Au 13.795444658425389 14.85193179851688 14.184045347922218
Au 10.593077630438248 10.113012541062584 14.355917479521924
Au 12.84625445687014 17.142142848528792 12.76275173295014
Au 13.009280732868158 9.157358795575554 15.39832448334342
Au 9.346009968641454 12.148201367043338 12.781533034919779
Au 16.279911454417626 16.24516946645398 14.428827927350584
Au 12.271326472185189 11.63629387754078 12.575039069592126
Au 13.900868998019083 17.63810012768477 10.226423273941958
Au 17.820855045662526 14.876517822443516 12.55241226138474
Au 12.872144154417905 14.323041284784452 11.616454318811892
Au 17.293336237402237 11.241775124517075 14.340384716578397
Au 11.23750097798642 16.790920835342728 10.379937560122949
Au 9.948471355576121 14.503929794678504 11.375333463977634
Au 15.022760667740771 7.853608907240318 13.857428848335251
Au 15.647597685546025 13.135453844768497 12.957582182866688
Au 14.697249617271517 10.579335099069008 13.416327237762582
Au 10.174626233545718 9.664566564440483 11.697483803801829
Au 12.518078166680324 8.61518257880228 12.717093780932805
Au 15.305338901262315 15.899180569458515 11.827232935560964
Au 14.291265151357095 12.022853783717073 10.70943637747365
Au 14.576019302503713 15.098998112613128 9.248361881404623
Au 11.43600307797089 14.317676530050017 9.045125741759998
Au 12.598760636375264 16.614706896653168 8.003378691618318
Au 12.56301872109321 9.790845441163247 10.17417773826916
Au 16.84928373274927 10.853307911817618 11.610554802182946
Au 10.66565766893932 11.986948072941477 10.26014666354277
Au 14.936257288158451 8.676143963130341 11.238752964195848
Au 16.634621752229766 13.622481061264628 10.36556898027182
Au 15.265788558785257 12.638948067292954 8.086443030761352
Au 15.781140587671953 10.190852915634705 9.150215441236288
Au 12.586670156364644 11.799620780112061 8.313388666818673
Au 13.211275189501865 14.11356212534326 6.946076504571348
