55
Energy = -148.1097318 eV
Au 12.018254724829209 12.02717578 12.02717578
Au 12.024578636050357 12.02717578 14.943150218840465
Au 12.030715383935835 12.02717578 17.72457078440257
Au 14.019895485298628 10.606630028663583 13.436797973166613
Au 14.075011275804526 10.58960381642135 16.463527118723768
Au 7.233129035600034 12.02717578 14.81505868885835
Au 16.089867127539723 12.02717578 14.91139584506579
Au 7.1009221544107985 12.02717578 12.02717578
Au 16.26592445857612 12.02717578 12.02717578
Au 12.024578636050357 12.02717578 9.11120134115953
Au 12.030715383935835 12.02717578 6.32978077559743
Au 14.019895485298628 13.44772153133659 13.436797973166613
Au 11.256404060410663 14.353073218678691 13.442686520714336
Au 9.56975604024869 12.02717578 13.43705809597743
Au 11.256404060410663 9.701278341321311 13.442686520714336
Au 14.019895485298628 13.44772153133659 10.617553586833392
Au 14.019895485298628 10.606630028663583 10.617553586833392
Au 11.256404060410663 9.701278341321311 10.611665039285667
Au 9.56975604024869 12.02717578 10.617293464022564
Au 11.256404060410663 14.353073218678691 10.611665039285667
Au 14.075011275804526 13.464747743578643 16.463527118723768
Au 11.248621002460192 14.396114452975542 16.474429480398392
Au 9.531712734387803 12.02717578 16.45589056987816
Au 11.248621002460192 9.658237107024462 16.474429480398392
Au 14.075011275804526 13.464747743578643 7.590824441276233
Au 14.075011275804526 10.58960381642135 7.590824441276233
Au 11.248621002460192 9.658237107024462 7.57992207960161
Au 9.531712734387803 12.02717578 7.598460990121836
Au 11.248621002460192 14.396114452975542 7.57992207960161
Au 10.54662184647613 7.476000016723044 14.811061563908845
Au 15.905179983747015 9.2259217563921 14.807816755381783
Au 15.905179983747015 14.828429803607902 14.807816755381783
Au 10.54662184647613 16.578351543276952 14.811061563908845
Au 7.233129035600034 12.02717578 9.239292871141654
Au 10.54662184647613 16.578351543276952 9.243289996091148
Au 15.905179983747015 14.828429803607902 9.246534804618214
Au 15.905179983747015 9.2259217563921 9.246534804618214
Au 10.54662184647613 7.476000016723044 9.243289996091148
Au 13.255432798113521 15.787309231982348 14.95368757563964
Au 8.786136087445028 14.391275573795845 14.936636740743646
Au 8.786136087445028 9.66307598620415 14.936636740743646
Au 13.255432798113521 8.267042328017652 14.95368757563964
Au 16.089867127539723 12.02717578 9.142955714934216
Au 13.255432798113521 8.267042328017652 9.100663984360361
Au 8.786136087445028 9.66307598620415 9.117714819256355
Au 8.786136087445028 14.391275573795845 9.117714819256355
Au 13.255432798113521 15.787309231982348 9.100663984360361
Au 10.49713318847534 7.347264023051914 12.02717578
Au 15.98059697315641 9.099967512733372 12.02717578
Au 15.98059697315641 14.954384047266636 12.02717578
Au 10.49713318847534 16.707087536948094 12.02717578
Au 13.277975838206709 15.976523467274038 12.02717578
Au 8.632713245334005 14.50352812588624 12.02717578
Au 8.632713245334005 9.550823434113758 12.02717578
Au 13.277975838206709 8.077828092725968 12.02717578
