55
Energy = -148.85410261 eV
Au 7.229650505966761 10.577371903956946 9.438969473282846
Au 16.34508077640523 12.627144734077786 11.105911939683667
Au 13.792953745603008 8.395039092452546 13.553821707741042
Au 9.65565446582222 6.686649415394212 10.672579322135629
Au 14.210004803913817 12.57184749778932 13.093933063080776
Au 10.002104230725385 9.545536189281105 15.701768883890729
Au 11.966159504028273 11.48830133030574 8.850846594333566
Au 10.985499697326087 13.954715832443403 15.539710208290835
Au 14.002180871051804 8.346249231073932 10.702292031791085
Au 9.659586898485436 11.393315007848884 10.764456693324236
Au 9.185678074129916 10.691782308628614 7.45816286178376
Au 10.49723298088758 9.337564603964681 12.74343715277875
Au 6.780203549389547 11.910922996405244 14.70116595420219
Au 6.975540710911735 11.276719461562502 12.043700171626616
Au 7.707516142540944 9.356353410666566 14.096528147848659
Au 11.83577959886902 16.273699332279474 8.785372979780888
Au 9.291944142316506 15.435922920421431 8.0556947081658
Au 15.613961585186427 13.313369079674288 8.569621999287332
Au 9.758600162881082 16.207797208294593 10.732266887047183
Au 12.02344450816424 6.878556827048657 12.038443017053481
Au 13.521618568994956 13.270999356787819 10.448618385722298
Au 11.425334828294652 7.364330680390057 14.67855005577314
Au 9.038184346314177 7.061502540224045 13.335325526301807
Au 11.473189333112282 13.202100235360474 12.42537154060495
Au 15.56088800472638 10.04849680837977 12.206390653362678
Au 15.205207496976866 10.60245212349323 9.499757482982218
Au 8.375566271740848 14.192681920959004 14.46312511800011
Au 12.083781780336281 11.151221537349306 14.29233790058254
Au 12.64592443609254 10.78044192363642 11.530481777037483
Au 12.816890229643894 9.20181845363793 16.16348234997799
Au 8.99960587440134 12.12575202802895 16.351583032621125
Au 9.364292170859638 11.722673135176846 13.580386761437365
Au 16.89076603247685 11.944415302766568 13.723007132537735
Au 15.100701103554323 15.15569639567301 12.0410253434107
Au 14.437202831778809 15.709880396554135 9.433782263414676
Au 13.632715438980206 13.033495592623003 15.931328405060457
Au 13.046518621284195 15.170914586403105 14.080258324597807
Au 12.499615895866519 16.153377393211 11.51326447405971
Au 10.41886119099309 13.168008494458643 6.873241625704795
Au 10.99911479247607 9.127176458235628 10.001997643913183
Au 10.400463828934988 15.63929370931413 13.333168716850928
Au 10.845431471422417 8.423117351717988 7.230127137444187
Au 7.733593335142676 8.628200962352507 11.366434667216245
Au 14.911299469877418 10.5241348541387 15.026127650329446
Au 13.410110759479702 9.057927114511308 8.019904714127303
Au 13.008346227954817 14.005760295112223 7.592081301161581
Au 11.588164644059146 11.563410125145387 17.017962075845297
Au 11.696718971110434 10.817913252937347 6.165653265450805
Au 10.795568474835676 13.811052662767853 9.758811204091236
Au 15.684681035587978 14.36909672458186 14.633076917343795
Au 14.21556989070974 11.528261922255714 7.028974018865408
Au 8.511098094740165 13.86559038358805 11.676963902280336
Au 8.530007241028148 8.24314025691589 8.699949480047454
Au 12.118919101557992 6.779322870747374 9.189289635866915
Au 8.217600665681518 13.009813182626258 8.761805134477592
