53
Energy = -143.52181028 eV
Au 13.767072207914547 9.929060058747863 7.330833806725755
Au 12.725155731221317 14.539452726893263 7.425659157824211
Au 14.610541166706133 12.550316736196889 8.068892195961979
Au 11.944186499374648 11.943386884990458 7.015904649987611
Au 11.106563812388192 9.612582211853084 8.229723436137622
Au 10.386987751028377 13.467211673423998 8.638022609974067
Au 15.392603859516443 10.244249482844538 9.502039940106172
Au 13.321725663841363 8.208912785840344 9.404554647394301
Au 15.93671619108083 12.802798966950286 10.546623871824307
Au 12.643126392503094 11.568755366550628 9.769880283618757
Au 14.56944544229886 15.033819055797887 9.406883483970129
Au 11.613187602615074 15.788451575673212 9.573958835979104
Au 8.577524505437381 9.450962155788098 9.308623170901404
Au 8.353060983884413 12.205700534594591 9.960662848806958
Au 12.888534715683969 7.138018226911978 11.93639727268465
Au 10.41535833981174 10.649823589481176 10.944677538535558
Au 15.362803778755673 8.147689471554925 11.264748372624036
Au 16.8245433430767 10.38055730712949 11.921269286861653
Au 9.279478879263015 14.685999476758019 10.829023762337219
Au 17.046682313099122 12.87008363209402 13.06345233307136
Au 10.735398283261123 7.683655666989331 10.163036199802933
Au 13.556502749862867 16.756177567822565 11.277886273402032
Au 14.108789569560582 11.030964463590271 12.025148018728522
Au 13.269498623658613 13.76146031969399 11.488012070466368
Au 15.735760881742785 15.14701931026682 12.074291282435205
Au 10.443898655484233 17.004949090597194 11.696775855211474
Au 10.381684239214547 6.554278995121237 12.721317204887091
Au 14.281973770529081 8.634258872501862 13.74300460313504
Au 8.269043782723733 7.648330781323954 11.410841152053179
Au 17.3216213672364 12.495931453120024 15.835896625703208
Au 7.692043045936124 10.266762025666655 11.906220423240537
Au 11.735723875731018 10.425539451783647 13.233920053320556
Au 15.86334963372338 14.587174435413104 14.86258684537721
Au 12.024958915577695 15.337588556050694 13.468645614538312
Au 13.19659522258359 12.851229561832952 14.089267337855356
Au 15.661070432684097 10.83021747671793 14.487729634194599
Au 9.059521156737697 15.186227489975286 13.589077931970534
Au 8.011950642773828 12.850622736526256 12.721456301236234
Au 14.526151134108327 16.743923068416883 14.008031283860456
Au 10.027207474632952 17.553285483326036 14.405816187996695
Au 13.087458061060035 10.302625950041758 15.678091144901058
Au 10.824058995614385 12.978453937070096 12.491377274413965
Au 12.410359525100755 18.350278850796663 13.133224437731565
Au 13.448183442438495 14.932432011712278 16.234169347751518
Au 11.71900201824748 8.039210912388109 14.600554190490955
Au 9.069458436536907 8.665085298573795 13.885764041156301
Au 7.688547140755533 10.873625248533822 14.63048313438546
Au 12.429071221778935 17.349801469431622 15.733030680191462
Au 14.609308076097872 12.48754342998951 16.50844561670653
Au 10.608048728911848 15.236442575796556 16.05146144486906
Au 10.275868181082213 10.420023183911093 15.65958527250031
Au 11.74735191294462 12.69720446751641 16.51377914874098
Au 9.213777729663805 13.00323793934045 15.37741366434361
