50
Energy = -134.57225609 eV
Au 12.76241850429176 11.295136171546567 6.529259908962757
Au 13.047968427384653 9.138313851398848 8.4697948131287
Au 14.600974122473469 11.474823501579182 8.488940399954357
Au 14.555090353381814 9.682710073702298 10.749426174924015
Au 16.230422769096776 11.830268133050392 10.683371242932475
Au 15.054749048031647 14.09712790660633 9.305203752214885
Au 10.744116797985969 9.590641904102435 6.894045215418086
Au 17.273308206601317 14.38474353564957 10.93412932995573
Au 17.896215371951303 12.39449492319703 12.779886060842392
Au 12.617056157255337 13.592493716339366 7.956997184107943
Au 15.9432677005355 10.433979005888316 13.080965090333823
Au 12.341602481604195 8.081966622071148 11.04763412239874
Au 10.624414833458436 7.765814605363934 8.92595457214682
Au 13.8747687170958 8.595507271536142 13.344342698548804
Au 11.108078238888092 10.621436850544983 10.000222640548087
Au 10.214260868680299 12.234289062228312 7.645760237256354
Au 13.060403112136896 12.600492202628129 10.616735624427847
Au 12.656830915741256 15.447144944685776 10.056265078554413
Au 12.379176430367682 10.74074558876403 12.499293247261015
Au 14.938118553238317 15.716383112851956 11.548585088973732
Au 16.525648307219225 14.637466661073205 13.626332247640496
Au 8.748684100888893 9.94731989189855 8.7811969070091
Au 14.04076472655089 12.310154723296264 14.1533635015573
Au 16.61677493434047 12.293548250048186 15.191933036381693
Au 10.212622001243327 14.601464161584074 9.037390180598331
Au 10.343682290378995 16.781988173957863 10.814804723741396
Au 8.438311705793136 12.47891085318057 9.746322345508455
Au 12.658812977009095 14.253339008903438 12.81026641957188
Au 14.841620614174762 9.994399716053918 15.625725267935541
Au 12.556842442438917 17.005811593262575 12.493331534160312
Au 9.420661435689087 8.465538250556286 11.252961837601697
Au 14.818953709883724 16.717402424558045 14.09409217452022
Au 8.632341370668554 14.760927659282345 11.354511588151642
Au 10.967182472906204 8.349782379019045 13.506904854239757
Au 14.86821627588055 14.624457706355217 15.851197424804367
Au 10.46240912052619 12.599048025397435 11.810205487502529
Au 8.734858428959463 9.97817191170186 13.348802475181666
Au 12.408782412219505 15.905544917756416 15.178635204120543
Au 7.757140274719155 12.374037217382059 12.414304376788763
Au 10.15013261901519 16.149059977306937 13.508084743450766
Au 11.347027394768713 12.464602449137734 14.544374137320164
Au 14.806744615018488 12.280914523549088 17.234020618776942
Au 12.523898245808489 8.48914687951231 15.764072667880635
Au 7.907234391842646 14.681461810557115 14.057578856841602
Au 12.47635684892016 13.803051627460531 16.994030974903634
Au 10.240376680911103 10.011989102560166 15.678101917131036
Au 8.584300102241704 12.187617823638508 15.023651466698295
Au 10.021853839618098 14.678441963273984 15.868486911501838
Au 12.521983277260592 10.88276928980575 17.110223342296756
Au 10.180851778255608 12.311429049547852 17.30659129864293
