53
Energy = -143.10888586 eV
Au 11.845601861083876 13.930485106468371 16.194197646069583
Au 10.78120479675506 11.338364017706557 16.21694634138159
Au 13.331944606399627 11.582519505728506 17.083445220587485
Au 9.905001592897555 8.744858818292895 15.849533035890753
Au 14.588792597972741 13.860686939646415 16.481215961151047
Au 9.392401112991163 13.483641231016488 15.02688543952768
Au 12.581940636415249 9.15160004832645 16.00811324229362
Au 10.760785232702938 15.932128020469683 14.499522433312194
Au 8.619224902560314 10.828437761484727 14.626935383933445
Au 15.161605289788092 10.13685462351189 15.66351344804685
Au 11.146835523830076 12.00143339150036 13.321452715435672
Au 13.41641821850378 16.176356937119362 15.123848327817386
Au 15.998366077134529 12.446903265774715 14.390818143096983
Au 16.17999301247673 15.2695371810665 14.858323828177655
Au 9.067872659569083 8.146714722627662 13.311919191859559
Au 11.611130904344787 9.368587866084436 12.875289378822332
Au 8.157139068217917 14.480074424305187 10.832604394627582
Au 7.249535598342244 10.028737448796472 12.438773598047813
Au 13.775854541777354 10.944371990831504 13.310778121002201
Au 8.336924084849711 15.407791148410645 13.382899948723828
Au 13.37069065391935 13.698751123895285 13.847178206627532
Au 7.605907324091061 12.771812200660277 12.958786037776571
Au 11.213662989994589 14.503144186455266 12.114063802740883
Au 11.531633037691622 7.031601397472889 14.283137963554307
Au 14.117328215325902 7.920520293884892 14.121595677711149
Au 12.438556967854934 17.0634827486099 12.500421056609765
Au 15.116802250512167 17.097446214426817 13.108622890075473
Au 7.99674595596285 11.712651101505855 10.427288438349093
Au 11.99690672895456 16.27250212141598 9.752092508467546
Au 10.759359159743928 12.362303911212614 10.489156199169354
Au 9.83523652559109 16.812844424372397 11.525481952869248
Au 16.261703784725082 9.613542116704782 13.198032659495547
Au 10.991189384204366 7.056386955355689 11.493026778486959
Au 15.640822577040616 7.175560948175334 12.021979472074879
Au 13.456421738097902 13.204160103893631 11.120227720492815
Au 15.571150980575839 9.452907506097716 10.453361842714102
Au 16.04206821167587 11.882297314876043 11.639354100938272
Au 12.797652567880894 10.459286646624607 10.682746439208572
Au 9.413037445743145 16.021478591788824 8.911541453138435
Au 9.168761550020585 9.095838839515665 10.70524134054027
Au 8.9707538732164 13.352720019240646 8.433022280580628
Au 13.485375768575008 7.586650576510934 10.44050086820595
Au 15.723872873675575 14.48552352733404 12.27529574932754
Au 14.535087502419346 16.2704521008227 10.579039745610062
Au 9.657276255690563 10.64443824762119 8.472498932028738
Au 13.058143075995234 12.215153827296943 7.2635264647380815
Au 14.963400629496494 11.895941230584208 9.139657432436843
Au 11.290106864801917 8.436608851776537 9.062434184072416
Au 11.394553749717055 14.530843366982074 7.651202673927183
Au 13.849300553923092 9.505568331984884 8.24798141918271
Au 13.927698787612835 14.457294350612463 8.642711064946125
Au 11.63374991795495 9.868933764083401 6.717982192971145
Au 10.447513579619208 12.309857651026624 6.348592053998665
