52
Energy = -140.41388002 eV
Au 15.229079444003272 16.16584202314513 10.851774151089339
Au 12.720537561778709 17.265117576569615 10.879146988707513
Au 13.847156825999065 15.675044907669816 8.559361803250907
Au 15.832357363227578 13.828652596071157 9.34977307617519
Au 13.460787581928836 14.039728935504524 12.00854007479955
Au 11.093747577154733 16.22069691190872 12.982991447037762
Au 14.151679976158473 13.302600468578808 7.18272590996208
Au 13.865626697257682 16.42734226492157 13.298524254012454
Au 11.41736978535324 16.93661101736311 8.357789080714324
Au 9.9263475073123 17.240987605588977 10.671460265225663
Au 16.8623661759305 11.76122434591593 13.564689166241804
Au 10.842921056938533 13.00289969468309 12.24194264273647
Au 9.420963985612593 12.765005195828406 7.4911635761083115
Au 9.117340884526165 15.22649868097963 8.801987537123352
Au 9.472980330098043 14.45171256166584 14.3789625281256
Au 15.059782238567967 9.242133709041433 10.589872027763274
Au 11.950136446549239 11.65021940705556 7.299247842056747
Au 15.119982540299935 11.15294276257225 8.578286909499983
Au 14.450404954835923 11.383682435015109 12.269583198927759
Au 8.806395357397468 14.968745398551745 11.717806663208913
Au 7.693438685670196 10.349530927616325 10.682242182053077
Au 8.831181095536772 9.35366633811985 15.85236415434973
Au 11.591505393889369 14.424073219653842 7.249340741897675
Au 10.390803876573893 13.618094696797293 16.825991183840348
Au 10.8506110618419 10.91656502163396 16.934420907189917
Au 10.06308353178786 10.624046699950757 9.133912689613869
Au 12.215857139867714 14.935299478687758 15.181202284327336
Au 8.54551536383677 12.059309568319945 15.481077381510106
Au 14.85329105851027 14.16590310413727 14.560292523748918
Au 7.815946087268374 9.645787260829351 13.28432678905135
Au 11.443498383222098 14.734857357075493 10.213291752747475
Au 13.008927398241736 12.825237333181983 16.95405126129559
Au 9.85212541017279 8.714278557549124 11.20621753357319
Au 12.737879707391716 12.229731759426102 14.277557092149063
Au 8.399793637522112 12.844543179997176 10.010458486808123
Au 8.141347191256466 12.401538131625692 12.748457655102332
Au 10.390874594855843 10.703955920345916 13.827655544219178
Au 11.880789272946261 10.604426119362557 11.4380830296611
Au 15.375587841477197 11.885324682914524 15.921741594978302
Au 9.745931955633987 7.72656894867992 13.76249068840053
Au 13.015814206655481 12.531682089315753 9.770220665856858
Au 12.934059717200377 9.52396629715673 13.819460312883182
Au 12.530922998046229 7.870626867688297 11.156907989249914
Au 16.283524471032532 14.00030382330398 12.111616755682872
Au 12.722339659074239 9.621614829233964 8.988622414747418
Au 13.494152198515003 10.067584382118753 16.726949220500828
Au 15.772864030109345 9.518679580744449 14.600152772873791
Au 11.397055708153019 8.30619328211021 15.965669116783683
Au 14.817100852111077 7.653466074731385 12.797585309394194
Au 16.785492760690342 11.577309018343167 10.746042153743417
Au 12.246501222974944 6.740391318205879 13.656184992096064
Au 14.084399181874518 7.604439307761539 15.587143589635653
