52
Energy = -139.30107404 eV
Au 19.345166925480637 11.321397567410132 16.1656582826095
Au 18.570183033676727 13.486737296250292 14.510132830546393
Au 18.161099161717132 10.846097746166363 13.764334397809767
Au 17.29073604378678 12.911409615222267 16.95843200260074
Au 17.090048004734154 14.820897985014756 12.690118328420947
Au 16.405379108861947 11.048123822907154 11.740304925908276
Au 16.885279741647352 10.031283337154237 16.35036910401588
Au 16.237348460146904 13.446862812843154 10.241720886734717
Au 16.15483116656725 9.061504731814777 13.727812445744908
Au 16.81087585745261 15.34986886590608 15.461642316772373
Au 15.7933360282696 16.5720697350643 11.06547231614896
Au 15.836572479711801 15.581570957591438 8.524941745485933
Au 14.22486104399986 9.13945293719373 11.717332289487462
Au 15.59285547922886 11.864575086213273 14.665049280202163
Au 15.2782763470781 14.487343297290904 17.76873544311245
Au 14.22039112663 9.45624423732325 15.789917306496449
Au 14.322132730867567 11.224716762308018 9.976321789921528
Au 14.701530859413246 13.211267975557071 12.505596296614033
Au 15.17479528501566 16.764399755440504 13.681231491775614
Au 12.889771636955434 13.307150082006793 18.283003184229504
Au 14.246540613596759 13.164255045318592 8.120519768460584
Au 13.955146197566108 17.687262333229047 9.30378134796148
Au 14.915925250516338 11.598258744884216 17.569235041020303
Au 13.664266139598121 14.791451986077622 10.388206719983483
Au 14.584950173789796 16.806548252710982 16.39522150025592
Au 13.973689865070893 7.470643877611027 13.90601358893009
Au 12.495444138296206 14.85589363672439 13.004832353745803
Au 13.143923859892288 15.631107523623504 7.6096945840655525
Au 14.209002593600037 14.24375985783848 15.16834372053609
Au 12.183386858963619 15.574993728128343 16.886707909677934
Au 12.769261715064815 12.077893865473945 14.240574020997302
Au 12.294093632067236 10.988608897865708 16.898940663944167
Au 12.452032212593073 17.173951416676132 14.573197655894626
Au 11.486009731466924 13.735625055603029 8.654469798327884
Au 11.896937233721216 9.946592532477068 10.572584659766097
Au 13.141757601616165 17.469530929556626 11.900672095554958
Au 12.146465858819436 12.611087954001409 11.32591989579336
Au 10.304620743728847 13.183224400897972 13.375609674084496
Au 10.681510936977679 13.264491060611762 16.6708458542565
Au 12.077905416576987 9.423375290324676 13.677797631197164
Au 10.475725305644168 16.674043985847202 12.322281781696935
Au 9.927314611190967 11.833034864263936 9.839115190033864
Au 11.433769790495026 16.46703113747496 9.759235460265135
Au 10.200758327755505 15.622872394573108 14.97417539863151
Au 10.236491707622296 10.888963128148161 15.135880759100132
Au 8.262802452206959 15.162645229722752 12.89731270280415
Au 9.880695628539119 10.529189857969419 12.333817971301015
Au 9.556022153923154 14.60461102146203 10.471365847022282
Au 7.794405930418348 11.26145788896805 13.978948106902386
Au 8.335298548646378 13.635298145576298 15.391723202585075
Au 7.960034990779949 12.654846459981941 11.577790528423236
Au 6.209449116564457 13.480888120059019 13.725476998746565
