55
Energy = -143.64818225 eV
Au 11.170630730492537 9.860002240419691 14.373212401341396
Au 14.958787639793659 6.533436813819022 16.022694990836804
Au 16.403977342726353 10.713788960322459 11.29971945075623
Au 17.12519097724642 21.218444357702978 17.656739995316833
Au 13.851673476180103 14.539235511677887 15.626572190156772
Au 12.279678538145001 16.18031781929316 17.58228764875162
Au 16.393463475762424 16.349366887067138 16.807954887819594
Au 14.654755290795165 16.726538433932127 18.936958798376224
Au 17.608160000376927 9.074404620833043 13.145917252191198
Au 11.65669597346051 17.59071617147349 15.245503568998576
Au 18.749560466119384 13.401101952307238 14.01179508407665
Au 12.38565155955749 16.230914778361033 10.637486931274426
Au 13.73466311202672 11.947645721179782 18.968790333895925
Au 20.76764329852171 17.34306182347156 15.139103101597776
Au 9.412720910757049 13.622267014027955 13.400707096987272
Au 15.205974729001204 17.895333854525365 14.761561945782864
Au 14.859991482656646 15.22944472632325 11.135904729029143
Au 11.483576662017427 12.000778118834017 12.728303785234369
Au 18.438717837986516 16.03518004634609 15.026499031783372
Au 16.63238084167113 11.483376280526407 14.207086146142219
Au 15.62547366061626 9.07177551176325 15.209748221057627
Au 11.629439710938708 18.45124027295817 12.597770087321452
Au 21.15695480593734 12.681184212819476 12.797735504697366
Au 14.942267940488458 11.65429388241433 16.463402366872707
Au 8.229413981078574 15.23829751932687 11.60134126181257
Au 13.539367195097824 18.53125134338881 16.97231347519517
Au 12.267988726850202 10.69745312560484 17.040192221404098
Au 13.830889124265305 10.76884164092173 14.04504539489476
Au 15.263515426678403 14.062131236032718 18.041316022653444
Au 13.042456374315071 8.349039883873768 15.847177465504114
Au 13.143599786773413 14.592552852924566 19.73794290488252
Au 16.09781759518471 18.806049530014064 18.09553663017817
Au 15.328071503418533 12.827035584846529 9.880751196590312
Au 20.909898732571815 15.029612323659958 13.972683243767765
Au 17.2904411713898 6.970054938830537 14.70345205959087
Au 18.888477098425966 11.307653429263578 12.265139817191262
Au 10.268559286570513 16.20169291371495 13.196292979417231
Au 13.903815330132073 13.422018227926085 13.13196095404484
Au 11.791452539661273 18.845115402158246 9.884177410113004
Au 9.839043397469307 17.147547568788863 10.628682066990557
Au 11.88564768367455 13.404042308692368 17.552709644154525
Au 13.65599906999525 11.021236265374993 11.368721338663983
Au 13.314180056140374 11.452807712267836 8.733870788173265
Au 13.286795336047785 16.168401350805418 13.38795911854602
Au 15.285752735663094 20.449106346578905 15.93650190545212
Au 16.698651841199244 13.792429149452023 15.75528809564713
Au 16.05298296011813 15.599939609813996 13.682724054530151
Au 13.208505918519782 19.823426769203415 14.376530929103883
Au 12.595556683125915 13.530646006152645 10.545333688451738
Au 12.759930241114251 21.213320464166316 9.29574811099029
Au 12.903442963178675 20.707507373979723 11.884592574254755
Au 16.761526329508307 13.42170138908521 12.109210071412997
Au 10.562976375636257 12.271012256694434 15.417929426816425
Au 10.86985001783615 14.961962631090186 15.537882999338972
Au 10.469153906753139 8.626052684635143 16.66132645160353
