50
Energy = -134.63068529 eV
Au 11.41843078208556 12.939932542212311 17.916843627359015
Au 11.491727099953827 10.895923685806597 16.130301428865554
Au 14.011807355049356 10.231948493780349 15.155432186592662
Au 11.688019872269802 8.79741070681858 14.299439912449168
Au 9.995400359630356 15.117616730041185 17.14595986311152
Au 12.793967989484331 15.316103306405969 17.111109248032122
Au 11.947394032509898 6.979326661941422 12.205407181937334
Au 13.91751839970267 12.422125331137378 16.87909349286589
Au 12.25058374505177 13.584082254173556 14.982796041603516
Au 9.417910758715696 8.258970977720514 12.723821962543008
Au 14.11084784874991 8.455572323152756 12.927045319279648
Au 11.152004422670858 17.064693024010044 15.623720346875979
Au 9.363908221259077 12.760167801466396 15.888800747977298
Au 15.195697866182135 14.788665043451578 15.994146001237818
Au 9.328323541008384 10.498514962214198 14.31952784693042
Au 16.19511030379851 10.057747650591203 13.523076676166793
Au 11.834653282182126 11.441691525340378 13.265402208516903
Au 11.593611411131539 9.685085592317625 11.16260545023272
Au 15.871567881067113 12.411142122441138 14.876078911385603
Au 9.125618762700782 15.345793924378576 14.58744031273978
Au 9.52482803434178 6.04657180616683 11.133478521696182
Au 13.92272103731314 8.059637813021743 10.120743752032503
Au 13.483791566164781 16.283696261719275 14.40757727461422
Au 11.629197754155623 6.728934765917126 9.481198582078829
Au 13.67307846419542 13.280228560803947 12.512685120381574
Au 16.272853201223363 9.3708530940758 10.816926687852094
Au 15.690584627240066 14.908379451923764 13.266712734103804
Au 8.47178575248292 12.954359265718848 13.244130292358578
Au 14.066277278661135 10.866796495242369 11.262669307300541
Au 9.413032034478096 8.531945816074519 9.82973971491903
Au 14.541856497965053 10.198981760050417 8.424982075419992
Au 16.614792252588384 12.387349279616943 12.209094722635758
Au 11.135669934479033 16.929899541211086 12.933452307585481
Au 11.94226568012981 9.151249909374435 8.304210565564064
Au 8.783286008432793 10.704915576695328 11.557904893190498
Au 8.673097362823773 15.619236982665724 11.93990556337758
Au 10.982148400979282 14.108351748168074 12.639535507277266
Au 11.916541834296881 12.442316653376546 10.467757004370748
Au 13.488436174649102 15.963339787752544 11.654062268502337
Au 16.45460897698784 11.851677283907742 9.527863623734138
Au 15.450851099817895 14.257147275430894 10.51064397119795
Au 8.933269838434558 13.204723720669747 10.491123994911101
Au 11.041208229058332 15.921288214083576 10.347702043598254
Au 9.958903240483407 11.069313146829428 8.968813878404319
Au 12.339720297777793 11.73576873997646 7.586889495890012
Au 10.592841128585954 13.820273642111262 8.311545741004494
Au 14.832039483201106 12.96838027564113 7.742922226410872
Au 13.205294940912287 14.84407386649877 9.078018328419496
Au 8.603392431955873 15.61879606823559 9.183953481578985
Au 12.723601307955333 14.211643090281333 6.464914376489832
