54
Energy = -131.90979535 eV
Au 12.579558593225334 12.086520516590292 16.471016303290586
Au 21.002798294226768 17.252267810969133 10.817477109836014
Au 20.278599596050462 16.642601367630988 16.157790963515858
Au 19.159719794733537 18.820146374359705 12.219831172482637
Au 17.9643523391938 16.852269272197013 14.318447065725207
Au 19.715743358168012 19.183093381749565 9.526943943006314
Au 10.226956408671885 8.112676355793546 11.292011395707373
Au 13.538001225231627 21.238880464280335 15.921336966400645
Au 20.19930215586879 21.26251090358071 16.649342174666298
Au 17.76526270438301 11.673793325414344 14.88452350894235
Au 11.336924196212797 13.831810854149985 18.11378487950255
Au 20.715575820421044 17.02203218139801 13.51394316847258
Au 20.253852057491624 16.24525129321562 18.901559549131317
Au 15.11416276272852 20.220970396846404 11.842233451255886
Au 17.3687306645876 19.95035823982944 10.549252017102065
Au 11.019649820779813 9.94792941149305 15.90056849925755
Au 16.01301075975575 15.212344993157283 15.119873575260883
Au 12.381253219043147 18.821973846195842 16.169918578845387
Au 11.869902491503625 14.569043285303525 14.833190491257161
Au 21.65255708655267 14.944687836899744 11.9362475293522
Au 14.283181431105298 19.17809217974644 14.248527878625232
Au 15.14194602907771 12.299168834682225 15.39542339856399
Au 18.823100085296105 12.176849316315467 17.327298574950454
Au 18.5259489112034 14.189503719279982 19.12045754531006
Au 10.507646639944289 15.986276714136636 19.41685003672785
Au 10.773988124475332 11.163443083115608 18.290011481206214
Au 12.132351725087785 25.639229656189215 24.83734804975447
Au 15.623388992028687 22.94125535969651 16.45623246438172
Au 20.492054372566823 18.367993564479793 20.396994363425282
Au 15.882260770997853 10.244670110405336 13.713576779227052
Au 21.39045784294394 14.572825354051677 14.61797138917011
Au 11.071498027654753 12.170880780954827 14.049689218987767
Au 17.79539713212819 21.53157156099922 15.619593352844316
Au 13.314936486676398 10.5087563080979 14.280432825125132
Au 24.57555687137547 8.623735026155266 25.855064025182095
Au 16.991574123717434 19.334644848587047 13.703590009296953
Au 11.801844719623304 16.315134710554123 17.01613494164149
Au 16.432565489938302 13.568862367837884 17.486469530069648
Au 9.702721311946446 20.55486855508459 19.518674378900904
Au 21.94676235697198 12.45940888780853 12.933191501820993
Au 20.24242961661299 18.83732470611337 17.777869375573456
Au 13.741991533087257 16.67234197665105 15.071514731079738
Au 20.472871288873474 12.060062868749474 15.159693730708177
Au 15.575451031924235 21.68610997564449 14.071870659039021
Au 26.134707748516337 7.839390337436767 24.045624976559075
Au 10.766599947021149 18.441817926175492 18.372888050362064
Au 20.733707191433613 14.126461781112269 17.26633524640112
Au 11.064609801966078 26.968932456704398 26.681120875675703
Au 13.927478563427124 14.420789324871071 16.76761979020287
Au 19.410947223282832 19.123679819254182 15.138366324990722
Au 18.572068443429046 14.357968928292989 15.349854084103924
Au 11.655775138219834 20.995618455545124 17.80205514600082
Au 11.032461883453017 9.502263973293118 13.252509639360216
Au 13.261674457345501 23.206773083102494 17.777721943902044
