51
Energy = -138.13358886 eV
Au 15.536709403020257 8.173663034977698 11.148348697853853
Au 10.018213774310185 11.91433170609159 8.129199590619688
Au 15.041596143024641 16.022808726097075 10.104180009738219
Au 15.46899919450644 15.229883986954155 12.761950329667915
Au 16.170479556200984 12.48222039760141 13.189775784671093
Au 14.528984651326942 11.510206991603273 15.394977471937684
Au 7.871844382045521 10.511802359912457 9.082838133025916
Au 11.5237839223247 12.072377954206049 10.541713184255645
Au 12.73702210281503 10.479976005594864 12.568611096804208
Au 11.369374593844608 16.85687288741004 10.303002434024407
Au 13.500910692305027 7.55952352960037 12.861881818412767
Au 16.60124006470844 13.764010223369633 10.701847210402589
Au 10.396381036635642 14.612861273117064 8.744738938414852
Au 8.123808894956326 13.218866179519829 9.74009526484799
Au 10.841623286825934 8.85204851621473 16.51213816865498
Au 7.806047412019477 13.414506302291525 12.486541705915732
Au 10.801757582655233 8.167104727155632 12.130696636474648
Au 15.37457815896013 14.14364787005784 15.29206203013315
Au 12.447118225061285 10.525350457953827 8.277404550576842
Au 8.696123373245111 13.198188851139525 15.032166701007137
Au 10.62324277562938 13.58405140921299 12.842720838056481
Au 9.977700611058994 10.896528623399615 12.609245357740201
Au 16.754416255865802 11.927742690782004 8.69085365627765
Au 10.40445163916304 12.845476034831849 17.21052892415857
Au 14.285295177987969 12.18090493184858 10.674762291204708
Au 9.20391830723125 15.324564593331973 11.138038501200983
Au 10.749755518212208 14.985340119256346 15.383492500278459
Au 16.68655555827868 10.709394856568904 11.15804032131365
Au 12.90211344312992 15.792500474444125 8.285444741982113
Au 9.044390475950236 8.635926518724647 14.291600093177628
Au 12.740971558444755 14.510107787145435 10.927688288802003
Au 12.978836085698937 13.622627487893606 16.519190101976594
Au 12.912694463355766 8.685774291060845 10.333091324109738
Au 13.271319108236007 15.793196874739689 14.563288863143912
Au 13.509286458068097 17.10499793384422 12.096563405672006
Au 15.35074142811536 9.764496980503196 13.40881115627054
Au 8.917145409577646 10.707949499844286 16.16968008575275
Au 15.04183643500605 9.759548787341481 8.955169590094009
Au 6.540115769634522 11.365751623220032 11.269234933377197
Au 8.142859724374253 9.102016444521723 11.623683417132423
Au 11.388584000969137 7.052117772895744 14.550177933167872
Au 10.991954656066468 16.350485549898686 13.032356801661045
Au 14.579226623797902 11.645342620560568 6.953583924179646
Au 7.425446993297155 10.91456423214082 13.846635418620655
Au 11.44282677337486 11.675453644192 14.816296944176058
Au 12.403620474402842 13.224980682348026 7.441440860768448
Au 13.256389043808863 9.091039119931732 15.190035971212824
Au 13.385128554714457 13.107109434525121 13.273322325067554
Au 15.032079213712308 14.031021197141698 8.245868088176529
Au 10.317660981540618 9.577437695385024 9.81230334447791
Au 12.467926554037383 10.91980299080339 17.25880354045803
