51
Energy = -138.34056669 eV
Au 12.96847012806198 16.164463168829027 11.282475703123385
Au 9.983295275869514 15.852507327705245 11.574796109621893
Au 9.1341679008373 12.84904840262641 10.61887854614313
Au 11.22788384873235 16.434422529256242 9.168032683250576
Au 8.64515379947397 15.46807226858901 9.140501473982717
Au 7.889311948277203 13.046263165277791 8.040997943815652
Au 7.286382658192154 14.809287316245968 11.436028248741565
Au 10.641964840132367 13.909384259259227 8.108028930760018
Au 9.959054734894371 11.220722607059153 7.814597899445989
Au 9.492590038574347 8.583346068826136 8.3914895886416
Au 7.386068846387569 10.385740607738185 8.735039133053155
Au 6.2801961575812575 12.482815782726364 10.220719026189913
Au 11.920886913702658 13.61291012727903 10.77213747424431
Au 11.754160357263212 14.991355938742858 13.530660688007789
Au 10.803785040247275 12.37656688852073 13.007768062822255
Au 10.613723899961164 13.626520005681341 15.68367263128197
Au 9.017099500948108 10.425033923884754 12.011396622133724
Au 8.897880940349749 14.335913526357512 13.633220435664066
Au 6.301196925370255 9.986067305688213 11.37020115407052
Au 8.233648120298001 7.809718013637783 12.593734481688855
Au 7.012668077767026 9.842670225430002 14.036765904148517
Au 6.941735724227697 12.406750728724196 12.901234882000894
Au 8.69078524110445 11.792983198323174 14.979654002216908
Au 7.394379347253547 7.899540280721103 9.982480195506364
Au 11.570928212868768 6.746701771209922 8.42482902981109
Au 9.881363219271174 6.81271574909476 10.569060989673998
Au 11.158191394696654 10.931057138831841 10.272098838597133
Au 11.698325578588891 9.751658875424308 12.715325158383715
Au 9.514941122489878 9.004309513103086 14.812179155004255
Au 10.94901224383289 7.129097740943933 13.082318847076571
Au 14.069145116332821 10.307679004584942 14.906069882704033
Au 11.373102200502254 10.982776766096647 15.7335996047577
Au 16.463291516015367 10.427437882281497 10.06789091547693
Au 13.220196425924101 13.059709375108266 15.113196442871482
Au 12.136014836141998 8.389643880747585 15.277831208704498
Au 13.89539326969464 8.067892917377046 13.190449869084201
Au 12.727283095396958 6.954021637806749 10.946934874292271
Au 13.55315104718831 11.908656020052678 12.33761098016426
Au 15.868014376365528 10.089852558788781 12.738728027827017
Au 15.735108332487364 12.409948405789034 14.279455243286392
Au 13.646204634914326 9.820586094098772 10.531205670833536
Au 14.142472938874015 7.669801423096219 8.63296062683548
Au 15.582856892007424 7.88244845248101 10.993109441531333
Au 14.822366965542665 10.250508658401815 7.876222141224388
Au 13.379465000329668 14.739566681067336 8.654481616107878
Au 12.741431312046728 12.102903034224044 8.175186187352947
Au 14.469495244252283 14.539366247042754 13.009454556997987
Au 16.26788069854736 12.715188669847395 11.593639167532798
Au 15.388505827445572 12.761094859943643 8.91175143323016
Au 12.10671367340309 9.41465328974506 7.885610906669742
Au 15.405388056641112 15.061353191061007 10.477020858033436
