52
Energy = -140.40983577 eV
Au 15.907268577349559 11.452658418135792 10.372234925402305
Au 14.474414431749057 10.220784356209762 8.119073807467615
Au 14.941112982659009 8.835099197165784 10.52356016819183
Au 15.408775760761008 12.806316529087171 7.937599357354647
Au 12.92128096776171 12.273954299836754 6.803630431589333
Au 15.476419406392242 12.957620845321497 12.737195651305125
Au 15.835102642942678 10.208421597865962 12.87330413308186
Au 13.285142628775628 7.676520556312351 8.564413671330493
Au 14.811855844949307 7.576048141236838 13.01109408541481
Au 15.400655105681135 14.260539574437976 10.276627597272347
Au 15.458315787593946 11.702800586293586 15.182709329276774
Au 13.278245312280289 12.43008839610498 9.839049677379455
Au 12.02842561728972 9.593257998626768 6.909848404924919
Au 12.65862281001246 7.051043935562933 11.295240391407967
Au 13.639418701721327 13.775560910169721 14.847317084387447
Au 10.275167608191255 11.652730206681369 6.416322224435995
Au 13.437396498217923 14.77214068579053 7.9295240532422735
Au 10.794034007762086 14.120734841335771 7.417806578741102
Au 14.017125803917196 15.291904191385346 12.491328134667338
Au 10.516774899679294 12.236155485663536 9.728192573309745
Au 12.581127774162017 12.43325916247017 12.557840618238908
Au 12.999829443405321 9.720894243634818 12.403417860073432
Au 14.243785184749745 9.277365110722023 15.118562964052375
Au 13.994218406502425 16.546157991371313 9.934350907705848
Au 12.111823666720076 9.928060634609007 9.753754029424547
Au 12.235534037171215 7.4645989206905705 14.119691803559347
Au 11.955611797419326 8.911238148970051 16.552620304514026
Au 10.665240744745542 7.5304139040563225 9.469909981258098
Au 10.080759221483563 7.483446334859424 12.362670127483465
Au 11.318323145638661 16.344901490309987 9.027620332896232
Au 11.374008676394862 10.700869819109537 14.39192790838632
Au 11.637717724095689 14.427926679092161 10.963683104165764
Au 10.305959162239784 10.307305998870495 11.862454327819169
Au 11.993520167933164 17.16964204310837 11.713507831920156
Au 9.512696415575705 9.721680457835518 8.194963516828306
Au 8.286306022856772 12.349900893146861 8.21911189656701
Au 9.737950629913811 8.310218936153687 15.027861991202556
Au 13.021584479384556 11.566659356364246 16.50285243393415
Au 11.535395993771303 15.346242569865794 13.79174091453482
Au 9.010571806790631 14.745919917764548 9.463599388025488
Au 11.040327235930246 13.441389075542064 15.74912305288558
Au 7.921858681079531 9.215616735026195 13.07882674994158
Au 10.183008487590993 10.986767407405662 16.89520115259193
Au 8.369971674547166 8.717069078677326 10.448775446074745
Au 9.896110867680843 12.765544289444883 13.046720791572467
Au 9.47305129918456 16.105305251582838 11.81898850118626
Au 7.878948705631024 11.451718706934185 10.883753538230156
Au 7.821483426753095 10.169786169810356 15.638331746733511
Au 7.688032517430014 14.029665013188545 11.79632932117242
Au 8.37118397038261 12.845099269328514 15.905849855320037
Au 8.804842377321346 14.987036429373958 14.289661031942105
Au 7.212429041230979 11.916158075188749 13.547676820501042
