51
Energy = -137.28587067 eV
Au 9.223442628274546 15.414176456649134 15.829731642477661
Au 11.984684570481317 14.623944195169807 15.899935198537218
Au 11.110949528509563 17.001220284443598 14.574900675587466
Au 9.823719617785716 12.778402791589116 16.14718413851785
Au 7.962046638671913 13.446944888036192 14.142319304220488
Au 14.645666432028303 13.559972446764204 15.587364997390738
Au 13.761242926567501 15.939221054072782 14.21043960570477
Au 12.452873837180132 11.92427960273797 16.44673661929729
Au 12.504721722847675 17.789260152292155 12.445209976010991
Au 10.029919875795489 16.70507524528085 11.603412275243237
Au 10.400904548397085 14.618474835669346 13.422860171646851
Au 10.301472088941068 10.11067720395865 16.65118230799824
Au 8.552399045899536 10.770764619562616 14.637677586670053
Au 8.456595712446148 14.32429477745189 11.46406322116793
Au 14.916269104588487 16.49728392206954 11.747357236788528
Au 12.799280407541355 13.191213058040363 13.570207410921629
Au 15.74030724570389 14.284740868918052 13.054871722338843
Au 12.228014900331718 14.744357383779837 11.227273373104952
Au 14.89298751284241 10.770165554193495 16.039990025448525
Au 10.282991174888977 8.241587118267933 14.569841582268209
Au 11.41239199959434 10.776018133136521 14.006116623458889
Au 13.99967000169291 18.68936645302971 10.350711964092278
Au 7.976268609498219 11.60538008717588 12.056593372320059
Au 12.697506537115917 9.018959202580724 15.881951726654002
Au 11.913492663730928 17.045065596876814 9.61606023002598
Au 14.5100214362474 16.375272389636823 8.931913358319786
Au 8.249971729775313 8.838979104935218 12.745522463979261
Au 9.224762852306451 9.808745839491896 10.386051996990568
Au 15.092752417037058 8.288065493977216 14.851398890320338
Au 16.5675517236811 12.0105068649989 14.305504565015152
Au 11.937619740151925 9.857326608744911 11.403885897898725
Au 9.076390011592505 12.436992301703276 9.487280769166167
Au 12.76098054163094 7.389921887995625 13.560305095144537
Au 14.048992631147144 10.449231289333165 13.211031238922082
Au 10.69120156891754 12.34341491319543 11.768449757387968
Au 10.090501460526179 15.057109461678142 9.29494234472723
Au 13.379888670530537 12.228745157743509 11.07122893736068
Au 16.231218257068114 11.896488542980237 11.54676653507627
Au 13.089452062340493 14.0677352571467 8.544690042313976
Au 10.506063159593142 7.459149828064072 11.913991776402703
Au 15.379054650082793 14.169072484982342 10.269719420918038
Au 10.934752539010812 8.022085472783619 9.211274300531132
Au 10.636636174978022 10.542766913843911 8.108847078156462
Au 16.736825858976083 9.578213751505764 13.013311017196228
Au 15.303363931550392 7.223435862458889 12.327124870872607
Au 10.707507567844301 13.223735595780706 7.40443998049418
Au 13.135825244299966 7.384672722637219 10.745432325226881
Au 13.240402939272554 9.474092837379406 8.746559887224567
Au 12.95235140738032 11.6755990382407 7.119584074995529
Au 15.207383933679685 9.42362042587651 10.62969134004288
Au 14.971606298987536 11.710398398992563 8.952374657418291
