52
Energy = -139.70095042 eV
Au 16.766415577440622 13.992671680952274 11.633370356819556
Au 16.49605533653737 11.844062590266521 13.285222081659263
Au 16.077475203565687 11.599332594975895 10.397109385376417
Au 17.208097863181376 16.205976629541112 10.096133904797382
Au 15.713344731174868 14.391805106574843 14.183012288363736
Au 16.019275079148578 14.064541504029032 8.853942193981052
Au 15.72903380318855 9.429917625777186 12.048950642551741
Au 15.118646036367167 7.492356293521089 13.80031863100806
Au 15.901264413278472 9.878724835853157 15.055273678428334
Au 16.18047061526212 16.62938865858264 12.557418490852386
Au 14.396520863477376 12.23634359612373 15.276245590567854
Au 14.872721290242845 16.93327847908687 14.867595216926262
Au 14.436200610102981 15.684598112973795 10.514177405943817
Au 14.345136383482963 5.750495642918517 15.683964601275356
Au 13.256690780314287 7.948740090205892 11.720067269096015
Au 13.335176517593279 14.618953697317888 8.12244579583557
Au 14.120891291769658 12.776719746744925 12.010436483683009
Au 14.337052086482917 12.04089849164448 8.282002395756704
Au 12.199998398463388 10.686160438205029 16.235348008496683
Au 14.088039976540271 9.721622703477218 9.800069769143843
Au 11.814241294662635 16.585938746159123 10.268893277295929
Au 13.342029308831727 8.254649319749225 16.044692982424092
Au 13.343127751186204 17.235927359602712 12.538424844092079
Au 13.426862730357087 9.944020068093426 13.744853368337745
Au 12.160933266816983 14.617261108919147 12.17268432564534
Au 12.372025681308022 6.5101972595325 13.950283544628254
Au 11.997610548518583 10.73616181512321 11.540495392398933
Au 13.093729363727013 14.712887027205289 15.210301895077063
Au 12.217071990456875 17.35410185710632 15.09392308684474
Au 10.557448744626894 16.792245988675234 12.928018445069075
Au 11.974023413623966 12.373870073076816 13.834615389094456
Au 10.783676055476207 8.646467598927227 14.854538453224656
Au 12.049311632462747 10.604250396411787 8.194008317492717
Au 12.021289138014957 12.945791921548574 9.869730132532176
Au 11.098281715830721 13.159639164012296 16.353497534125356
Au 9.551361577970646 11.047830925466885 15.416595566702847
Au 10.639651338407392 14.98017576146186 8.386391129216602
Au 11.328090016412126 8.571573104577098 9.860655354815634
Au 8.713489670081305 9.542785174773591 13.239060063157423
Au 10.012811859248188 12.724003678822786 11.89213947865984
Au 9.342072111796499 15.44200299333175 10.829920077737162
Au 10.205358270690898 15.642432163959956 15.55013266370909
Au 10.477070184412426 7.482769706265679 12.333689674186259
Au 8.52595057394688 14.973783598559768 13.491907971646341
Au 10.457228948980262 12.529882569729654 7.1766597587626375
Au 8.386540627858404 13.594470388405648 15.886103557816122
Au 8.780463893036625 13.082053169498701 9.307923221726853
Au 9.353094657188128 10.438745957389129 8.773937529863588
Au 7.789179597367636 11.0801410294597 11.024625598728177
Au 8.694883718734319 8.557024215829447 10.651552037754518
Au 7.190964325531965 13.749960560798337 11.47381001490253
Au 7.770863698993129 12.148728000714476 13.640308098650443
