54
Energy = -143.17494088 eV
Au 14.528033268124203 9.710661447369306 17.18677873706141
Au 11.979736936457874 14.222502866526924 9.16827177718454
Au 8.878208907928105 17.273731290842974 14.791337852362918
Au 17.51519555712732 14.819283327948495 13.130364739545413
Au 13.806150161065641 17.859612503827716 11.882953974017315
Au 9.964543785046335 12.320331158166866 8.813652453904153
Au 16.433440465158615 14.238440633173646 10.605695369923147
Au 12.659899954685207 8.938963070422483 15.281603611658412
Au 13.92554280008802 10.545737268728681 12.307373421536203
Au 15.767847290279764 12.62545209992255 12.940373287197437
Au 12.534080376297881 12.141757304910033 7.475653159415179
Au 17.948205343209626 8.301459551805248 14.463430761548766
Au 16.304361408665464 7.21287962548866 12.635155358557762
Au 8.527200653959884 14.077576385227395 13.696884129263447
Au 12.939665434308179 14.123495004842447 16.25216047584678
Au 13.639716398489226 16.70255925298139 15.530358887868529
Au 15.368490014363859 14.702007398615468 14.888551439286678
Au 13.435848722263218 19.125519948078423 14.204081730666
Au 15.076807911877651 12.294173609017227 16.32019047865262
Au 8.644793729976534 9.998753008387743 8.31221215465962
Au 12.42013319925154 8.56445240065766 10.527114096479865
Au 11.011556482559303 15.547405740661963 14.780715998826349
Au 11.136001539524909 18.18402202682937 15.867201506751442
Au 11.516789235585332 16.29873218306468 10.906144410322938
Au 13.421261709202843 19.049073722139358 16.93403721425516
Au 11.277156182104905 9.427807360439797 12.976155325893258
Au 14.128166878161954 15.772312748263635 10.136115972817095
Au 14.674931723751506 13.364541259993143 8.662155670686053
Au 14.458689946090846 6.4697437568148795 10.728029242054657
Au 7.905841956297955 9.89739620250626 16.910329155904435
Au 11.349548613470324 9.842777054370293 8.32544874876965
Au 12.454723877744359 11.398361897114437 16.55670468631007
Au 9.956015625796732 10.107364814921416 10.711387481427868
Au 13.077092748543143 12.544218067463275 13.957335036933623
Au 10.181287329086562 10.026138490991302 15.503537321715113
Au 15.543045638907135 8.943228816323979 10.658937404098037
Au 9.071667848979423 16.36068186581196 12.160308607871084
Au 11.243577269196145 17.91316284513957 13.087371257471066
Au 15.30102386840894 8.316609027985722 14.984911665425567
Au 17.496450345034752 12.84741861487611 15.028414641996733
Au 13.570861096747834 13.131583967396097 11.237393615731081
Au 9.468289799595953 11.508266827904162 12.94949378115128
Au 16.06769699428561 11.552385137096941 10.380111372477396
Au 18.799820561640622 16.952996268765794 12.309998643303535
Au 9.413177997432376 14.519150421487472 10.198158517114212
Au 13.921998821503118 10.437512846896379 9.059172681278376
Au 10.55136841704688 12.886596240999424 15.291813469483
Au 13.331361942955864 15.336771336174765 13.072752882770288
Au 13.525202720052587 7.78184599069254 12.937691025272132
Au 7.978477103742969 11.921684791155883 15.260433885897918
Au 16.99396245685046 10.379666735481424 15.902398761971577
Au 6.752156850222138 16.112463355169982 13.660311172267496
Au 11.047520301924601 13.726768605240837 12.328465822303967
Au 16.314325285321026 16.880913309281063 11.36131660920568
