51
Energy = -137.27467916 eV
Au 15.80734376659253 9.106940215459051 9.252464538988296
Au 16.86788500044902 8.510589671011601 11.648686995231161
Au 14.799010539267746 13.438049800787958 8.011624246050923
Au 14.687083801870727 10.751740287580681 7.380564648773114
Au 17.27138842045148 11.113011677178534 10.930554419007898
Au 11.978423548395792 10.82426532213206 7.058851563807881
Au 16.237685102578236 13.80065519537565 10.387767995560743
Au 12.061841153739682 13.512405719223533 7.51466609547713
Au 13.132722324648473 8.627011068584414 8.597334024943105
Au 15.156122837248088 7.983371091947746 13.658208294041222
Au 14.661910877421313 11.516462369902916 10.068252313513998
Au 13.36738424954916 15.665671355026694 8.8018471926727
Au 16.527444506371893 10.426851899885886 13.633552878040511
Au 10.34170928082403 9.08637560301985 8.455156051318339
Au 12.596653565569547 13.509765351029433 10.341491801141638
Au 17.14029515808275 13.013190957187822 12.907109831139074
Au 9.888000362648995 12.01051743303757 8.530669443177414
Au 12.012401864511498 10.814024863011289 9.982871192915697
Au 14.089199315441363 7.806197876708093 11.107726037800662
Au 14.346413366285594 15.73196595837009 11.418434234176887
Au 10.237199442722618 14.684040606228226 9.345769940235744
Au 11.34162363164461 8.23843046393928 10.916566564852893
Au 13.438469099265069 10.36977495788326 12.361795647493187
Au 11.703835688078843 16.536192704881724 10.844159049735453
Au 14.352936952962803 12.981211549175619 12.43355057881883
Au 9.15756319599572 10.24246808778629 10.677588651526527
Au 12.419532012117408 8.074694283728014 13.493741549818765
Au 10.834993261806188 12.074151707488051 12.115807120310667
Au 14.172047668188002 10.010352679170138 15.17918306863322
Au 12.424190903099806 12.227116843497267 14.367529023850155
Au 15.593474351071912 15.111360138832051 13.81285802381537
Au 13.349675505091334 16.745772234854382 13.89391911289708
Au 15.396390582673648 12.54181797583353 15.129783719714693
Au 9.921414330147364 9.209991572650958 13.161852525184141
Au 8.488250171343738 13.03717606671 10.735882793925473
Au 9.101635712123853 15.66448978507692 11.671720629379061
Au 10.712491341191926 17.303575869698303 13.25876137374247
Au 11.859821080401552 14.600796318756704 12.934900990154109
Au 11.45310132309048 9.732065698442614 15.513303554029775
Au 8.031196727608226 11.329210558674012 12.972875487557364
Au 9.874578083580543 13.326175273750113 14.346317923784891
Au 13.26652656871356 11.993733736878013 16.946913983108242
Au 13.69621976100695 14.66535659752608 15.787528319833717
Au 7.316561184589707 14.031651362296088 13.01719836865642
Au 11.75285985019661 14.175660585589995 17.64910591956278
Au 11.242852592654693 16.02482304343378 15.66032184728772
Au 8.653095919910955 15.947445232420447 14.479775571845252
Au 8.767701328549387 10.274998530131933 15.419232633359778
Au 9.143905192158085 14.454117416206632 16.797524700851447
Au 10.409696969193456 11.895396954011852 16.886527687970673
Au 7.452088164466966 12.689793866965477 15.470814708583125
