51
Energy = -136.93493625 eV
Au 14.669277269819686 14.997062452380252 8.913799241236356
Au 13.836009802647018 13.284146371081327 6.849495446132512
Au 11.289213693358732 14.481144624935073 6.852988657380035
Au 12.00075563599297 16.263199994566815 8.923925177868856
Au 15.385506148068863 12.29561332860791 9.00186903163991
Au 13.538048681972132 15.873539262244286 11.250931864124095
Au 16.38494390975291 14.007961359423593 10.980827898057784
Au 12.29978737572791 13.550722066477357 9.305513394964336
Au 15.16323121924016 14.937584449569911 13.328581082730187
Au 14.03812012829827 10.565413872556793 7.348836283745467
Au 9.595590961642191 14.679280796116252 9.021319030380157
Au 11.50514953403747 11.736098955933114 6.826396478745942
Au 10.688625021914474 15.974401291532658 11.380222568570453
Au 12.291086508150018 15.877107600309545 13.706675043930447
Au 13.915954647084623 13.020333921491101 11.509318700951757
Au 15.473151159613987 10.399931797115277 11.010819274106849
Au 16.12233604468052 12.116439010461296 13.181321543817921
Au 15.874344178896287 13.424111942772791 15.584932323151587
Au 14.001087484722836 15.415423312093724 15.857370827481896
Au 11.717302881578751 9.152078247627374 7.818010425235568
Au 9.663329466273067 15.129701895026162 13.890118896146946
Au 9.210788258671291 10.55138964036491 7.645629721722268
Au 14.110499045689664 8.579502690378188 9.274583399556574
Au 13.09271698945688 13.14620397454562 14.278472478804726
Au 12.79432648383208 10.89365918370895 9.977738944184178
Au 8.467839473236488 14.127278752961267 11.468655326452684
Au 10.212610716543256 11.929790364476604 9.919374824595025
Au 13.3005444774115 10.713754506467286 12.961061710339239
Au 15.735297112883647 9.336395718749198 13.593062605625335
Au 15.05937952071025 10.850375327273374 15.745961734361247
Au 13.471767227536708 12.872665203296982 17.0607780101175
Au 7.744661649996035 12.546852750104978 9.138147908087893
Au 11.400605116013931 14.650646435049469 16.13504820383206
Au 11.2331051733271 13.323981984687899 12.123937071208045
Au 8.349148950853321 11.484339975545426 12.393607533516695
Au 13.770461686770421 8.11780629014889 12.030325879213127
Au 10.785274034230568 9.966156327432198 11.727450003215557
Au 9.447634614394488 7.92561207917837 8.694331701842453
Au 12.83354592220044 10.198919884608902 17.196555617321245
Au 8.843927573086535 13.827429324702278 16.260502243907602
Au 10.90849929532206 11.464465998188565 14.127425058313987
Au 11.73228325925464 7.597440304646781 10.256103675818911
Au 13.343378081118212 8.68978459433647 14.930949502978862
Au 8.19170889760697 9.916605577003795 10.157867332517798
Au 10.771179918489485 11.992059880120054 16.987108493897132
Au 7.423385828306422 13.499188043132316 13.9642698891463
Au 8.50037660718651 11.221621654872285 15.410154774472439
Au 11.301390497088732 7.718075287789266 13.327764097884772
Au 9.198573867169694 7.595239512555546 11.431404759956152
Au 8.869324517228401 9.080821604765962 13.720597268862205
Au 10.691961581034327 9.242893980505826 15.792793335038692
