53
Energy = -143.51003707 eV
Au 16.239060719745932 14.928655642894487 16.94990605654376
Au 15.42334141381161 12.378236551277567 16.375076638790247
Au 13.53010178025523 14.306499304310334 17.293119959110342
Au 13.107920486623117 11.60029003161407 17.722691421377093
Au 11.046652870506444 13.186061742655049 16.85618114847396
Au 11.31758574754369 10.495766966236923 15.986566409941565
Au 16.59284058310661 14.03221574173462 14.339371499744038
Au 16.150238729398186 11.268860271995829 13.916454661145789
Au 14.504956028394979 15.75313830406995 15.031392829480025
Au 11.814825829058412 15.80451792730072 15.769430667224766
Au 13.638286548378408 12.791927455016886 14.23100515494361
Au 14.10253981818561 10.118297798409259 15.594746577707179
Au 9.31999283568778 12.103930865896718 14.925594477088838
Au 12.317748139876032 8.381048136312982 14.507470044425546
Au 15.019547671424048 8.725501151168567 13.412576161347575
Au 16.54404323565457 10.275448226382542 11.369305099133886
Au 13.325986142179113 6.769787867983604 12.508936278631007
Au 9.224643869472242 14.785606838487611 15.623290965613135
Au 9.695983763058116 9.396217394966031 13.990489961442657
Au 11.380171369636495 11.320756998649925 13.017748275072021
Au 10.02761466756526 16.643945270589175 13.740382545752398
Au 16.713633058398802 13.075140543825727 11.817210629510491
Au 12.792892390419608 16.70849950510371 13.213898474965346
Au 15.064780470828646 15.299806404071564 12.353239978902016
Au 13.935413597965047 10.873708221512745 12.100084828489594
Au 11.278659358246873 14.054038392016821 13.626066018243947
Au 14.705096199208132 8.232124893567553 10.636990788203805
Au 8.519276357638171 16.60282952943073 11.432260691614541
Au 10.62067888539261 7.136656235693122 12.737565707900568
Au 13.003463152862118 13.405999011831835 11.501779824483503
Au 10.310565430829865 13.005298263365294 10.991458921346059
Au 16.85854567919912 12.209829979799412 9.252285376218557
Au 11.06743743831374 17.684907380329214 11.350697007384582
Au 16.018579888175374 9.682136386698039 8.707588692910994
Au 11.964496678945322 7.7255705395644 10.335151939835189
Au 15.068057475922942 14.194006543290525 9.760648582801485
Au 8.487190610713514 14.251332052024088 12.979942951265093
Au 11.860829998002949 10.731145620713871 10.307571707429013
Au 8.397967749608416 11.458960743327724 12.415012441050653
Au 13.095271876465764 16.03753340086169 10.492501254023267
Au 9.548219605612275 9.081321268062338 11.117778860227054
Au 10.451265827216787 15.591604611675185 9.640247956064663
Au 13.354063966880393 9.246634364834238 8.385616491867856
Au 14.33328925629278 11.91025710905405 8.224736908326973
Au 7.933349774101368 11.644897100800211 9.595945236675075
Au 12.441568869179612 13.892615325233542 8.707950964126711
Au 7.912455111193863 14.257289343524775 10.238398232255904
Au 10.635291261556738 8.98004334547401 8.321962059238972
Au 11.75304266692881 11.448393742675846 7.495762577782378
Au 6.807273542282263 9.644660385676913 11.136848785796895
Au 7.977634667521206 8.969422554210352 8.773074422546271
Au 9.741822558064241 13.322030002806885 8.21250837421589
Au 9.06286819735037 10.928765624827173 7.112647769188417
