50
Energy = -134.23035304 eV
Au 11.819726686031323 6.611826362192538 10.559740430925839
Au 9.296179248410697 7.659283460055504 10.438123037070703
Au 13.962926997754936 7.628346544838558 9.219631864482729
Au 13.661339732717455 10.052242100064982 8.015174143680879
Au 8.959976307898746 9.665826587549612 8.589607024584472
Au 11.151994273920083 7.649653856877617 13.037429650859087
Au 8.633519578245426 8.713970025353854 12.89115046326932
Au 10.515626098395247 13.62416616361467 7.426245844477071
Au 11.351959568780574 12.270280265102874 9.89076336671346
Au 13.163941951673557 12.744162165907905 7.455650382213784
Au 9.869751519037846 14.825199393829912 9.89750718131433
Au 17.37581438415485 14.055819416729884 13.172491781710411
Au 13.706483954488865 8.054667509029478 11.97498443948108
Au 7.920921469064341 10.557480263431755 10.989561886632094
Au 15.283698706797841 9.990977574260139 13.153067217817535
Au 15.480246137874031 9.620378811842029 10.300614942034438
Au 12.992960680084956 9.195000970197942 14.475509733585382
Au 10.78330610108823 9.878223869681618 11.122961273142641
Au 8.351877532682524 11.326782571492231 13.659855235650248
Au 13.270500153389778 10.936524398601218 11.38056863702885
Au 11.399967957807617 8.412476422693212 8.485442144756682
Au 14.72300402407833 11.219113652324394 15.53450545389682
Au 12.148933531530902 10.877194147148177 16.490645846295024
Au 15.383851170665883 12.009888144223716 8.942595376556696
Au 9.52612611592073 11.915882558026858 16.076516893480655
Au 10.205043014068792 9.404309678955402 15.051908600096025
Au 11.220823567564144 12.907281274511517 18.07831847390446
Au 13.718028998056713 13.618388734052647 10.712117423703646
Au 13.897935273777502 12.906716899475166 13.424843923659017
Au 13.795940439535368 13.268624047582627 17.10771702013414
Au 8.646779013175323 12.345161840800259 8.967550717494547
Au 11.343960162865157 11.402895887102163 13.437576757980144
Au 15.756403973339197 13.868517587036584 15.312624842013584
Au 11.761354789019888 13.57441331137915 15.136188297052444
Au 16.10604027357747 12.116760093291175 11.633775544360375
Au 11.063649261819124 10.911463430592773 7.346383324730484
Au 11.461880213601985 13.878748219957306 12.318074768445515
Au 9.03995159329807 14.020189837738199 14.15446292887131
Au 9.40551668286586 14.657789794514493 16.780361969525444
Au 16.426685269444103 14.736687695639098 10.700051985116312
Au 8.496129092142287 13.213412590698457 11.620266239883216
Au 15.224668680027232 15.747226885423824 13.04676907709848
Au 11.998022810854224 15.486520842362307 17.364092494763856
Au 13.714786431328378 15.805649343963223 15.31203186494045
Au 12.32319698285919 15.2408280686808 8.725420974084216
Au 9.873995392737676 16.07549971822217 12.34468914506167
Au 10.804339465974786 16.300006122377884 14.938363912780382
Au 14.984984357148257 14.691458679765116 8.369504917436574
Au 12.593992335121678 16.57153104538943 12.86514743449039
Au 14.070166606599733 16.356978829193498 10.582918058659843
