52
Energy = -139.29482278 eV
Au 9.6469164327707 11.189665234004599 16.39641313847569
Au 12.514461186228637 11.250489330631723 16.75504397778951
Au 11.065262202833317 13.615819898572672 16.86628526322606
Au 7.203833074597374 11.683426538909611 15.265531804674334
Au 13.99233172391511 9.057678538878681 16.137701922305897
Au 11.219087723257992 9.16754920614015 15.175177859319199
Au 8.769884052558309 14.037561253355085 15.475329167784157
Au 8.619577295841667 9.616831457373227 14.131494118865602
Au 13.496411652949128 14.031943112964603 15.603713178010844
Au 15.042005908867647 11.624320882527675 15.496507326310377
Au 11.323230106247085 12.237690272792124 14.39609387026842
Au 6.489932088628143 13.863140164762033 13.783868438893982
Au 6.56614226222379 11.200745235441426 12.560649080802882
Au 13.579180876589394 7.446288540295893 13.857808730756433
Au 11.136170843049984 15.318382926481675 14.5749625495563
Au 13.27137742928466 10.170333239418653 13.582722822738228
Au 15.902276310259927 9.157909271114143 14.076330412448012
Au 12.354791321513641 8.057052182821046 11.458755812524476
Au 8.968142525478633 12.505835998110069 13.025591239920573
Au 10.786106055792787 10.186130106426438 12.487106040665186
Au 8.637884069997122 15.466188091796019 13.044438834662898
Au 8.385121091061153 9.525108623422476 11.306261404051684
Au 15.956164907233441 14.013578548603453 14.256171253783846
Au 13.66226684845389 12.854494109093626 13.127431379298597
Au 7.094304913609277 13.858041715491074 11.147087274080777
Au 15.092691588623785 7.982550174074504 11.557117316061891
Au 17.20748321266463 11.577356036107815 13.769283065387809
Au 17.515536524022775 9.661209898416253 11.8277479080389
Au 15.03658397274843 10.812133305544734 11.547560326173418
Au 7.1105731458376225 11.416406550974813 9.792349194964778
Au 13.469829795655007 9.283859823190241 9.296153152954613
Au 11.160837632606702 13.961803620932844 12.031067538874447
Au 10.696108396772535 9.413114619911013 9.723542749330893
Au 9.807247475148252 12.132631749511216 10.451351378162363
Au 16.206580401605073 9.226958940395134 9.346863450865069
Au 17.538187675584435 13.531078583395526 11.891792306859717
Au 7.971109646466876 13.724042809763237 8.526857315729997
Au 13.36448428073563 15.648408353849547 12.717243482510835
Au 12.54340883826702 11.786046993754432 10.8060786778935
Au 14.87007168457133 13.471308364648616 10.816548691146616
Au 9.246414808081008 15.418944808723149 10.284241218376986
Au 17.314812306576478 11.682633487618226 9.872966473773968
Au 10.870744920200462 16.79178745787938 12.156908226082543
Au 16.059886320095043 15.815930939802668 12.165400223009204
Au 14.897957728494305 11.5553607775482 8.432409866402173
Au 9.312667971160895 11.204483768730304 7.964502363360273
Au 11.936676363495602 15.781665263310376 9.835085718772488
Au 10.674263347801967 13.825582779067467 8.234489819339892
Au 16.589144878214793 14.140024858241274 8.935704704742275
Au 12.101140737809201 11.408972475743976 8.029531492939293
Au 14.637448469628767 16.024893361973664 9.835432916070515
Au 13.412052917960672 13.885749494825864 8.436127410357212
