51
Energy = -137.71246437 eV
Au 16.67036025476159 9.98258702542723 8.783324246263772
Au 17.327568311859046 12.454542557926668 9.729947866643693
Au 17.003158354996238 10.372919962726318 11.551618339929886
Au 16.89930268038296 14.952039438399126 10.692934052606114
Au 16.787848832436335 12.948457285223633 12.630830411200693
Au 15.078361839400909 15.176489205920843 12.789077690312954
Au 16.24673720357122 10.863312387910174 14.322608831761329
Au 15.894268061523503 8.400717869724243 13.083933086988589
Au 14.962458041805533 13.304758158429074 14.800062283466517
Au 14.425446338291868 11.156508951718596 16.394533327358197
Au 15.310370095278344 8.305076295348751 10.421216818892747
Au 15.151141857760193 12.064615944438774 7.872307674580859
Au 14.700336227507016 13.06241043480727 10.507540185116746
Au 14.398678411811964 15.925002498247709 10.129336151969257
Au 14.250097494142103 10.906921661507765 12.309517895945689
Au 12.815714351936924 13.434968832155073 12.529543875646988
Au 12.615613377402758 16.373507760220104 12.189987565716617
Au 13.776570280759758 9.183683657030317 14.645858846458806
Au 13.277805751161853 7.8685535521003205 12.291257786453029
Au 11.590651276915215 11.277746323448516 13.800159617704898
Au 13.555160283391405 14.260455965409292 8.109468108193026
Au 12.970811440330431 15.228669440973599 14.74510701900273
Au 12.346442604558352 12.947238749825537 16.14067518875113
Au 11.790485474839958 10.173188056674869 16.36233373280207
Au 12.828505671641558 7.335751322862051 9.664414312498169
Au 10.930350072323435 17.028245325219313 14.275483433443508
Au 11.193856678343574 8.443562901427459 13.969395847932505
Au 13.94598024749163 9.561610642894976 8.363283369438637
Au 11.678482349860506 15.681091301112588 9.668827363261467
Au 10.273548842414359 14.647062202226538 15.5226804453358
Au 12.33927327558147 11.60298334634258 10.4998819094479
Au 9.65499410159449 12.026007878938755 15.963158263004056
Au 12.39782475394462 11.72097485228336 7.693049712177295
Au 9.899509609342116 16.154846265996284 11.752304720112926
Au 10.632266621882437 7.92666854641282 11.265147055258835
Au 9.965379890907927 10.834617868041459 11.700526051959692
Au 9.249016351204943 9.359472508148848 15.65190717495817
Au 10.050099092407061 13.374249630885352 12.727304137542184
Au 10.872919805934712 14.017512741914356 7.608030180731437
Au 11.214275119310127 9.450642826214116 8.969962076803814
Au 8.373999941130759 16.125250302220394 14.082390559437048
Au 9.78687917294667 11.781214397934892 8.855844064900786
Au 8.607267161610716 8.628314446002763 13.01352655667739
Au 7.7783413388510825 13.519462142403489 14.676672967524777
Au 9.23486299251306 14.336751219634005 9.780456633789807
Au 7.39033939458336 10.809059416397057 14.400432776504367
Au 8.52273862930171 9.416980882897427 9.92280234169099
Au 7.582029046802523 14.574192850953667 11.955594647306286
Au 7.591869858716852 12.192306159997436 10.443088612889724
Au 6.021504669183046 12.499050414024468 12.741418097128578
Au 6.605634470532535 9.988336986282764 11.787927281286045
