53
Energy = -143.68005272 eV
Au 17.35130955381221 12.043661549304213 9.977552708693134
Au 18.51901378014362 14.18230979880988 11.218268285503308
Au 17.68753260178579 12.034295621917366 12.745417837929715
Au 16.51935959666877 9.743491159008174 11.32798618427541
Au 15.949812742234279 12.578792790493004 14.905863001544608
Au 16.539364340098384 14.601190627547798 13.07467127097777
Au 15.685634303211053 13.597038908913254 8.33455792965585
Au 16.583154739146877 9.990793168134616 14.106601425475068
Au 14.820524331404979 13.191637502007593 10.990441741646633
Au 15.022093587033837 10.920298910964283 9.142106731177847
Au 16.281254123108273 15.497365007095166 10.329946220080249
Au 14.635587724373295 8.289331189833792 13.220493554235093
Au 11.726919124821777 7.540833531568987 9.428065859599144
Au 14.144088174957735 10.391152335371826 15.25240092294819
Au 14.13111691876637 8.590061195419397 10.425472844244258
Au 13.471737193074532 13.432716777137836 13.3484895795702
Au 14.74942732711497 15.225992724380031 15.033581479197988
Au 13.675114658250179 12.872908910773686 16.400750807868466
Au 12.510657993382967 10.072904938084031 8.5158950670697
Au 12.439619121921915 7.071107613010293 12.116302800110233
Au 14.300756506383097 16.051712682692457 12.163209317612182
Au 13.652220075475482 15.346989898568479 9.392212519859553
Au 12.021963537838513 8.76577787065951 14.346819336506295
Au 13.065338704422631 12.8308406568084 8.096745829111539
Au 14.182676493306865 10.899071265229441 12.358558072827222
Au 12.23350493021609 12.059642978311427 10.65307199218681
Au 12.59853082618327 15.439177170305845 16.766891807817704
Au 11.569919329662305 10.886816705523389 16.13541416856045
Au 9.029386693323543 8.047347671218386 10.315861456505287
Au 9.966235115732127 9.144744905409182 7.958194721299043
Au 11.117941788930006 13.702675891044779 14.969554556412369
Au 11.303312707150505 9.544252556743505 11.338249193004907
Au 12.303558045486902 16.265994707605344 14.002725511122367
Au 11.202286251074774 13.155484787132716 17.706332097063193
Au 11.515419772747236 11.412698711826307 13.388865483656428
Au 9.829016247568742 7.715729129370016 12.92345677876238
Au 11.052239464150093 14.474794574534092 9.105127631865118
Au 10.89922910735929 14.005853843782859 12.218683913195244
Au 11.77242327672758 16.458456408125443 11.184900633026523
Au 9.366790662286464 9.876092234086606 14.617341418671197
Au 10.375326296089087 11.895473518375418 8.29748212961318
Au 7.788368714217229 9.535161346445516 12.283084176915644
Au 8.085297094999051 10.53574128928493 9.349962439525916
Au 9.05122303517316 12.11615002671032 16.237852605969472
Au 9.512698726317346 11.696010873084596 11.496921998597417
Au 10.158281110315036 16.274676008877993 15.82125838021292
Au 8.290102294712508 14.440669316696196 14.900291657664429
Au 9.5733148044498 16.26626032931926 13.144314550647744
Au 7.593565927197274 11.930143691302831 13.902673256840982
Au 9.148896956096616 15.879492408148165 10.473457433036456
Au 8.398979002799603 13.405946379770425 9.51249636951609
Au 6.668646145121744 11.895018304280736 11.257631080988922
Au 7.776394507853749 14.21140505324982 12.210782591539928
