53
Energy = -142.9759272 eV
Au 14.678120771246942 14.649203651134018 16.54964999390179
Au 12.325688846862963 13.16067244843997 16.342955295822254
Au 14.776620533906938 11.924033049667917 16.720309259998047
Au 14.909274250768421 9.237101854192762 16.86372891018168
Au 10.048960761351674 11.612095315550087 15.94988169008859
Au 12.47691313475963 15.608534147683198 15.030548337173443
Au 12.351876793808676 10.447214717024893 16.903299184643185
Au 10.123096729237549 14.251490946854238 15.071388980399805
Au 15.038229685006394 16.03865641584051 14.202854679468828
Au 14.787691796625019 13.150110010553734 14.200945189618682
Au 14.960945862216223 10.276441902355735 14.297644778069658
Au 12.517438213339938 17.263796112932706 12.774994565849687
Au 12.941835594141718 8.24733213625342 15.319145346012572
Au 11.98102127119926 12.500811285897862 13.569236231575463
Au 7.648773343139948 13.11345336006475 14.99169825125023
Au 10.15679625376147 16.813621370310862 14.02717297249763
Au 7.878955549636544 10.395359568202172 14.769747071006616
Au 8.493616450515372 14.892660187754084 12.89672841576247
Au 13.308193770580893 14.494878869924074 12.097377966766043
Au 16.115426865493404 14.598949939287147 11.985202833204914
Au 15.748729276180297 11.857049467163186 12.00099452820207
Au 10.248717078553025 8.811782920923179 16.030577155707007
Au 15.010750412518856 17.16336376613665 11.744583374590599
Au 9.148076461206276 12.144282527515523 12.898525953213806
Au 15.835257164455614 9.104498471691809 11.861287926733782
Au 11.173392927268951 7.0422826228109745 13.660573739609356
Au 8.440474931028552 14.720292384426061 10.164328528512643
Au 15.530375080402143 15.860657294888526 9.473434110149979
Au 13.226856460757528 10.441109976760925 12.139516025460862
Au 13.824626098306036 7.6029454760704125 12.845921032202979
Au 12.827964435795932 16.616631312246184 10.054420348165687
Au 16.164643071763773 13.163481552069594 9.625261398133425
Au 10.915388294088915 9.878961932013953 13.59230155974017
Au 10.295771322861492 16.45375647939489 11.27457711517003
Au 10.823268577467674 13.637844570067932 11.21814881159127
Au 13.070459903195626 12.453328021464118 10.163371396878572
Au 8.242369278207835 11.889659076665327 10.203904891263758
Au 15.260930259848232 10.543223995752292 9.543358691712232
Au 8.578181303696592 7.921590051633116 13.958133077630526
Au 16.025338896153862 14.491240942606783 7.175865513656347
Au 10.717893173710939 10.66160876214791 10.959538822305781
Au 8.026889597165681 9.784314604617272 11.930896786428217
Au 12.053338832656289 6.488017740910791 11.076920403843271
Au 13.795115884934468 8.300453474764605 10.046182891737462
Au 8.97978921925107 13.26151330671043 7.92238103287677
Au 13.386045903312066 14.967570267281715 7.900561522283402
Au 10.810451101046338 15.24601131088637 8.745086940875844
Au 14.412205658051835 12.327170406504155 7.547142853785133
Au 9.54544080694621 7.580720643191692 11.398141519538154
Au 10.012682372006223 10.69021156031947 8.260809547232727
Au 12.78119806437621 10.244238925497369 8.24207372970546
Au 11.678287325029567 12.818637081350692 7.572435904849657
Au 11.079493459056971 8.3879989223572 9.294833962289255
