55
Energy = -148.88820509 eV
Au 17.025174330406113 10.800458983351094 13.893503209716881
Au 16.58770288480482 11.583905330950792 11.109371591408381
Au 16.823763108575385 13.437509854825413 13.237119333607202
Au 15.820159160365753 15.58954501235884 11.827479104079385
Au 15.779246942104688 12.623283102087568 15.703025271271441
Au 15.954039213607253 13.847013773925331 9.627497946846265
Au 14.999769783649116 8.27764533814139 10.999062045199562
Au 15.406877223324159 11.369203064172183 8.513193854629854
Au 15.127057189907138 9.9265038694669 15.790963699306246
Au 14.988464545902547 15.160664414540392 14.45553400125416
Au 14.129717191622177 8.730074720094477 8.354087830808263
Au 14.518137211976077 10.586245032456217 12.77145975447133
Au 13.824462262173729 14.27026997734575 16.819006991828964
Au 14.272017663893497 13.231231371346961 11.790732450538398
Au 13.402622681043384 10.537937791889057 10.240091705922511
Au 13.84774426973653 15.675938371279216 9.867399647393722
Au 12.405882305754437 7.6567980205327615 10.421696189933687
Au 13.799492439661785 13.666000958828354 7.903808572609006
Au 13.241449430439447 11.601649138074466 17.038448364276167
Au 13.03655047735052 7.746688127261505 13.118963568416913
Au 13.32752099173815 16.579012042342153 12.74015751967583
Au 13.245003229307047 12.820314044294253 14.424879188841699
Au 15.727279380250145 8.284179079643053 13.650985626873018
Au 12.821754438956601 11.005277377626685 7.333472171518755
Au 12.824622408208558 8.896459862381455 16.934653729518995
Au 12.400105181170293 10.107351398593353 14.472023299870814
Au 12.226826120546129 15.729932929811586 15.13648195834033
Au 11.938984463959441 11.684537746046097 12.260313697542562
Au 11.269698449568335 8.762880482030253 8.055257239976175
Au 11.13571035282697 13.46084345377941 16.64214667435133
Au 11.783454411286186 14.518227211615125 11.492284538021478
Au 11.675678984205582 12.587145642152722 9.461724848050556
Au 10.37712990438254 8.305043382899914 12.709830762577596
Au 10.521384447262632 10.762594484831943 16.535414701920132
Au 10.657094667739326 8.18655549101391 15.404893861826224
Au 11.604082183948467 17.219698404411275 10.641800293469784
Au 10.598443965770784 13.509374194369682 13.787816843598561
Au 11.356073766860671 15.387559128454585 8.596557587496902
Au 10.585651367389943 10.110027142145324 10.44768678855397
Au 11.304912307194463 13.32504245823733 6.759435801344724
Au 8.906150456895983 10.087740449885741 14.300653352478397
Au 10.45479580776538 16.53939277516446 13.112670876094423
Au 9.84362296286522 11.169084646272736 7.588730514449634
Au 9.430226561259373 15.368515981717264 15.510059651398418
Au 9.539966302089498 12.677787936836488 11.278860398209922
Au 9.73915903885279 7.344293196464634 10.25070325790137
Au 8.652692709676312 12.570676510378247 15.510371404505271
Au 8.114546354134495 9.705461520706658 11.630599760540726
Au 9.252001150575056 15.739035728877136 10.528734955478075
Au 9.041441673077706 13.775592089181963 8.495450767502032
Au 7.621788665075742 11.575783039391586 9.508638400151709
Au 8.202886280451368 14.883793608741877 13.068217005194295
Au 7.470607281222017 12.110971855822276 12.992295178276622
Au 7.1266454759745415 13.965592112952725 10.71837604332561
Au 8.4382094049449 9.132137801729256 8.741857631336948
