54
Energy = -146.49458371 eV
Au 15.422805360462105 9.153990453462752 8.867120551454159
Au 17.150089242627143 12.218824815020271 13.216453079034801
Au 16.612701598748586 10.556562675356176 11.019692244749255
Au 15.940536845665505 11.813347602049962 8.50604658906926
Au 17.069782376581443 13.276641948731895 10.643964422999309
Au 13.25881737043854 10.474157593279337 7.5885580101026475
Au 13.938306341591122 13.039950530514295 7.034730853804487
Au 12.819735974296536 8.386443742670771 9.329842413103863
Au 14.823537343127777 8.433607418614672 11.477201891304633
Au 15.547081855272939 9.944049897792793 13.686146389715615
Au 15.597199210426291 14.576214520660617 8.641408037309805
Au 13.834309979458585 11.03924783629018 10.35621606626966
Au 12.724777011765948 6.6351854002090045 11.423320054435479
Au 10.614919402203157 9.919594503633219 8.433698273011627
Au 15.105553425920878 12.379601303317342 15.085137123110998
Au 14.712664875235923 12.92480763624773 12.233426912311247
Au 15.569729733106547 15.543567595000338 11.246779463211116
Au 11.21891652916324 12.392969118846413 7.298233151215837
Au 13.194582811196332 13.692436993924753 9.907228443830983
Au 12.177207587668724 15.050626109992878 7.550702809595829
Au 13.546943115251215 9.898723254461043 15.757145418641814
Au 13.320964129703995 8.00635404432025 13.783625415493896
Au 14.83092315539002 15.21523163507928 13.843714710869454
Au 11.141269291086536 10.838648694485132 10.99076396445965
Au 12.988143460079248 10.786754729663029 13.105975082220052
Au 9.401732016302523 12.391848854951213 12.80625040100941
Au 13.68941026603381 16.4715143277846 9.373862925183658
Au 8.436984608753995 10.01027623649654 10.433913980736119
Au 10.428020997696082 8.059651265528892 10.643148381956658
Au 8.673711764185452 11.959729111438449 8.442449957077246
Au 13.245892665965215 12.181107183833767 17.156259052981838
Au 8.355037275844728 8.08615667846421 12.491320789300035
Au 10.738526868323701 6.977894343042589 13.267916298612741
Au 11.063199019271726 10.490366910607168 17.194056200052398
Au 11.315570911261458 12.123034392750133 14.918329974810774
Au 9.47769361406828 14.597779676400327 7.850780599280888
Au 10.318165612559334 9.824151294371356 13.426927364205904
Au 10.953046084967395 16.11432743832337 9.855603535119299
Au 12.87202307109928 16.093652163272566 11.972958230173077
Au 10.412456943453131 13.328550302667502 10.154351604204386
Au 11.990116137174837 13.287284432169079 12.447881910900842
Au 7.340989783089462 12.496295791843274 10.855924561795153
Au 14.04415115981888 14.660149297486855 16.34905754996772
Au 11.162441820424723 8.311081661092272 15.606869271694734
Au 12.050149812070106 15.349768854611858 14.505408797181154
Au 7.286936432724738 10.51912501214899 13.014188188473316
Au 10.11864720430998 15.513885300412612 12.455637316138962
Au 9.192652385324193 12.508724779219015 16.92433188643366
Au 8.267717055409387 15.143258016807863 10.3125559732023
Au 7.3724065594520765 12.527195327218374 14.855202818912089
Au 11.349128175893632 14.19773298774761 16.927090391281734
Au 8.677420987572756 10.084127683417321 15.62438108568222
Au 7.496859916668273 14.470371588952295 12.87012923275148
Au 9.384823537545284 14.519376690143057 14.96709512974907
