55
Energy = -149.69341291 eV
Au 8.538127475463787 11.515906205124185 10.867236106653683
Au 17.88011132414531 14.178387069353983 12.643498557370696
Au 15.572505715877128 9.808457394238419 15.008580343377467
Au 11.39529317063938 8.479024880916173 13.268632910424662
Au 15.842111743296337 14.21352826799041 14.670469585444676
Au 11.529719322021485 11.271426772644888 17.25796271803767
Au 13.710331409470179 12.92399289349844 10.545017782625845
Au 12.91042850291458 15.86423950241331 17.28272872371105
Au 15.94457395550925 9.77126105714026 12.157405792481946
Au 11.089290406274216 12.249290470836147 11.964965192036608
Au 10.620132510911398 11.902247902498509 9.088980421728627
Au 12.056460236839369 11.075339578496303 14.453835279768759
Au 8.615840770914431 14.536818280306656 15.519440483779864
Au 8.469636875814901 13.011338412375856 13.187261875156505
Au 9.221782948515319 11.859570336447641 15.680446114892588
Au 13.171005055957435 17.528257623777673 10.811306077289263
Au 10.571459100363318 16.671695814578104 10.48205946283473
Au 17.033020788777865 14.950609164395324 10.177727234428882
Au 11.540970883277696 17.567138201496448 13.061481061408017
Au 14.116936153438076 8.104178224496128 13.402599610838276
Au 15.015860794855007 15.034695520106874 12.11623674527253
Au 12.997304601372797 8.831554693075953 15.805184386784124
Au 10.25157629715016 9.309749586974586 15.691663972533357
Au 13.295078673911933 15.55397023237246 14.366768262533364
Au 17.300434349383178 11.545553741688913 13.698878621668145
Au 16.82845697144487 12.176802317674968 11.02129604924824
Au 10.634753336405533 16.384189692568157 15.570140263495682
Au 13.516259881559415 13.124500548444358 15.899898689629802
Au 13.837709696015104 12.806577682203374 13.239762867585773
Au 14.25545147255922 10.80397199891041 17.294569738563027
Au 10.804697370571162 14.004580663047289 17.218701341650142
Au 11.120027453553256 13.729315189450398 14.376653853705445
Au 18.572375971325275 13.464898656157704 15.192093143022435
Au 16.892807921883517 16.714148456780855 13.568298872892944
Au 15.922213587551726 17.392056946744923 11.020559356553507
Au 15.415380520324549 14.593763238378338 17.51640769391989
Au 15.185696271753805 17.07073104046903 15.922278540712368
Au 14.390117895167457 18.03650147076113 13.295900428909512
Au 11.709293515008012 14.533205697016509 8.955722680844055
Au 13.161108736778425 10.454444575804532 11.89443139157916
Au 12.710698849643215 18.129080637246624 15.538041988564062
Au 12.468754730514002 9.815560867408374 8.979936866835653
Au 9.196444369645452 10.272196277348264 13.288377523003764
Au 16.46427551241625 12.100136749036725 16.40637847081364
Au 15.071429447493959 10.598096228701895 9.522097297923441
Au 14.327044014963112 15.516335460945392 9.314647785893968
Au 13.191163982087621 13.225887994313217 18.56527308571429
Au 13.123320162093576 12.333849724048005 7.923548183554458
Au 12.158760510111136 14.891144845994637 11.838832677421545
Au 17.569301259378456 15.841953448531829 16.175259819580944
Au 15.698891188090826 13.149169258880294 8.590254901298376
Au 9.529979498584119 15.640585329058714 13.000481561177088
Au 10.520641283139293 9.536537855424344 10.864483939982705
Au 14.026699239483001 8.214112338639344 10.648051823025142
Au 9.435876395672592 14.117057095078328 10.57687595212942
