50
Energy = -133.84084213 eV
Au 15.120668672527426 7.470396347358612 10.739050880446108
Au 16.00977989810412 9.167937475403484 12.626780935088894
Au 14.851810879149316 10.946921126692317 9.19400006167982
Au 16.541485393380857 11.501992856233937 11.260896086572735
Au 14.147838689576131 8.433314571033655 8.395151015557856
Au 15.066014051408564 13.54530394084015 10.178939779710214
Au 13.174895029891946 12.967872843783441 8.168541778766706
Au 13.147205893847353 10.4540902223945 6.889006643679385
Au 16.53454889562103 14.039973763511346 12.545754955416747
Au 13.024987220322965 15.365201382694918 9.538957387277396
Au 10.887613904219894 12.021095488618032 6.96348976577352
Au 16.936019538028567 11.293228903766716 14.021033778119056
Au 10.892518847996119 14.598774377243524 7.831450967886695
Au 13.733757694535292 7.6666425201686295 13.162302137834713
Au 14.96216098151038 9.42719115915976 15.117488539629178
Au 12.422501060671571 7.77073035618855 10.481251259741367
Au 13.34695264809851 10.158616232761513 11.709869104569997
Au 10.977808580107546 17.08603438879926 9.092626689096695
Au 14.412423757443097 12.293945884399628 13.056649388952831
Au 14.153301399955886 15.428735052799448 12.042441804952672
Au 9.864192135940714 8.693132465584789 10.165010389260065
Au 11.850736028338655 10.466516514550818 9.298866794883633
Au 12.42021119353665 12.832098774002723 10.956455796006647
Au 9.158578824104188 10.191652831495064 7.9470566803435
Au 14.6574225646731 14.610623689766378 14.761063073934393
Au 17.235955886864474 13.785945801850986 15.192828608571464
Au 12.14627147412072 11.248781261593072 14.168514064678998
Au 12.224565049271012 8.698552795312827 15.21146458069175
Au 11.39341497222503 16.27376531183123 11.668639344516258
Au 8.900508359287343 15.392035569968044 9.526397310668441
Au 10.982710217651906 8.138505477744783 12.77150630034754
Au 13.324244706081473 10.448907962151493 17.035630787600315
Au 9.989514001500584 13.682049636639956 11.858016215905492
Au 12.102460140118389 13.958449584919427 13.620211503186217
Au 12.83736799603338 16.658454874393623 14.113335300607488
Au 15.346150539705832 12.059623165950208 16.175134948275364
Au 8.700123150551262 12.881174782402478 8.485335367657525
Au 8.001501205661691 10.890864345488788 10.307446749765573
Au 8.289646675191653 8.980500507617938 12.37774000714279
Au 10.525106563633074 10.94856210994673 11.844719756228827
Au 9.64274574000426 9.701783343815762 14.64876971940886
Au 10.141043914764166 15.978592521161302 14.14735454271064
Au 8.326738981876646 16.04485085587434 12.069903016897175
Au 10.733728429066815 11.22127071046344 16.670282832511116
Au 12.806830990401723 13.13287500771079 16.306164078459133
Au 7.411905445555808 13.540597737047502 10.958935549426064
Au 8.044874307688751 14.135341441842188 14.040248478756668
Au 7.811786352074375 11.625708332039741 12.958236253390906
Au 8.232547664920038 11.84872579455681 15.632835919299918
Au 10.192861812845782 13.831024556048657 15.833300799791742
