55
Energy = -149.47437876 eV
Au 11.67571655876953 11.757282211413393 14.174254168380822
Au 13.164498867728097 11.719016672372561 11.688401972421971
Au 8.920639658991519 9.526183491461483 15.811402260333098
Au 7.45912928069987 9.490802605012295 13.431438174867903
Au 11.664305742011845 14.020032983105624 12.53828316050334
Au 14.4866036698721 9.554196907130846 15.769907388880178
Au 10.096560543850163 14.13437072089834 15.005383745486794
Au 14.898195368787704 9.333299477407579 10.748511846294257
Au 10.229742691547623 11.776052276499973 16.62361451418093
Au 13.083415766143366 9.50321818400268 13.31490261435747
Au 14.871087496918259 14.22341826150993 12.735582267950326
Au 13.159283820149332 11.790059965005987 16.60008920507034
Au 8.874183816349703 7.174376128890686 12.586212313208584
Au 16.024194144398216 11.780773054031814 11.733000439684975
Au 11.631318152238988 14.133100780218214 7.197498788211574
Au 14.50007650225186 7.203907752496614 12.526410523630389
Au 8.420486004451929 11.588227011686763 9.15949452333272
Au 13.137239283367768 11.752938754696556 6.839039788419332
Au 10.286980816318767 9.48514345094699 13.334329573619877
Au 9.848013343332111 9.350575489923166 8.433611695612704
Au 10.139194443771318 11.74260162474724 6.869289760455059
Au 8.45097647619278 11.925437402136149 14.410649777777225
Au 11.656324285858116 11.636974872570606 9.242309512188363
Au 8.818238567683405 13.9854251569448 7.7238990490329105
Au 11.69026187488249 6.706888748380205 12.547118284207196
Au 15.864813600669029 14.026374910240946 10.125154697317056
Au 11.640758082196786 9.517834220897416 6.283251054653769
Au 14.905053026318093 11.948262617250343 14.352038361826821
Au 10.260156095139049 13.943834949901316 10.121322513986552
Au 14.452440155147436 14.007029440828678 7.6686267702125095
Au 13.252740414499566 14.1427861627899 14.981323296988316
Au 7.424924658025171 13.99068980372554 10.19131379956055
Au 13.04422287745363 16.344254015457004 13.282009305810607
Au 15.911564026246316 9.526290821737728 13.360002238360366
Au 13.465453664215234 9.359873027188003 8.39726098013203
Au 10.274932209752592 16.33302805832325 13.29775240395099
Au 10.168573641096076 11.702154989786132 11.710929404650793
Au 11.651351266056563 7.25973705192495 7.8639575975545135
Au 11.645140977259667 16.87624710536974 10.904397487759374
Au 8.453569665980948 14.201184318083673 12.785240357483953
Au 13.037164624341763 13.958134840257552 10.094652932924646
Au 8.853213750306516 16.27718807988628 10.919624258883212
Au 11.67184628047714 9.3907506873366 10.868916130024392
Au 14.884756101224664 11.614928716889278 9.099881601935921
Au 14.439313980300115 16.302530448334483 10.888387332291526
Au 13.175658428268894 7.1135492008810335 10.140670825006556
Au 13.098879322995938 7.248369528051941 14.957748694116018
Au 10.26039348221937 16.2474428116949 8.516176106077324
Au 8.4437328938687 9.308137787420433 10.81012382693803
Au 10.324387030098698 7.235089671993217 14.990211892332061
Au 13.0130048891165 16.261337547786184 8.496374593629564
Au 7.308201178941858 11.74753346946015 11.81102098705019
Au 11.709248240523412 9.36172079210964 16.27601052588644
Au 11.68721852503625 14.027695343619945 17.260872547785407
Au 10.163437235657465 7.104523097283034 10.17292962676213
