5
Energy = -8.42421001 eV
Au 10.402164275426129 9.25257154273706 7.405565468327943
Au 10.903915948513077 8.226919153284582 9.794630049867504
Au 9.986229290675183 11.06370435167956 9.291305530670817
Au 8.327311772512973 8.906275249626761 9.220378446711509
Au 6.003425207016499 8.22523661663873 9.903869142250644
