53
Energy = -142.42402304 eV
Au 13.169236408137042 11.158404760771198 7.250532957381618
Au 13.665585892897498 9.020379773880054 9.113709120802563
Au 15.77022713324994 10.632334374737264 8.338113767479733
Au 11.073055527752972 9.204954774923655 8.325638243008166
Au 10.14756439485 8.242611004496432 10.731711818239317
Au 17.64531728290846 12.5862586729394 8.07086716467168
Au 13.371733806624931 8.115305432163781 11.71532757561175
Au 10.644978403470231 11.914008029390864 7.9949029381058665
Au 15.032059333643117 13.352476309242725 7.727642123751821
Au 15.543001922375382 9.676017863683738 11.080580439142091
Au 13.772180526384677 11.735704858964276 9.944910686162707
Au 8.453185436624622 10.41212088138628 11.59171378469
Au 8.874949778324034 12.578718284180717 10.045457697430622
Au 17.142098157314678 11.85712394542317 10.699046415518943
Au 11.24379918395574 6.989134839190012 13.027503740130008
Au 9.898899825925037 14.583916446730138 8.422789232330297
Au 13.119949466518733 8.51012812075176 14.479166003841545
Au 11.165622054140458 10.850649367405413 10.649891732003248
Au 16.141660408135817 11.414791791056569 13.16418773842496
Au 12.458282171913503 13.974765153402673 7.4958562472427035
Au 16.59555246088149 14.410800817984704 9.83461857597438
Au 8.626012072467736 8.089824089527312 13.09988395095349
Au 13.370929204331722 10.852040897901952 12.614011113354822
Au 10.869059338166803 9.788631740503655 13.244740227056301
Au 14.320906659381656 13.766418856589656 11.654242046575327
Au 11.806212222684588 13.580335627577366 10.27269323093757
Au 10.567898836591004 8.091053659616723 15.52576536915933
Au 16.85232324070512 14.070344481390736 12.683978712921528
Au 14.560114982106914 10.697470347601202 15.249658584133819
Au 14.032571466184255 15.564680855861065 9.274815766889175
Au 15.816350654048064 16.403361782705876 11.463885425550718
Au 9.363418868938918 15.08778057424647 11.218729930271559
Au 11.422396200392715 16.410896513638427 9.755466730196828
Au 10.960799989437245 12.462727724191122 13.074772982601733
Au 7.839318775014192 10.719177177250396 14.254780381671049
Au 12.197839833332965 10.135475836283712 16.56627118106693
Au 12.06642894964911 14.970570026451602 12.652319723234337
Au 15.81199656366745 13.343624412093728 15.245018950399812
Au 8.263365460916027 13.00221283192426 12.76567501582772
Au 7.832947409309235 8.35937219942984 15.699078009141243
Au 13.267658962212451 13.117949766907458 14.316613762756285
Au 14.683356550476184 15.76579872512225 13.866343820744476
Au 13.309192661985405 17.2850375448403 11.549610155188397
Au 13.73142927927386 12.484550993042937 17.125804980741254
Au 9.407218125737035 10.405925752226356 16.595519669874317
Au 10.652364360431088 17.347435895576208 12.381305614529246
Au 9.574512822486955 15.22505332498505 13.993301473085458
Au 9.089558053611114 12.930919742281448 15.457409977358745
Au 13.68718504554202 15.164520486933375 16.31917791362156
Au 10.937041603223872 12.398724225265333 17.512357949092685
Au 12.034179623052596 16.729513218815395 14.74737798500008
Au 10.686947200571108 14.998673093800717 16.462355071344607
Au 12.34450212142157 14.456088285633385 18.574660981553063
