5
Energy = -6.85870048 eV
Au 15.414571700063442 12.232078330826363 11.27751882148102
Au 14.588396843307297 13.037549220486126 13.505510263405801
Au 13.762959595920195 0.15269880587881776 0.14263239132805028
Au 11.196646749156368 18.0068926208005 0.013782051035302717
Au 12.404079489453691 16.554399398336045 1.8077128860972127
