50
Energy = -134.27924049 eV
Au 14.631666042381111 13.290472818069105 16.132457368290915
Au 11.963779063269534 12.615561777181638 16.316416342774936
Au 9.402096356258506 11.739919737213878 16.2009793156399
Au 12.745811415463951 15.014751944089396 15.101763446361756
Au 14.095613866127447 10.593717352590819 16.28052132107488
Au 7.714215047432672 10.614876173330009 14.06202328132679
Au 10.070948516720149 14.441327876274515 15.214155924091362
Au 15.991781864244972 11.522903950668296 14.45214503782052
Au 14.9852002024567 13.892589131771931 13.468493865466163
Au 7.557631543399618 13.287161757707715 14.824656293727479
Au 13.690239543833766 16.192939514970977 12.829704799854714
Au 12.671645556943009 8.614543374993657 15.117646798758404
Au 10.911885377821616 16.24247370970808 13.216723478373082
Au 15.32275922927212 8.79684474827021 14.412930217016854
Au 10.030859324592907 9.380261988674429 14.973005345442896
Au 12.779492167394613 11.281867149180721 13.964164243385119
Au 10.881105076846822 7.0395932368743965 13.77234549149272
Au 13.457291122672059 7.140488666604075 12.850745971892945
Au 10.151223365279376 12.004491241203093 13.600068945740844
Au 15.976384861114692 12.13192148843353 11.601919116275772
Au 12.2257127939929 13.653487422512635 12.466517745346309
Au 17.241929649328622 9.905015627592247 12.677457481600198
Au 6.876511692650229 12.696904270300266 12.26567959018133
Au 14.029816866442754 9.869620607163043 12.0117196269533
Au 8.34488540769175 15.210338229946917 13.066136250836278
Au 11.51314335601447 11.137170704625955 11.348516222747502
Au 15.962284927345351 7.586827516420033 11.923688210032877
Au 8.892954115153897 8.534939742249495 12.563608154835531
Au 6.964908144081658 10.072380269828114 11.417662119606709
Au 9.659597590689199 13.340272570409939 11.260850599726659
Au 12.171072527093365 16.40489907324166 10.650866814014353
Au 13.792075805326006 11.634471653279027 9.866601512636423
Au 7.229775938577257 14.74758258110684 10.499764951268688
Au 14.424105798889721 14.334059857731015 10.752372147606039
Au 11.396796916614411 8.19950341488525 11.293829755791053
Au 9.448858479513735 16.36194804483977 10.794266538879244
Au 9.368161505871681 9.708593203815765 10.087890977783196
Au 13.919786951183779 7.854626203841912 10.038619421595254
Au 11.873733771428904 13.746099904263408 9.623394369724187
Au 16.165625515938924 11.943989919208121 8.547818842106182
Au 16.272217742662836 9.653887019782841 10.076492699938353
Au 7.7215856265883245 12.018613111664335 9.65188139103793
Au 9.04411262866584 14.17939247438569 8.517434635548382
Au 10.768459442576777 16.25200940354834 8.334556267924196
Au 11.900518597606741 9.529701192381522 8.909544058448446
Au 14.500088723565007 9.566821628025059 7.9345511778169024
Au 10.196866813798117 11.664268566083937 8.32085021309638
Au 14.129802444662594 13.704551920152994 7.9254767254966865
Au 11.412522939568435 13.9051442326491 6.915708875298205
Au 12.702014950767932 11.45569694562478 7.06840043065894
