54
Energy = -141.36483656 eV
Au 15.117370870674927 17.378391539868062 9.325040198718272
Au 16.31703379707376 12.053292663542747 13.208978753913744
Au 10.905431897345865 15.971932413524177 8.154178712779009
Au 15.205444498633657 16.108037109475408 14.207831486578474
Au 11.012846344562544 9.88763727809804 12.774173563682053
Au 17.029937082963706 16.332711896300655 16.35022030116569
Au 11.924364875626374 10.478015267378368 10.21986118540432
Au 9.046923723040452 14.078597365694554 12.968848306727383
Au 13.932314187942037 18.661646903370166 13.903101333752323
Au 9.826098330129222 11.998958541972158 11.206212184974207
Au 9.083706268238295 11.5010775597044 13.814058743701773
Au 11.143151452596086 15.36144430536545 17.34679588543504
Au 19.429975845788462 13.600982309556683 19.446518930827693
Au 15.273992776181277 14.531280289814507 8.566712136232345
Au 16.715923769455863 18.387070553614688 14.433546110243395
Au 10.842787119942617 17.416907587283376 10.474835328961426
Au 17.593826929720883 13.593337205307353 17.49724729570726
Au 10.051882733521028 13.436697830684619 15.484610040471242
Au 13.749624261566305 11.081467764047602 12.50463356773924
Au 15.812765150874132 13.745105246744766 15.479865336459921
Au 15.66811380084763 11.668658529948253 17.382619614457177
Au 12.20048057170888 14.139461724375666 19.473546751561365
Au 17.240017463422593 10.929035218344087 10.779758463253236
Au 13.16253032200861 9.115927460551775 14.446279291819302
Au 12.96866207971741 15.565140398294341 9.996146310361196
Au 13.304923127890046 13.06974206285481 21.612258376470816
Au 15.98078265211857 18.232415061687497 11.841750740468294
Au 12.852769488672106 14.731326009588733 15.313702653092056
Au 13.300994887813902 8.484112678227325 11.750345017590536
Au 11.065662022437897 10.69535332919571 15.464028666054727
Au 9.984513824429033 14.682370628664762 10.432660680268896
Au 15.233757442897412 12.91056787667359 10.7525554366624
Au 19.759890688975865 9.935359174484592 15.29972142382939
Au 13.318012316374693 18.30375621019302 11.238940237335344
Au 14.634747852788019 10.183561403640669 9.96213667547177
Au 9.035798800776123 16.739744021258808 12.354846445057637
Au 18.86760713547007 15.840948270586185 18.17254900853481
Au 13.683427770756152 11.736919941567804 19.357188800626197
Au 15.421094034553875 15.596205535791613 11.41743178748835
Au 11.365641966126791 18.077442888539284 13.180076310697652
Au 17.74747000003185 11.605031589865094 15.603053911108354
Au 13.523458653126196 16.18520211286125 7.348052270030247
Au 13.220850841915155 10.085908596122646 17.07495881436659
Au 14.794028458549246 17.904914125550604 16.45168317776208
Au 13.591231933548467 11.978829617302408 15.104927738377057
Au 11.859917192868583 15.326685079776807 12.62364635470848
Au 12.344796130640468 13.083470932395725 11.001412257940675
Au 14.17242902346667 13.81894871392391 13.112071666537119
Au 18.48163640683529 10.473486419934604 13.064808794153256
Au 11.862178556802563 12.584028985694575 17.33085661531659
Au 16.130408246702647 11.910596653532071 8.39268426053001
Au 15.115279680316927 9.478482590301335 18.8796289443543
Au 12.23165820458996 17.480795296338933 15.856238622460028
Au 10.11346364221301 16.09461636785472 14.813801615050425
