5
Energy = -8.42015994 eV
Au 7.543101700629924 8.656514036608124 9.361152324652736
Au 7.989186643696657 8.943800692665723 6.630329846918398
Au 5.901725401923149 7.354038205433893 7.659933856878605
Au 8.438933054395074 6.4052667659145515 8.005800346478795
Au 10.082818199355192 8.596145196547322 8.298548419411148
