52
Energy = -140.63464563 eV
Au 14.414747641869821 11.631399237835396 17.09246989286369
Au 13.409310673499819 11.82902719576962 8.3019692627152
Au 7.725508614438712 11.356967444929655 14.351293847080566
Au 7.355196683602511 15.314610041183535 10.541885160775788
Au 17.146296426797825 12.634500411925586 13.519721739938062
Au 9.881921104157728 9.661776101388577 14.772770138948173
Au 11.126226424396334 10.296887534123197 8.10766680125854
Au 6.6271213965272 10.076972161658434 9.203191422124123
Au 6.714968621534748 12.744094087314124 9.736913969429684
Au 14.893535428878376 7.5742352163213305 13.518969897697572
Au 11.06922614132947 13.027852060437713 12.950899501580686
Au 13.623540628883536 13.708268522819559 11.840812547754942
Au 13.431929764644108 15.177218269085294 14.346940195600308
Au 8.850893342101093 8.852035487200286 8.149468534089676
Au 17.377073345065174 14.020135437879944 11.150454730800961
Au 10.969033949261037 15.79665815556276 7.572365406518262
Au 15.4146643452633 13.24153654971497 9.41682471668759
Au 12.520113744295557 13.288605315889026 16.14676068569576
Au 10.99475374683075 13.095939575541864 8.080278513776852
Au 12.33753536109139 8.14515865453561 14.501605068062798
Au 16.479658890044004 9.833347937038429 13.401814191016475
Au 11.80103156948203 15.777695622205345 12.235378403415652
Au 10.73143402513463 14.975415200702539 14.885531912194253
Au 12.831287453639996 14.80409703144891 9.402523483723288
Au 15.183785885019622 15.707525164110926 10.61585253101379
Au 8.55083959136742 14.371310144081505 8.190335968689038
Au 12.124686627881673 10.46310709412996 16.142898349876965
Au 8.636417175233861 11.598848031042179 7.9734408383300615
Au 15.889720368725998 15.110118856101254 13.220051226408078
Au 16.7459522194692 11.1722899944777 15.770733987762924
Au 9.323326391933932 13.117775316829707 10.712608989475092
Au 8.123291014413226 14.090850442140015 14.859188935643644
Au 10.104983082809788 15.856728850737383 10.125064496428118
Au 10.316604302362373 8.041759791754284 12.57969221946404
Au 11.701446886266856 11.790935338895538 10.538307587263755
Au 6.71009536274501 10.698722780938043 11.872271248842482
Au 10.836481164153899 8.062326502217573 9.862565840129697
Au 14.62748869052684 9.31591591909828 15.586569759507821
Au 15.590110324892072 8.658267711575235 11.041838479553306
Au 12.128682837002877 10.421251622234216 12.965978446449325
Au 9.483601265003006 10.782326674830284 12.181197436003227
Au 14.315700895505763 11.096140401712853 11.337003355948475
Au 9.070053750916623 15.439568610445296 12.675409101817797
Au 17.150938317880726 11.254893057631461 11.122541860243325
Au 12.927003247348846 7.67486357679257 11.656154184186724
Au 15.754266556526796 10.502656411044178 8.910159504380625
Au 8.261316678332866 8.578205727740212 10.894593527404004
Au 9.99284512121346 12.262755663266033 15.721851324315892
Au 6.947323083425389 13.365691434976883 12.505920434272527
Au 15.47312386234427 13.757311904394353 15.61339473419733
Au 14.193175821442997 11.928575832998414 13.983837738648829
Au 13.339065537052036 9.133257142987823 9.337873993133314
