54
Energy = -146.76915784 eV
Au 17.53861681942061 15.857514357147886 11.494092619474122
Au 15.594019806427777 15.245900692219228 9.283045686741003
Au 13.055271383989343 16.370110009551723 9.746027206974908
Au 14.764790836739799 17.38844946351245 13.96133510257259
Au 10.777470280196363 14.759381463703924 9.817904357489637
Au 15.226328661961421 17.22048632545899 11.248546321861078
Au 12.671917207553662 17.707197217904735 12.136988658864002
Au 16.730594457835917 15.545684172757841 14.101497399376816
Au 17.66525635421544 13.520061207221174 10.068549228569646
Au 17.915664227768794 13.343259545573641 12.89211873520578
Au 13.23930126249263 14.00846198377967 8.419333013233148
Au 12.243809639673957 16.48922613377563 14.583609812397201
Au 15.334781983062436 14.084008234007824 11.87169397773018
Au 8.435263915006633 14.440823996648207 11.41585851857438
Au 10.576357493723611 12.592642110607317 11.740736173122901
Au 8.852888251118895 12.52418687714465 9.515716653063635
Au 15.375590600390698 12.369018679484885 9.175550674339442
Au 10.332099520305489 16.28766077611368 12.313062133437867
Au 10.882347070308658 12.885566651434766 7.710085240199303
Au 14.51939353292895 15.29745825537194 15.780945441509811
Au 12.645961697766166 14.776184477149508 12.089708923412074
Au 7.723672141117703 16.327117180504054 13.276784516840804
Au 13.877999883821222 13.052986702150449 13.97365728030522
Au 16.904211706804443 11.190495746534944 11.30586610112338
Au 9.663512575230783 15.701708821905425 15.13212006268089
Au 12.957780078367364 11.204831998852955 8.50064248789153
Au 13.446166207878449 12.15474466856594 11.338867477335349
Au 17.359101409960754 10.936590786197192 14.018753713615256
Au 16.330422852874452 13.12186127783514 15.356680553752987
Au 10.316777432842132 10.296252864822511 8.511502491593008
Au 14.78226164241169 9.830627318441332 10.163899482862204
Au 15.562093810392138 9.277366856628387 12.83630805220022
Au 13.933514120832456 12.75824196355826 16.78357405391722
Au 11.878525808411721 14.742555960478091 16.684723649604855
Au 11.139658174250105 13.550442989973424 14.24798605461279
Au 11.60365422943143 10.126055558046431 11.080552008330512
Au 7.961923518452653 13.683492201266358 14.100261990260227
Au 8.035429625048016 9.970929742606188 10.081913730485661
Au 12.516640125872891 8.519109586602726 9.043772974696914
Au 7.766650766388418 11.762717466811033 12.106565062194784
Au 11.911059352296126 10.983780998897908 13.64159498792271
Au 14.957694380835116 10.604187321615312 15.25604202259535
Au 11.544329530355038 12.398189161689627 18.07391124707129
Au 8.901902464738665 9.218657260253377 12.624284974665539
Au 9.879140222427553 8.00673147542864 10.206115051264323
Au 8.591233900283221 11.084759765586636 14.66098745831237
Au 13.743268858410008 7.721309125380603 11.634082327861957
Au 13.239737382856495 8.60529000739928 14.265713975648662
Au 9.391032688590926 13.204438141069225 16.450123848793524
Au 9.773948547500291 10.542016073440399 17.06749933269673
Au 11.90220679005928 6.171695554359032 10.391522326202985
Au 11.157428755541805 7.56840799788109 12.699149915980376
Au 12.445502993813829 10.35528688719052 16.343123230693262
Au 10.44134079489697 8.931723622264343 14.95185817061566
