51
Energy = -137.18315691 eV
Au 15.28127750012021 9.373681393490532 12.257875187067038
Au 13.3134359519945 11.444058043278151 10.643919492354636
Au 12.759929014150334 11.270722150815939 16.151958522742685
Au 7.410835442891551 12.354091893379541 10.537454604995624
Au 14.357297315496401 13.320804436055194 15.398075713209295
Au 13.901130670741157 9.134344297486406 14.822887344063112
Au 12.317340985950652 13.744830034867567 12.143909538608602
Au 11.018909658224878 9.184266179779366 15.763494714648303
Au 10.759154734723278 16.13465742214546 14.306645026378902
Au 16.07632803560586 11.90775573112619 11.388319484489678
Au 8.697831144512493 10.160723442997929 14.644347695017814
Au 9.780974219453228 8.029618543715019 13.322338010255663
Au 9.502900156352679 14.300184850498178 12.2508074580468
Au 12.06277772328608 12.847451660010613 8.37353919071387
Au 16.217023914564276 14.519756761388676 10.42883399394008
Au 8.479764968459914 10.320886403814416 9.093565468749855
Au 11.448025085487116 9.95539592305651 9.219500842716583
Au 9.186406733134772 12.972697064584413 8.274740411422297
Au 13.203268882325707 11.437325249185697 13.387731417714251
Au 15.044818337575164 12.658551503766533 8.808995536570238
Au 10.393461601390829 10.966009038491856 6.866033417662819
Au 10.410089769720097 12.122674725840842 10.750541050225856
Au 9.030447910172823 14.056686680805283 15.288028189584084
Au 7.697229509756859 12.379992155598451 13.3835674744744
Au 14.338636514009195 7.446159817920711 10.466448635182736
Au 15.667372666490978 14.029270247253116 13.132804309864543
Au 15.802708456778118 11.350660066052717 14.118535275571476
Au 13.410802710867005 15.583319620953025 14.204100347544665
Au 8.335113685781884 10.054504638895876 11.880570239456647
Au 14.64907409001768 16.243758260961073 11.862656772795123
Au 8.069512280028757 16.168150472882175 13.811345534314299
Au 13.496896237833303 14.81648698746026 9.780272061096213
Au 6.635307996670624 14.562169294572671 12.055083332319784
Au 11.73815603642611 13.980899309478398 15.86013026006756
Au 8.03936453747609 15.006474386769096 9.698062527582577
Au 13.659927159742512 10.723677004360491 7.518770407429938
Au 10.055218444449041 11.789069852962346 16.43130570540612
Au 11.964141506710357 16.513774412327827 11.78151225503304
Au 14.360987144497663 6.955150759434907 13.132481701729844
Au 9.678711322381501 8.015843252130827 10.523423445381706
Au 15.518525579226694 9.891046248858792 9.523097217481308
Au 10.774057984536652 14.992911797427176 9.663254418828316
Au 9.295185875590635 16.895923036828897 11.372838073187438
Au 10.530575898898253 12.084081709178221 13.6398022942975
Au 11.449008652281348 9.785365998960673 11.995743236760156
Au 14.382933732659513 8.048371670804308 7.834314721428099
Au 9.624463043365532 8.211752716724506 7.789369003140385
Au 11.96856801043038 7.134788553954765 9.025329665238669
Au 12.038541689864728 7.0289438242848155 14.513137878719304
Au 11.895741282777049 6.848485803968389 11.764989921052354
Au 12.036798424225285 8.703762522569747 6.5937936697274635
