5
Energy = -8.36228449 eV
Au 12.119511117403661 12.16533663156796 11.034735232412373
Au 9.605139869718691 8.191470259199642 9.222419674730817
Au 10.25364211902935 10.504355755179027 10.060118881291338
Au 10.00808880936432 13.168920067031113 9.944907818244443
Au 8.245053307362411 6.172797391703979 9.994676945704994
