54
Energy = -146.0805578 eV
Au 18.374610205728988 12.931198763038237 13.643740634907875
Au 17.038721490644093 15.28628117040233 14.348408613469902
Au 15.268924225512464 17.28544354538459 14.62237174155176
Au 17.616482121781747 14.649913709746306 11.595404221246728
Au 16.395407685825045 12.877696541091272 15.655010762471354
Au 14.260673358161739 12.729923700390389 17.41541049236935
Au 14.819722521315144 15.103812178278954 16.186516397847004
Au 17.293946462952157 11.778116134150284 11.277134673285257
Au 16.764985575012183 10.699625713351962 13.916732709176067
Au 15.61466324173125 16.239718944730566 10.76315311503422
Au 15.53450132281444 13.290726180812303 12.89749264408574
Au 14.583142630916933 10.671823930909833 15.668711365538215
Au 13.870282277807217 15.506613188143405 12.916203672465317
Au 13.110445836982942 18.25636618475025 13.388783096649153
Au 12.0716471740729 14.270619951059118 16.796715053930917
Au 16.45883678102061 9.191680660331075 11.553258239072548
Au 13.30619429836667 17.599710366554213 10.736616192965506
Au 15.660214041700899 13.624696309257308 9.830376637708556
Au 13.306913222432335 12.99422015129167 14.450101122518525
Au 14.965149431505651 8.646491442592948 13.941139870232353
Au 12.659878177377015 16.712984653576285 15.668562571517727
Au 11.966871327788747 11.374332766122645 16.63656958112636
Au 14.937540625972241 10.914836622627492 10.006493478154294
Au 12.997598320474921 10.534490827575697 12.880781203657063
Au 13.384382041761295 15.28252711429398 9.297000877433424
Au 15.419584419583495 6.693669462024709 12.11279356470952
Au 10.9235461238657 18.57283130952731 11.73486658374225
Au 13.777770926660871 8.543605398756625 10.900713187794322
Au 10.55899172661102 18.07277752646063 14.480703894408547
Au 13.299268591340883 12.93175750249811 11.33367818956582
Au 9.590331418527514 16.298663075344315 12.593687065144099
Au 10.129248780678184 15.523065305232455 15.34124675944337
Au 9.653959512505315 12.937252282387709 16.28606937968999
Au 11.04608031566281 8.5930185694362 11.501048644538402
Au 11.38313083631101 14.185246890357664 12.815133406511976
Au 12.83400612151092 7.053299137294104 13.090126697184616
Au 13.391953839635486 12.655016033538613 8.49123510428476
Au 10.742269459075663 11.704007923229199 14.01225958242515
Au 10.919085913388885 16.315862931116207 10.125701881864037
Au 12.442473280614422 8.974927160676263 15.241972666114224
Au 10.902137733473479 11.487834054441068 11.28512143676463
Au 7.904142434728017 11.516882408233164 14.671676436348106
Au 9.79024758871796 9.774902851154273 15.781925597530732
Au 8.620700460196359 13.929996954728763 13.653537055708512
Au 10.393315262561863 7.585640103107643 14.094348392289069
Au 12.380669992075935 10.09093218975327 9.179928863204436
Au 9.26940392615821 14.173740802765424 10.832805455990842
Au 10.941208356136444 14.114916957105576 8.552089287451134
Au 8.075996072514698 11.846739087192564 11.866435292518913
Au 11.180928833248915 11.754714523191325 7.215976640881392
Au 8.662401683722283 9.530310514212388 10.4541493589743
Au 8.65362541515435 9.377014521498356 13.133924573115278
Au 9.152521868351851 12.01562130735038 9.169321302871678
Au 9.942322676432616 9.490166316093134 8.101266675705133
