50
Energy = -134.62072491 eV
Au 13.19813280706341 13.758079899708086 7.988948810697783
Au 13.733043177492217 11.30102149080988 6.898165553494698
Au 14.689637659203404 14.970800581495183 10.068064589815117
Au 15.43608124491229 12.272144130186334 8.825405605103985
Au 16.644262463009554 13.317886801060027 11.130610441684054
Au 11.030853863741733 11.883590236230228 6.79100302696932
Au 12.052625308598603 9.272348187783168 7.59394737762147
Au 11.924534039031954 11.639780935553674 9.424649947468511
Au 14.720429541875902 9.49453825760227 8.704832236322737
Au 12.409217734180823 16.12248211814483 9.142802436549054
Au 15.328586434113543 7.919259455888586 10.925572683562347
Au 14.879712536068247 14.708460030501506 12.877230054242952
Au 16.11259926465373 10.575564414555483 11.014023173896833
Au 15.763148817052011 12.068798226026567 13.447024439842595
Au 9.399302955582863 10.0248354467816 8.161410699876502
Au 8.425243350912659 12.52882751502994 7.5170844387028195
Au 10.495333834680075 14.084712118799304 8.544992479582431
Au 13.148201750026079 9.783168688204821 11.129443025234867
Au 13.85551115808571 12.497713531653833 11.188284666210363
Au 10.292921876198719 7.508739936256923 8.760374247076893
Au 12.904874157993952 7.4457180553630975 9.620983792654702
Au 10.236107327880935 15.721110884484052 10.791437898769958
Au 10.028070914655066 12.93797698607613 11.196913774399864
Au 13.242906209053505 7.370304297057328 12.698870765476684
Au 12.778177924395312 16.309282608863555 11.842297105871042
Au 12.054563763695779 13.740815262868818 12.866056839190074
Au 8.289115433018182 8.618232800042628 10.349679648537434
Au 15.189321172212601 9.281824801512151 13.377776540385874
Au 7.903017559178674 14.088830374088994 9.792017051606384
Au 10.72203099012503 7.457112312917353 11.480390250598848
Au 12.974868233485735 11.165037121831933 13.492140040796992
Au 10.319980508144354 15.856565915729057 13.603641215705725
Au 7.677492862562515 11.30946208367859 9.898636643932532
Au 12.941705669588066 15.909215809814812 14.579861753142666
Au 10.415614592414197 10.244553335729575 11.277430724553334
Au 7.973166134920999 15.30762746631944 12.28566994026985
Au 13.886514927077334 13.373890020010728 15.177868512186441
Au 7.157812382737907 12.723644250774111 12.254268598771532
Au 14.818756257395437 10.796532236443591 15.735911064925979
Au 10.292421776044074 11.69241084580671 13.693841134576664
Au 12.943340831359599 8.83922402358305 15.161828967965825
Au 6.652746013661396 10.027118946033347 12.125011795118445
Au 8.89755864441226 8.792631135872666 13.177896742403593
Au 10.972611227428246 7.239925607716383 14.242879588436548
Au 11.137227523139863 14.023683905153916 15.64877021992924
Au 8.48129578141501 13.828017176748025 14.548025792609396
Au 12.110544541823765 11.409653175878793 16.242345924163864
Au 7.69592184445887 11.02943779154983 14.47823191380406
Au 10.15325151847868 9.497861247848341 15.573389761152383
Au 9.397785605706197 12.017729662878237 16.440238209054986
