50
Energy = -135.16369821 eV
Au 11.76672527569071 13.641943816399081 18.10487353179883
Au 12.062340521298301 15.972171138196046 16.544327649068812
Au 12.51319065465263 9.749197959614506 17.31117493095078
Au 9.635524020876684 13.871806551684323 16.367365214736424
Au 10.171846706561888 11.44596154493712 17.6576170571172
Au 14.004207275594181 11.988295162284333 17.796527103779706
Au 14.282117436265816 14.693758689033123 17.5582945586209
Au 9.78124936378778 16.23892838210721 14.999809443154751
Au 12.297795951505375 17.081065429954336 13.933706681449804
Au 12.017995216103978 11.952730265566831 15.641468122391698
Au 10.099219998718512 9.132323395672655 16.11058072527818
Au 11.723370020278969 14.324056192494302 14.255057751983422
Au 15.620818812968722 13.048696543767942 15.759841210318744
Au 9.048932629569238 11.461794991787306 15.028673921267965
Au 14.597049995629238 10.401649354704189 15.552035071641889
Au 8.813504248879553 13.882921046092061 13.679093811394266
Au 14.439994405077387 15.555813191709236 14.966189322312175
Au 14.68780603489374 9.076228459504422 13.09729061388686
Au 10.113577464166367 15.928646153188504 12.290446418870356
Au 9.90909642531377 9.265131966713316 13.3937519689637
Au 13.842577548943058 12.604854946405279 13.61518592048083
Au 12.444226210127983 8.799488995492746 14.661730289830208
Au 16.206122329260218 14.162373223986584 13.247771395899955
Au 11.222877241889856 11.82718715319389 12.960180624812079
Au 14.438302417114135 16.011984599249853 12.243944825393957
Au 12.546851730702604 13.993714846265172 11.560836840861604
Au 12.206278075701064 17.211965551295666 11.191618071294958
Au 12.583267901676567 14.195991726556805 7.360781923971582
Au 8.51584426670179 11.450079882752542 12.294732884669894
Au 17.61118259948946 12.564426961094671 11.477247573689553
Au 16.32770070236068 11.320820823641185 13.568792972989637
Au 13.434458696553065 10.87299183660966 11.360398204324815
Au 9.010051359065875 13.87425951205554 10.868971257703866
Au 14.43636392924158 8.235634492546906 10.456607529672606
Au 12.08387468090831 8.396078187505351 11.924579126970553
Au 13.872427994665179 12.75745896484174 9.442435894833821
Au 11.199360425715271 11.95259691896968 10.149347575439227
Au 16.059472698863903 14.576376460877382 10.45970248432492
Au 10.954730817812363 15.280642879954987 9.498589305052642
Au 13.717637611098322 15.726016874173775 9.460911854440408
Au 16.27074527566501 10.225890078549408 10.95409684275374
Au 9.831020157034617 9.420429944591234 10.626049499993261
Au 8.35968593500562 11.593210264943313 9.551036710812333
Au 16.614427016577498 12.17889770970168 8.94806595043633
Au 10.103857378303479 13.135895895858768 7.917377520807859
Au 15.361756669545088 14.32590183132514 7.714024494081217
Au 14.744470780309122 10.20093530710638 8.520742002184662
Au 12.229633407848603 9.124564385175667 9.123478003758146
Au 12.526071531444781 11.417276099788465 7.314691258411224
Au 10.099918535247607 10.290491792785042 7.9195044338231915
