54
Energy = -147.00058461 eV
Au 15.980938133186358 16.497318825417654 13.34469039334992
Au 15.056133794592865 15.20358293596729 15.647344508585682
Au 16.29926742370911 13.793944364610816 13.484835883752906
Au 13.5693207728643 17.218261972888126 14.317425528079614
Au 15.120167420997452 12.476212734115453 15.720017492732191
Au 15.923858226555462 11.110875645286766 13.397506184037331
Au 13.297670974293947 13.886430670089261 17.379444271957244
Au 12.894815645690167 11.192404228472705 17.13272280257687
Au 16.027599053429178 15.247061758381939 10.909889740848932
Au 14.656118979200228 9.763872057046528 15.434681917821782
Au 15.770602900255323 8.391229364811988 13.302599106092284
Au 14.094276071107755 17.283901650588827 11.434350052372876
Au 10.866203795839569 17.123802876637455 14.863764994128125
Au 16.177043986473933 12.493289605562287 10.96306239028533
Au 13.759132279934043 14.557921110803468 12.476579442010175
Au 10.950409887425296 15.498907543531729 17.07877751589374
Au 12.392065779395043 14.611726358429937 14.831255092271386
Au 13.570806215923866 11.760960412054795 11.81162358526581
Au 13.387937690557294 7.485186037237805 14.215350311353696
Au 12.429162775853477 8.56458905722428 16.543396352837842
Au 11.733267315507144 18.19540194434132 12.520618528442583
Au 15.47142495172368 9.78873133292708 10.932233128606981
Au 14.00447544106145 15.831608668551743 9.073768321713912
Au 10.687958421224312 12.867436404582499 16.447379894222692
Au 15.898741406886453 13.867313992855413 8.527584841192503
Au 12.546416898371936 11.698719156040534 14.373996133471266
Au 14.87088574291165 11.327974034404672 8.731798643555363
Au 11.116917951602492 13.391111838063932 12.681533630527385
Au 10.38738660651996 10.269730681904717 15.709772964988685
Au 9.419256845943373 14.808053393634362 14.706559128241848
Au 8.812815817712892 12.16456874255293 14.452455295472426
Au 13.88642551647344 7.609705736400445 11.416619006137779
Au 9.831999041273354 16.227542563650132 12.320011086951299
Au 13.662980707463054 8.868360613356348 9.030910237698471
Au 12.316547715159672 13.810505362736764 10.233057835663159
Au 11.92598584099685 9.572987439663084 12.674755371931447
Au 11.583753691404238 16.779029612873508 10.202345081137423
Au 11.134587863743615 11.265458936956941 10.676342677209382
Au 10.638865310831813 7.790712487868175 14.526682249531234
Au 11.688110759516919 6.354648463360636 12.329406136554496
Au 8.627973418246606 9.528823209080478 13.68936494109523
Au 13.34352559641095 13.336238467983287 7.587135371929246
Au 12.436563556486648 10.771114020844434 7.435113883834739
Au 8.351630031054915 13.910425377881925 12.260353457289138
Au 7.21738258677528 11.446021166784444 12.288737098506017
Au 8.54048990573511 12.239697858841117 9.96165521686926
Au 11.132752416485522 8.17000854632092 10.256563634434828
Au 9.587195540430146 14.837554317141903 9.911860193367804
Au 11.48064793945375 8.183532953338998 7.509155473461845
Au 8.616566765796009 9.59129557393482 10.844197637792522
Au 9.16837870613758 7.315628932746113 12.180416466181951
Au 11.516692933133857 15.384577378412134 7.838697172459181
Au 10.599964805559871 12.797667231736977 8.179781762751741
Au 9.842688262167606 10.146306838624655 8.461943974972144
