51
Energy = -137.49848905 eV
Au 16.139341822311803 11.766327667801892 10.594552462945002
Au 15.592066000848758 14.532294003930295 10.78491747522096
Au 13.0371742413026 15.427493417328446 10.144438510070557
Au 14.065649525023913 12.908911598863032 9.15518546199098
Au 11.337406305805374 16.696556070717897 8.432490545607049
Au 11.877944175204712 14.036990775003854 7.99171368513515
Au 16.74575759842914 15.84905219941639 12.943095389944716
Au 12.026268682199039 11.299574977555956 8.162447815775819
Au 17.810271791849278 13.421021245119283 12.033600168215363
Au 14.102877834360912 10.16791255696285 9.667355188978139
Au 17.80419429806624 14.045751180342528 14.763423370850475
Au 11.58325987935609 8.825359883483035 9.42102842582595
Au 13.821084764575177 7.541796426706983 10.459447139604922
Au 9.278045171625097 15.056882729794966 7.614464132387159
Au 14.020505283309214 16.01146771582444 12.711108031378346
Au 17.57085474219371 10.775912233238515 12.750214332186001
Au 13.91885880311817 10.832175436649568 12.576097083187891
Au 15.832183887479815 8.989386478669447 11.622981233267682
Au 12.944126608594956 13.42043049805016 12.17557583670165
Au 9.76021071540485 12.415994534987043 7.060201776035852
Au 9.25879672680234 16.103677594780656 10.175558514412113
Au 15.409981778848518 12.958381922925117 13.525320915147507
Au 10.554146933701727 13.72268663209338 10.78521888981583
Au 15.180205565495307 15.294480759944625 15.186037147383178
Au 17.35173683742379 11.39400794307079 15.388908643766136
Au 8.19805138064469 13.146613637365018 9.252209053782497
Au 15.67569942556344 9.444151366953111 14.435081909533345
Au 9.42271137517998 10.563746877843695 9.057324688943279
Au 11.39472838723654 7.1262375084472955 11.663448253820661
Au 16.32247043482193 13.450530879024294 16.986683883616635
Au 10.484667349419912 12.34298042838931 13.221117675573922
Au 12.994792021287456 12.21597278426847 14.743716076780634
Au 12.445303848859439 15.32898300123473 14.895677868044581
Au 11.254747566512071 16.010345816685124 12.393669032703098
Au 8.483639371329765 16.62210046688265 12.687956421279493
Au 11.599979462342247 11.160826101504668 11.010060466211804
Au 15.010792019625987 10.990448775625863 16.72154669407882
Au 7.871520261127176 14.070006883936024 11.816183947074174
Au 13.606057456162867 8.06033061839933 13.200602018763798
Au 8.019349347199896 11.393625668483262 11.346437371730715
Au 9.478705838059643 9.07618726975521 11.410292941541504
Au 13.030708466430776 9.412889683029498 15.54530191723324
Au 10.977011503414882 8.814314176553255 13.780963266666953
Au 10.922324085862494 13.455146842044048 16.433562768807832
Au 13.647770109881352 13.810451945879747 16.986788346622944
Au 9.76312008402653 15.10870739061924 14.600208089132453
Au 10.520042051780493 10.760813321636018 15.685495112872978
Au 7.067625200385831 14.82667958222966 14.321090573174395
Au 8.476615798737894 12.646425677518298 15.152304401474597
Au 8.591485842809108 10.286711517969692 13.744857342607098
Au 12.443387428494505 11.350178726733649 17.528371570787918
