5
Energy = -9.45212249 eV
Au 10.35503174046502 7.253776327539843 10.869590148217458
Au 9.004747823348925 10.019366132768976 7.454189663950961
Au 10.648816958700635 8.122816602301764 8.37273882075959
Au 7.281762312197501 11.108614699681974 9.16891914832911
Au 8.70640207047912 9.112385830325005 10.051874265748244
