5
Energy = -7.65116487 eV
Au 13.36159982885163 13.151275411699821 14.453195209029806
Au 11.48140641739538 11.992273703492556 13.069060075925089
Au 9.572474308494725 10.87522641348508 11.801017229215198
Au 15.23243199906848 14.205890055110476 15.922679649319207
Au 17.035744854266106 15.245672873704303 17.400638487887033
