51
Energy = -136.44898728 eV
Au 14.438606877393559 12.470721099997027 16.673050755120823
Au 11.636965017811633 7.983537247580291 15.80428857406482
Au 12.935321446641861 10.237289597242505 16.65035114240372
Au 10.15134997929004 10.434713019679421 16.150292070017656
Au 13.463281798499905 14.838379703437802 15.873120744276086
Au 8.917518732694552 8.074987348353355 15.213451016098459
Au 15.477889302363073 11.056110974085366 14.622114493738886
Au 11.646044083702549 12.749783495957972 16.406450183412158
Au 14.076592279811912 8.732233670034345 14.6035320020725
Au 15.861135572872305 13.817156520952793 14.69930564809546
Au 12.426010448006416 17.097145350547056 14.778178837140924
Au 9.052535670419767 12.841606368182592 15.218119004812038
Au 10.616271953488903 15.12315043412628 15.387635960498631
Au 10.581527840379241 9.50205894158648 13.453654830221492
Au 13.182990767278453 6.189711451366871 14.313096303973493
Au 7.952138375172366 10.469719497052866 14.30929150281731
Au 12.711295439446436 11.32402356089006 13.995768657350983
Au 16.598653315963745 12.122599691754262 12.316291435699759
Au 12.31612853584391 14.190981246374868 13.31955821641857
Au 14.90174048291667 9.827541249493867 12.165551145873192
Au 10.611582278358728 6.689260882256091 13.430895339090945
Au 10.367869289640502 12.26696096651917 12.736109528504615
Au 14.574162664873851 16.01202009831828 13.517488544313762
Au 12.869828770480161 7.863861801887369 12.109276606316735
Au 8.71414134339201 14.983075259379497 13.430243543436132
Au 10.233020839862878 7.944999776831892 11.039185769064906
Au 15.854454860672178 11.074853131929336 9.858947925286358
Au 16.677214177080874 14.858659671796483 12.279552705420748
Au 14.005361565884224 12.700634041508552 11.73670792348653
Au 10.043889461367229 17.35619623867889 13.53176049506024
Au 7.593586074872786 12.579783217738088 12.60459650865279
Au 8.498818951231007 10.126214805674676 11.56473627411128
Au 11.67508031928921 13.674344932527541 10.620064362706993
Au 12.38872211468876 16.951582498968275 11.999101530045309
Au 13.198481756308619 11.833446742674901 9.200140587801318
Au 11.983051955793362 10.515829177723827 11.32295906949052
Au 7.766211881450115 14.756935255262437 10.89915700048808
Au 13.711771962607646 9.00309739151482 9.71878995782771
Au 14.534097929649418 15.804087454243643 10.701874602149475
Au 15.820103384071569 12.636184130016769 7.455324036285173
Au 16.3259416670462 13.831050838362579 9.837219537718594
Au 8.77691596630928 12.349930531327443 9.96230636706815
Au 9.830706576609076 16.564832455377836 10.963619957291442
Au 10.68268427855176 12.32599375287646 7.95439785069068
Au 9.787251336841525 14.71856210679037 8.918757123960253
Au 13.960655647673335 14.490109321134486 8.322593308370257
Au 9.970702169472656 9.923087830060831 9.227870371110765
Au 12.097256527129845 16.179343308056428 9.34759741553258
Au 13.111529797164767 12.426486271548715 6.550935306272642
Au 12.01417016613745 9.858981907778556 7.470826179014342
Au 14.760860132301817 10.099212906326457 7.423809169032071
