52
Energy = -139.84876247 eV
Au 12.713513814111929 13.476356605141417 7.252899677829191
Au 10.96098548684474 15.557124398100179 7.488675379872021
Au 13.473219189098502 15.780104485896048 8.619351318738708
Au 9.440060230633406 13.368026967021088 6.969951933084096
Au 13.79106185430512 11.010424896811562 7.856641880318668
Au 11.798854745941297 9.357822978328883 9.134595705806019
Au 14.708938924501851 13.42418180793931 9.2560260038315
Au 14.458106231528124 8.616565046868915 8.94210552405399
Au 15.304584075225804 10.91143255442467 10.264249706000848
Au 15.212116931346909 15.648167147686864 10.794036156804076
Au 13.428589666481304 17.764247930500655 10.489216410336992
Au 11.015505721897025 11.236223929865613 7.312493780732852
Au 11.03620096654941 16.453072212979603 10.034594450072783
Au 12.081220499569046 12.288161111562736 9.77416918381342
Au 9.573461441573084 14.104349035534922 9.576259188020277
Au 15.884139729452476 13.179312641267883 11.82883845015805
Au 12.942764846957383 7.859854145662326 11.179799435873404
Au 11.543017910889425 14.179208320905584 11.762534081381672
Au 10.30004042154176 8.809273080883267 11.321642054070939
Au 9.433759602791278 11.266631311806623 9.65977806773916
Au 15.703410519863784 8.346945040469654 11.318950609916527
Au 13.373801658973003 11.93333188038782 12.131221634908945
Au 15.935870513530254 10.674020748811431 12.996757248748892
Au 16.380209068900744 15.397075717927011 13.398248443891225
Au 9.173939565108084 15.678574607398867 11.945294066970144
Au 14.564611117431705 17.38520055416442 12.945610631204827
Au 13.736967048717425 14.539612003775753 13.400177508534098
Au 10.631968047213553 11.48527890606654 12.211667089995968
Au 11.542118876035895 7.37816454492796 13.48390889065974
Au 13.055847261274401 16.66073728867491 15.124837280472441
Au 7.994912943066874 10.260027491256036 11.86412547225098
Au 8.213484435538055 12.99450000529982 11.694582236614176
Au 16.924846168670484 8.181373629302907 13.739039253215523
Au 11.798100466115713 16.931153718170542 12.648156795142622
Au 7.825903575598045 14.458103619240447 14.002213407754322
Au 12.178571574824463 10.023597708090039 14.016758099334933
Au 16.44685076682852 13.081517372751168 14.828982116404674
Au 11.539092127633378 13.022379982034723 14.427199472122679
Au 14.016641140585048 11.858734749086985 14.776037422209072
Au 9.416906134826506 9.192731105138874 13.996300209773715
Au 14.190910221399127 8.068422565904743 13.712718750061317
Au 15.60214427529787 9.641815027040689 15.637769616948045
Au 14.325210852658682 14.42102686612101 16.298946678208623
Au 8.327741996709053 11.746765266941006 14.269619509992234
Au 11.631473004550406 14.982897305411903 16.70933566434942
Au 10.263640520961324 10.871328710888248 16.147691242551044
Au 11.066161187259704 8.235734834072185 16.05761703597206
Au 10.20120015909872 15.7721280712135 14.5272308118818
Au 13.111168562081032 9.855120611179062 16.845290580789108
Au 15.187507542916524 11.8997990161467 17.213956740814407
Au 9.411097668001405 13.495196114991433 16.13108262474591
Au 12.338232208241658 12.432292684845981 17.224558221134387
