53
Energy = -143.93213194 eV
Au 16.71496312649971 13.585454836670959 12.837892678793487
Au 16.438779196357743 11.468067233688844 14.830070073787779
Au 16.987505869848814 10.904949452649538 12.222054963288498
Au 15.666903581061005 16.08647493822263 13.366269294214757
Au 15.483869734685564 14.21995611545054 15.389314916048434
Au 15.994616040160002 8.816488425544355 13.73434616487048
Au 15.814420981183344 12.484708531640754 10.29933722647851
Au 14.181149408753704 12.6021649277743 13.445710159167538
Au 14.686577199267699 7.472483958538192 11.55611536071497
Au 14.99807131112151 12.122658318124046 17.08315556215915
Au 15.728865663431364 9.636680467781765 10.15152609185311
Au 13.370066932038634 7.804235661825244 14.017247793850458
Au 13.426703673251692 17.322895985615656 12.324710462673341
Au 15.407737133152107 15.16399122708727 10.838733082993524
Au 14.59308323452342 9.662274614537974 15.945931093481867
Au 14.158592392246415 13.958805625965237 8.611990399185052
Au 13.37568181881678 16.03108740041761 14.887357840843315
Au 13.973411411292679 10.08235926435767 12.254021341203565
Au 13.04990769207839 14.033288116619788 16.878316291834903
Au 12.725883733488097 14.699551896749936 12.03164442852202
Au 12.194355415099423 10.773674147987608 14.273514085031575
Au 12.00816770915279 15.419362061436257 7.390347071423473
Au 13.275296127976661 16.427381088451796 9.62916288804159
Au 12.993015373610296 12.18936155067299 10.785342776314254
Au 11.789068673477251 13.556983765177158 14.399588857379253
Au 14.143285715955594 11.148827636149537 8.431014743748602
Au 12.084037795007886 8.622269947473916 16.31589051283068
Au 11.342056902493248 14.038700978537937 9.649964063860486
Au 11.90185300042021 7.4347233298594535 11.576476780694362
Au 13.294145305289373 8.518029249784998 9.350369226324434
Au 12.129650168738925 12.596730535704097 7.1929885780575535
Au 11.97068768435293 9.868061503924636 7.35119248152572
Au 12.37690647180415 11.281042939551725 17.0608966447998
Au 10.964201458264961 17.184939111130618 10.934718790345334
Au 10.916522039975863 16.510503141669126 13.571645582816084
Au 10.905940920640733 15.66731803024427 16.213907479151516
Au 9.401798080331515 15.957966187689813 9.082375217420376
Au 10.540430850048725 12.83816619978521 11.99462746034753
Au 11.235558224938304 10.191912403766068 11.707072181184333
Au 10.59466101077126 8.294785729942168 14.03772458961506
Au 9.91224941900528 10.352258895920475 15.9487913473385
Au 9.626274039132827 13.833911694645117 7.322857327561433
Au 9.76378523952781 11.2647550149525 8.279938630121507
Au 9.203074801381208 8.193029773786455 11.69681548478146
Au 10.46871605394904 8.78806117966707 9.353718458424432
Au 9.064504669728949 14.587033066262062 14.414693468452947
Au 9.019003640910883 15.329718826044441 11.764980209463255
Au 8.487804597282448 13.32787705894429 9.844262736312647
Au 10.250667898955713 13.012993768713665 16.71433401414351
Au 8.5299362512108 10.171725350084621 13.511217694915091
Au 8.597635507555331 10.723886946289788 10.726951019157564
Au 7.987946117562213 12.214471418970595 15.269603291290485
Au 7.8582061416085605 12.790462632571018 12.554782386269846
