50
Energy = -135.12753119 eV
Au 14.748553062253936 8.433296736047543 8.989048047759981
Au 15.137100196644315 7.197141436189527 11.386590693148321
Au 16.693063528913907 10.342240920002391 8.40372247547912
Au 14.570139439879338 9.950580076572399 6.703216965215536
Au 16.68137807320093 9.557541277633286 11.036473766923878
Au 12.214320994986428 9.1891884968614 8.06071674212292
Au 13.130189913993537 7.283997769394702 13.243923437034653
Au 15.310585258785496 9.063792846275518 13.373099330173007
Au 14.118942187489164 10.70836176865343 10.866651283992432
Au 9.95036528147571 10.744169314051573 7.6814374610914955
Au 16.290057023106115 11.611567068528311 13.027028050033381
Au 11.231447507571515 7.896909319971942 15.035065535179921
Au 14.614904173273372 12.190394741058102 8.362944446515636
Au 12.560593007799678 8.095798633643206 10.585572803273333
Au 16.61440651668577 12.309928795189341 10.332800885520378
Au 10.460752575277953 7.96005281064563 12.356368203198608
Au 12.434599051140687 11.601724074436486 6.692061269079719
Au 9.989078483280224 8.890937717639096 9.722574165018685
Au 9.501152819193786 9.465012481846472 16.499879344341704
Au 8.087219246457954 9.474688439540817 12.096942362906688
Au 12.078459905829517 10.310720040897234 15.997937781222296
Au 8.527401487231234 8.032663455978648 14.333383569970012
Au 8.23277580050518 11.099330480716844 9.887396464671795
Au 8.025511018395946 12.772573173270036 7.716320056609925
Au 12.693405527752326 10.14228734476166 13.18754986486128
Au 14.554589905503498 11.075724380536684 15.092274430008796
Au 7.915393004987352 10.769802008694587 14.641207600705002
Au 12.738035262535515 12.979424136900711 15.967943196569774
Au 12.334234318132895 12.718438155202454 11.164669554849999
Au 14.483711984155402 14.215871428725267 10.24835677008172
Au 7.154280086881893 12.09671615578616 12.346182592780735
Au 10.431663570950636 13.377044920920348 6.652383612543613
Au 10.524937009090559 10.731917599643262 11.623513167600457
Au 16.394775963265875 14.231227503498417 12.24552152998427
Au 13.958608394696563 15.508439690338133 12.599139456492573
Au 11.182268485832964 12.45852088250664 13.71971539339593
Au 9.924820695147291 12.13137320371323 16.208420775436792
Au 15.078670842460637 13.734841165474862 14.583333024314658
Au 12.399574479205981 13.829171820314548 8.469389431922655
Au 11.945914053065799 15.480554123043488 10.706960772269486
Au 8.150965798386759 13.504148671217624 14.584881994955072
Au 9.647908883344316 13.343445635768633 11.582308967569404
Au 10.562649980895278 14.707540322279565 15.422243065963293
Au 6.978963326935495 14.907476469598734 12.517074700768598
Au 7.278950753882903 13.820143304245219 10.085869475208844
Au 13.165303482704898 15.589161027554935 15.193384529524153
Au 8.759780774561142 16.239671630630127 14.084276731272906
Au 9.792316803778668 14.67841956618242 9.026281492636224
Au 11.369830664689974 16.411458423240934 13.275337608731881
Au 9.291727671194202 16.074557418475475 11.369880725825707
