53
Energy = -143.28483594 eV
Au 6.918517601672699 10.926829420936372 9.511929698026034
Au 6.745316571006752 13.507418834455578 10.266701204845058
Au 8.840454343187913 12.861787039896905 8.466206199046441
Au 6.9338955614469935 11.539698609652904 12.327370446140854
Au 9.318406023035358 10.064548858729303 8.563023614404388
Au 8.11699260737381 9.104030953290392 11.182483595083864
Au 8.023341661354214 9.542222543726828 13.938753284856118
Au 8.180635174598942 14.11644343170463 12.510552312260028
Au 9.846756153791846 7.6012724803872675 9.547252384841455
Au 8.789126166722248 15.269866224343756 9.979615237648094
Au 9.396092796621403 11.766151696283652 10.95280573781842
Au 11.401203328058104 11.74751575066155 7.8734909530110775
Au 9.982974840747424 7.388206814749327 12.268016581150631
Au 8.370473499649282 12.272121099471939 14.607307266446714
Au 11.877223688609556 9.059108384004746 8.326726889761495
Au 10.547893522976686 10.08429325410689 12.789237322355735
Au 11.884609098899062 12.715640622009175 10.488960266686956
Au 9.709888678868266 14.843017052491396 14.708807102067174
Au 10.186434244226703 16.0443535728638 12.278887652511004
Au 14.05513800580122 10.77370131607847 8.01961419463548
Au 9.367271407299071 10.279652143009658 16.272530199661986
Au 12.334039832459641 7.535588845822513 10.685974605145498
Au 10.895734002961103 16.943070909121012 9.764847830473949
Au 12.513616684535878 7.944417613372152 13.397645550341306
Au 10.892040835212184 12.875110741697856 13.182417278587874
Au 11.044056009515442 14.528414808563475 8.43534894976167
Au 13.470424157495614 13.872267921789694 12.507476011350889
Au 13.389984579901645 15.824130258975526 9.2779317270481
Au 10.134949158919444 8.01244810451006 14.929699949917724
Au 13.574587854194476 13.48484108882806 7.9776600203649135
Au 12.717247481649855 17.042629339261023 11.790631072046521
Au 12.274286089322114 15.711567696843279 14.16535384874356
Au 13.139146430268088 11.055631922995754 12.432434054077424
Au 14.420726362997463 8.246402849288584 9.023571046253949
Au 14.599245272897617 12.342644732264388 10.529126992733993
Au 10.53346706957018 12.871387639966654 16.33205871271846
Au 13.28706025390575 12.977685772986261 16.7071608148703
Au 12.094598521531434 10.957852826037989 14.962348499373855
Au 14.611058749273965 8.743556136654389 11.716423580149385
Au 16.171269274176204 12.691320299809338 8.31243181581391
Au 12.521635174218018 8.456011389504834 16.159773252140827
Au 16.428227184283138 13.679551181931613 13.049224876635598
Au 15.933236370917601 14.833712290145598 10.364499643611248
Au 15.156609660886529 17.458564247256405 10.525481353959027
Au 14.621176553143652 9.477380982851841 14.394850902122355
Au 15.094295815382369 16.11620116689596 12.896685466633839
Au 17.455076719687064 12.514592583662942 10.777881170962722
Au 14.638060760411078 14.604905411884994 15.087918081978707
Au 16.23261822254701 10.150369299865483 9.871520812911749
Au 11.673421132421975 10.751530578613206 17.721337360382034
Au 16.244769236460293 10.876097370890506 12.651570508165715
Au 14.343825715394233 10.420769989703333 16.93235877570501
Au 15.617026559095526 12.047017596972292 15.12663970996869
