52
Energy = -139.87328892 eV
Au 8.458276203056931 11.912381512276637 16.548047376278806
Au 7.36101233403369 11.597606541298747 12.36623879205992
Au 7.972709743669182 13.371017843879013 10.325036309546364
Au 7.153905938050187 10.325494869733825 14.768476337651771
Au 8.45274233374356 10.441756452569768 10.136764910290472
Au 8.522393759253454 13.97552177305665 13.160861545896129
Au 9.983260486019198 14.069438098267966 15.78644626304201
Au 9.89308322603926 16.18782307741161 13.885579351114902
Au 9.741238691924282 12.088801204051862 8.346758739484036
Au 8.779327519055457 15.875366744904529 11.167937907306058
Au 9.904092122881005 18.175780619186025 11.91746763386628
Au 11.081459795976 11.225083434128392 16.584529323395
Au 8.175286178309696 8.936931328548706 12.648501265166118
Au 9.733570856472726 11.63260143822015 14.048530989101975
Au 10.313635685033956 12.406207334392384 11.259775718805187
Au 9.648138426655473 9.156988253344808 15.210174469739107
Au 10.454229578353267 9.395394226848143 8.48114261719103
Au 11.532255320386373 13.752830400234014 13.482626638055525
Au 12.266867424386424 15.78295843191322 15.318571834200991
Au 12.181877839346933 17.754173470117113 13.407687415035962
Au 10.24817652052153 14.719027127449202 9.191212234559021
Au 11.949458715002239 10.684991054782602 12.518919267839294
Au 12.478919832839981 13.585493410204677 16.93050392092686
Au 11.771704109663489 16.33948976448807 11.011149928869305
Au 9.389943421416435 7.854663051418622 10.50509350982227
Au 10.826122473709303 8.115190345800102 12.857380613921777
Au 12.393637015705343 9.332815218569893 14.912941219568786
Au 13.896491597227284 12.30819623856204 13.589955873822277
Au 13.14777015724972 11.292302149572404 6.695373639984247
Au 12.88853473777233 13.507807358776795 11.065974973867132
Au 13.800035434342048 11.146734088325777 16.39535760249492
Au 11.747578911777822 13.522178663215275 7.165737918820686
Au 12.07918691012778 7.7898950877897475 10.273437219107517
Au 12.893500458522654 15.45437417259293 8.72593442621681
Au 12.269827029254513 11.36308898376123 9.414271584162195
Au 13.580477059348336 8.29902451649343 12.5550018159694
Au 14.701938199636245 14.49410453068051 15.198893449331011
Au 14.378194183107757 10.877293393455425 11.13456786672958
Au 13.101191445853052 8.920071651132755 8.009100084111632
Au 15.169042718791403 13.173773490285011 17.548416906680554
Au 13.863488382877868 15.658198316225755 12.839286873057981
Au 14.479874938458233 13.324207491441884 8.142038142765639
Au 15.120268488192433 9.79039052067221 14.380196534053493
Au 16.320137794675283 12.202012891241028 15.188842920776834
Au 16.044402053911522 13.878130421780106 12.710166925402756
Au 15.268241091691989 10.639829394515946 8.311508553338351
Au 16.369946609478806 8.447737198208717 12.362854325705936
Au 15.033267985935959 15.041107125026905 10.374330401347645
Au 14.840275711473437 8.220915090881363 10.014823371617776
Au 16.3692762454856 12.6591146589946 10.149603606923698
Au 16.90117804594565 11.244189960238577 12.697071814080742
Au 17.051861674745442 10.013723548056102 10.222417169450376
