53
Energy = -143.29008703 eV
Au 16.902062724091664 15.392266949459087 10.637349052696193
Au 16.86487269220184 14.52722861184716 13.338412849349714
Au 17.166273956025943 12.759210552027913 11.209616367610156
Au 15.64003261105012 16.894189593683322 12.539144369899022
Au 14.86047131181873 15.868077701467133 14.97528274668904
Au 15.501572592643337 13.639199343663817 9.059208903444093
Au 17.046223217348984 11.853697455529357 13.966772310346363
Au 16.14027561339126 13.669363478007584 15.863129457695507
Au 17.170025905842294 10.09804730101459 11.81567548637779
Au 13.683393761380833 13.718546585292525 13.600006336261952
Au 14.168377494060755 15.651603004192127 10.556569555635459
Au 12.959997389036074 16.418848507630308 12.91651502374059
Au 15.695277129899953 10.926678551080554 9.580485005637314
Au 12.17503253609455 15.461390362563934 15.392846511014312
Au 13.885290626695015 11.873194512393392 7.692236594886068
Au 15.76241142244662 9.328141079165585 14.004973486649794
Au 15.561210073893058 11.0711288424821 16.316439924448105
Au 13.574064920655353 13.225342316235704 16.678441653878917
Au 14.682225166594923 11.646206275266083 12.156911000248698
Au 11.04896232088179 12.633500322392482 13.675529121593842
Au 13.521312654276354 9.33923280518877 8.921699216354988
Au 14.780939674594443 8.814575896508755 11.341518151914883
Au 12.312033636561857 12.937403484799075 11.124982941065836
Au 11.416501089947388 15.584991356081579 10.724214724480104
Au 12.837108366342607 14.293581438102509 8.625224422844232
Au 10.339606279662032 15.7609579054665 13.27428882517952
Au 13.373494680929308 11.099409117686683 14.637087394748988
Au 9.564427932188934 12.05495539151534 11.385210953945148
Au 11.032704595187273 14.077916073381502 17.44335804871464
Au 11.487048116553467 12.969694847373251 6.713992554618394
Au 11.296616566638377 11.551681751138535 16.459316575067497
Au 11.73681815539227 10.236251714574712 6.996932906450582
Au 12.188105651029568 7.929071920386241 10.917118769818597
Au 13.26494843350678 8.01593591576829 13.526356915152025
Au 10.043904049897616 14.181959826099327 8.760031528444095
Au 11.112664981972497 10.535921582496998 9.73126155748771
Au 9.415601115454264 15.690181358055414 15.88478412541997
Au 14.218609229154104 8.68281673239817 16.139765304685124
Au 9.062694776976508 12.986108754060512 15.630150951645126
Au 12.087217785302466 10.431018107760453 12.256831301915996
Au 8.794020655232533 14.917138054427166 11.127425523277353
Au 11.59722722264196 9.000979836249343 15.537432566668375
Au 9.492051297061188 8.103100184183312 10.568742394187606
Au 10.413870269499588 8.242993749990793 13.15206419767271
Au 7.815302822697991 14.80331646288732 13.815131601589579
Au 9.384060766661873 10.364324636267808 14.692181284283514
Au 9.292464834122729 11.676734662387066 7.709559805915135
Au 9.559936722467205 8.917960194792247 7.957710973599028
Au 7.579687109786073 12.047319467889595 13.469020051484728
Au 7.619827708933917 13.01179966273061 9.44105207954934
Au 7.926645303640616 10.292341579845786 9.781820516334687
Au 6.364134647170237 13.746089736861206 11.73337691055739
Au 8.033063273640373 9.585551260314737 12.414926346877264
