53
Energy = -141.68220922 eV
Au 15.863782810177794 9.423268723194667 9.651608716099297
Au 15.042079739829042 11.6135623643617 8.18908167636197
Au 12.567528360458132 11.580085618260075 7.018405526951341
Au 16.226061927262187 10.01049139637908 12.30440856864623
Au 16.520428870212438 12.098428413396913 10.51801381793715
Au 11.142100079701832 9.555924180311921 8.029404647070455
Au 14.152000368603671 13.889185776701812 6.938148188864039
Au 13.685449441179616 8.537570506050853 12.186706454263875
Au 13.287087195163007 8.511082247667112 9.33540456882738
Au 16.85969952928726 14.695695736347517 11.538787339297972
Au 11.732791658318876 7.0925753888527066 15.51045314286359
Au 15.679651736266244 7.910862998539527 13.946187476710234
Au 15.465010447922754 14.395952227237844 9.233334846602634
Au 10.709677538031178 7.901830684626038 10.180068951957495
Au 13.732247372875968 10.97430150040894 10.604935374359561
Au 11.128735775453544 7.386091783342814 12.840887208012985
Au 16.621799966469606 12.613340062722548 13.330837292280634
Au 15.72941294780343 10.570073667318098 14.987167592704466
Au 9.979980967274727 12.137687045597255 8.027220982862627
Au 11.428834070952547 14.24238758094211 7.0580684796348905
Au 12.471205766285568 13.129679082812174 9.509801926375703
Au 13.470611326397695 11.306654128351298 13.331125615688304
Au 14.137601143975104 13.525780571035817 11.759934100530076
Au 11.348792011276393 10.081166512640335 11.809897106314365
Au 14.487049652655715 16.272937010760664 11.10495296440304
Au 13.125837966464212 15.858636213323438 8.664531067695538
Au 15.427282017977289 13.238773528636383 15.730909126735792
Au 8.990312634800885 10.113148831648665 9.61943298224847
Au 11.684592533821595 9.710435981391951 14.711076106493204
Au 15.346302146439736 15.21942975997329 13.764607673185406
Au 8.766332641312355 8.799149418551485 12.059865751447093
Au 10.241697858134627 15.042671601696105 9.36432150818657
Au 11.4676195466985 14.448236420993947 12.091005743696472
Au 11.797719525302147 16.956877124296255 10.811050133918439
Au 10.110552464772883 12.346725288676945 10.946336269611837
Au 13.923912250315004 8.711103170914507 15.918441409648558
Au 9.286105566394733 8.282513310173599 14.789879916023278
Au 12.934413283338444 13.869992792026625 14.394553208529631
Au 7.967666792783792 13.370385613725201 9.590163472266006
Au 10.695093657010592 12.163246228233465 13.652554196965166
Au 13.262414288408225 11.477731362828035 16.204283619894642
Au 13.212285535404805 14.111330458309006 17.13615365479592
Au 7.424182233973948 11.281401613457202 11.48426148930341
Au 9.26507170123388 16.191273999103704 11.64508971174024
Au 12.862651023033884 16.556852711553265 13.378522316997604
Au 9.52018944447062 15.232135193215349 14.204006057091709
Au 7.564189999862932 10.236524065449897 14.103680333707743
Au 11.578395556565777 15.969371831547516 15.77771137911138
Au 9.51596156527139 10.826740050264723 16.019851556306918
Au 7.866617428392303 13.966529914937137 12.351241053951183
Au 10.661205606893835 13.336420641241627 16.232159489758416
Au 8.173849606409421 12.969109221498703 14.977484304103116
Au 5.945526554320189 12.342653851427018 13.5266606028004
