52
Energy = -141.22534264 eV
Au 8.877382817109357 11.263071286545513 12.07696925737285
Au 6.707631913907064 11.263178405187473 14.012207617575788
Au 11.263004180495889 11.262494391152538 10.319392377099128
Au 8.913156986708008 9.834000909551671 14.839297581503404
Au 8.9131945127334 12.692437764494832 14.839179146602705
Au 11.263068286323234 12.667989572730638 12.842313242222765
Au 11.262960336753926 13.997695600214978 15.381839322570311
Au 11.263064569359019 9.85839129152276 12.842130847461602
Au 11.262959784722995 8.528659092942668 15.382029603137761
Au 16.385239737868012 11.26319419946612 11.310062601655341
Au 13.649280979977865 11.263066679383398 12.077172628108999
Au 11.263078166303439 11.263252358245703 15.761870043667741
Au 12.795778064670591 7.525582810319009 13.304928758986895
Au 13.613479853766348 9.834231454924785 14.839268866339324
Au 15.821055980746968 13.639550730276223 10.068843134799053
Au 8.272275797037514 15.782313469287127 11.05697545440989
Au 9.682859120469361 13.48792984850206 10.534996373901896
Au 11.263158317682679 16.06755994839408 11.230985886972013
Au 9.73054233190148 15.000635424669376 13.304809847278237
Au 12.795810461173469 15.000751816477482 13.304709713797925
Au 12.640107757633572 15.846579885558178 8.793129471637474
Au 12.84361507681644 13.488276041903507 10.535051066031846
Au 14.253995558797799 15.782294381638874 11.057050960665828
Au 15.213584476881035 13.649012186480642 12.724949097224373
Au 15.81838198546397 11.263178351418523 14.012319513366574
Au 7.312706249843135 13.64905859035225 12.724652092189267
Au 13.613443216881636 12.692205235464431 14.839147937290159
Au 7.312708165488161 8.877309384768086 12.724952902917641
Au 9.802731935713252 11.263085275958282 7.91230700234731
Au 6.705239202562336 13.639556069393226 10.068661316302807
Au 7.078858964097145 11.263124502317954 8.623278536369783
Au 9.886255536483562 15.846592349914582 8.793018270385273
Au 8.402126160155765 8.86682673700632 7.933504240336643
Au 11.26320084575158 13.623315582191626 7.897942596979105
Au 8.402147446071515 13.659506678635854 7.933338260348685
Au 6.141065452260094 11.263195387254006 11.309930922603458
Au 15.44747720740605 11.263122815260497 8.6234254450283
Au 12.843172504413754 9.038583316662619 10.535221795811113
Au 14.124229202048209 13.659517178270216 7.933532366479176
Au 9.683287673781178 9.038933187116324 10.535163449849426
Au 9.886269683410571 6.679643138928962 8.79309120745975
Au 12.72369485187386 11.263086004136374 7.912166752489645
Au 15.213585402715433 8.877350435192024 12.725260804568338
Au 9.73056948665015 7.525699314658728 13.305028716142974
Au 15.821058019748978 8.886811841365066 10.069097951719257
Au 12.640092280083262 6.6796552690719615 8.793206823217592
Au 14.254051403012014 6.743854013713781 11.057262810563858
Au 8.272215216172667 6.743830678712456 11.057183909496757
Au 11.26315296186822 6.458774168162845 11.231156144384332
Au 11.263200427804183 8.903096242166342 7.898059203646245
Au 6.705229346710569 8.88680715013424 10.068909188522484
Au 14.12424809630994 8.866815551903555 7.933700946230703
