5
Energy = -8.79978293 eV
Au 9.741482280385144 8.177617514134013 12.019864797038785
Au 8.759932858900852 9.861247224889052 7.097398511940445
Au 9.234074913353352 8.7611772905362 9.627648189708978
Au 9.45521367459803 7.369487200504355 7.341356940735371
Au 8.148980847980692 11.178803110473703 9.279300104283164
