52
Energy = -139.88051363 eV
Au 12.87730584541363 12.595064616845303 17.21319440102997
Au 12.714863080607673 14.850930849981065 18.786366082345175
Au 15.476744413312264 9.84487058785283 14.37642017880739
Au 15.01793324907981 14.444273633234873 17.39831906345368
Au 13.699054038355621 7.690465787700327 14.631268494607886
Au 13.075597025636615 10.030676088682267 15.947296227717656
Au 15.206709590584053 12.154830695717717 15.770604037193046
Au 10.608707629616688 11.437882481452274 16.231925586603126
Au 10.450416979435326 14.019434199756505 17.45392386226471
Au 10.495884432222834 8.987995365740419 15.061013150125518
Au 15.969121736692054 7.663498595699968 12.869592287197008
Au 13.392839697175736 14.725547382052078 15.131526697109184
Au 13.655626788200685 6.339802364704985 12.187198678359275
Au 11.779588576700757 16.399833549060457 16.726888196923863
Au 11.22953598424317 6.976568985717671 13.384559669093916
Au 16.268069840975087 14.618789754406247 14.990721731185497
Au 14.21717116898072 11.04913361084318 11.844204203701763
Au 12.321154156926157 9.568365736443472 13.02285073280879
Au 8.442796741373359 13.081647781064163 15.90301104494599
Au 8.80787140359231 11.017293615069368 14.088685512486098
Au 16.619017063819946 12.191722547545135 13.369405006247352
Au 16.712252485307552 10.01075296758957 11.581250388039205
Au 12.703573815829522 12.113416298644687 14.214679942608317
Au 9.817133467051198 15.445466020195937 15.061271100351055
Au 9.651381076186517 9.113409798626146 12.245390911754107
Au 14.658919595722892 8.37158666319174 10.545071192834447
Au 11.616518425412451 11.827120783026913 11.553596251304306
Au 16.21423473794012 12.717743374333027 10.592397981872017
Au 8.84242366217816 11.65822578940628 11.382756093478216
Au 14.768445459373147 16.461176564504065 13.211807067993627
Au 11.772118336552893 7.771575946521515 10.773380263516158
Au 11.442201260854837 14.285517829753633 13.056032757083196
Au 14.138823019479343 13.775299393638827 12.47908154604562
Au 12.094773086938222 17.043730640482785 14.101140964583365
Au 14.957176283167275 10.754250212034583 9.099375528772438
Au 16.882103304026423 14.765228237311293 12.376269684699858
Au 8.63186943024535 13.708781243668279 13.25969203956639
Au 12.887734107778085 8.879964885201243 8.54914044525454
Au 10.553784154980464 9.988389425765371 9.70708679141021
Au 12.72004359720392 16.942412717331162 11.455165652547223
Au 12.23534321332907 14.245082335002767 10.371687223799333
Au 15.102303370157292 15.46534949889889 10.435070675752346
Au 9.870759895459784 16.446443770310747 12.440806464287839
Au 12.455055654496155 11.514282911695453 8.116823077907439
Au 10.060406252047583 12.58986187188409 9.04822618360833
Au 8.93543824183836 14.481261216582924 10.70431715085806
Au 14.371893549157882 13.45855978702053 8.630025182190224
Au 10.525744673401205 16.715631902948314 9.812686884479964
Au 13.23918249416769 16.312170534492548 8.703773155641992
Au 11.886072485988493 14.09972546794499 7.444842404898865
Au 9.22187523479273 15.017117093647977 8.045724665895706
Au 11.141544221960256 16.766339817363267 7.078779458047665
