50
Energy = -134.53593021 eV
Au 6.9337863578656584 11.237356435160832 11.037355925022815
Au 8.557218296261222 13.406165766762467 11.051771526366277
Au 10.548251998166402 13.550276947701791 9.068665049288974
Au 10.215171382531567 15.594833287251237 10.996751752569741
Au 6.950446188356606 9.68411289841664 13.271376220743033
Au 8.190139897390889 8.703047340293276 10.933373344417067
Au 11.993180423092964 17.695939376706026 10.955860667768807
Au 8.921289354677604 11.291626607296108 9.104700850821773
Au 9.979682112868565 10.76851288032877 11.615584839379617
Au 10.806058550334173 16.937155914586178 13.42892731959922
Au 12.572411374263458 15.535544408444368 9.416119335738777
Au 8.786240942408929 7.6684497850205595 13.4763031089789
Au 7.916891838403776 12.237808466993933 13.543578961604013
Au 10.220835572498753 8.787008015094743 9.151512279817593
Au 9.295703316853563 14.614051705262087 13.540724788476867
Au 13.032557393976774 13.303652504157478 7.937230939225682
Au 11.310991758153127 13.165369630661836 12.08368621451668
Au 13.034979243192476 15.300906654395803 12.422244353172452
Au 11.614081266707043 10.990600695630423 8.378895990189262
Au 8.941314021444272 10.025441874535835 15.081725722368764
Au 12.365423106732857 19.217482330356127 13.260993425381525
Au 15.266953007119481 15.986005080322032 10.349111807535925
Au 10.874939381281013 7.898319350961271 11.706356675615503
Au 14.521759788157409 17.930280094643717 12.076058963287426
Au 12.824951323220002 10.987026041382391 11.389285312911653
Au 15.701699145278806 13.829048463614205 8.652908733621036
Au 12.893245840744287 8.745472761909681 9.870052401262676
Au 9.919479426302182 12.659723785450568 15.44752858984407
Au 14.022216940037234 13.37715996526365 10.754128082235475
Au 13.46838975493026 17.034072145472354 14.599280620572186
Au 16.903198299309317 13.945677332161463 11.313516899074072
Au 14.361150503101873 11.068090945424771 8.774623851225483
Au 11.224731071180061 8.147424185806967 14.52000828307424
Au 15.829916080306592 15.801121349673162 13.166253330951008
Au 11.616242564953016 14.922357458041951 15.130015192676266
Au 11.126682731011716 10.28645849270149 16.63794383519976
Au 11.498859410126556 10.907862939764335 13.868774273098573
Au 13.81240355720405 12.635913246907096 13.436989903188094
Au 13.381065842972067 8.54813103258434 12.728410930156583
Au 16.886180583855104 11.602845237208138 9.777678905772847
Au 15.320771984348902 9.677285912764322 10.995427791272988
Au 12.594127890950947 12.666559902676479 16.28382991465004
Au 13.530470535332404 9.419250931361423 15.362169376701955
Au 14.435621557713912 14.590059212451587 15.309973659063832
Au 16.634312024305565 13.357481434810154 14.021779494598645
Au 15.207514259879824 11.836975145394556 15.885834974064718
Au 17.62600475921342 11.393619253849998 12.31375485759024
Au 15.587647326499997 10.033550266567051 13.6859277796344
Au 13.619505133186657 10.586877414644794 17.811927260212517
Au 17.77117997487137 11.0578821847032 15.02094077903487
