51
Energy = -137.92046735 eV
Au 13.93126779910367 8.302355525915411 10.716776220115111
Au 15.35734915954469 10.652594246470523 9.939344076564199
Au 13.964793366991186 7.467680853129116 13.414826668392324
Au 15.6089741539106 9.599851018945698 12.610289797459107
Au 13.310169402985432 9.616073635965158 8.319530380126436
Au 11.354384170338635 7.936577858241286 9.540872369409511
Au 12.069749904881933 6.400842173893149 11.684381390155117
Au 11.799574141480706 11.94504503607752 6.917050859527436
Au 15.956512321579652 12.32668184797175 12.132795174462103
Au 11.322291250423852 6.9168877671530655 14.288734344852012
Au 15.406376309884466 8.912245244044279 15.255332453240417
Au 13.346470760184523 11.075706841685282 11.78225823226825
Au 13.10503178240034 7.812749431368322 16.120360426259108
Au 14.470296138854314 12.034746288958905 7.636522919908491
Au 10.641224796428546 9.485952944818685 7.389816801087666
Au 11.87635432905556 11.09858691965772 14.10962451908605
Au 15.559167200152851 11.534575134522342 14.822580231738614
Au 11.4942231279995 9.077628290250619 12.348956334049056
Au 9.385317106593098 7.452106923860687 11.595319093495684
Au 8.987581620811003 9.48747012402057 9.746706604318495
Au 9.20525158375801 11.806823405305897 8.000264750535004
Au 15.98758621275513 13.38159279827065 9.555987616199735
Au 13.014994844508026 14.4062023916064 7.242709942676234
Au 11.39600560682382 11.034837027819007 9.761105321815409
Au 10.802804523136636 9.271341008210012 16.055057878620747
Au 8.95829691932242 8.205872769266678 14.24144130022405
Au 7.7363282771831745 11.891136758427244 10.399802884414813
Au 13.364516666450315 10.592543920604488 16.398706826190175
Au 15.839653798514828 14.15673105259322 14.215478151363804
Au 14.491682215062001 15.680392207146364 9.118536801301207
Au 13.186213922155195 13.238649579861496 9.90172541631978
Au 10.31261610836625 14.335536313406823 7.423287164997901
Au 10.404250144721036 13.591397625487488 10.181064480264602
Au 7.938349652840588 14.172771537671789 8.743378466856424
Au 13.384392427726931 13.197377491168492 15.313097117696698
Au 7.834875026677808 9.80145727897339 12.32758658857763
Au 12.051737376283985 13.434798572451616 12.436707504036383
Au 15.456026149590995 15.098533284057185 11.680786560703272
Au 10.901277194598013 12.1190957371635 16.445201396450933
Au 11.68764705697241 16.04135762948445 9.326448160520762
Au 10.002929668761878 11.487413500966342 12.107287587566391
Au 8.82266771396665 10.841920246710064 14.887697898964039
Au 6.872225798288523 14.424400551436564 11.252183146361876
Au 13.496098155255378 15.498275643258133 13.634293835784169
Au 11.096775740741833 16.152925990374936 12.3207353305663
Au 9.101494700162698 16.010546834618488 10.484851831697128
Au 13.45781374816069 16.995874464419536 11.283014610139054
Au 11.065159361161497 14.627552232872 14.742931904628835
Au 7.475119176553183 12.510621839485744 13.144688967184102
Au 8.70550205049616 13.509070484856453 15.49351683705709
Au 8.757110220043941 15.024394015927596 13.186487510185422
