6
Energy = -10.10000004 eV
Au 8.04526277372971 6.597826982673694 9.379027988036754
Au 9.943541151247747 7.265714181366619 10.981546214077882
Au 10.469050045464664 9.802788015111878 7.295804314453567
Au 10.167460067346957 10.423405408830265 9.96896615314854
Au 8.141926191161295 11.76530011881117 8.434734891856191
Au 8.236361398378941 9.132550742818358 8.931800067487018
