6
Energy = -11.59815557 eV
Au 13.844358258517703 12.072321129656201 11.914175025138743
Au 13.19374197976192 14.157724172381148 13.417131547967417
Au 12.148630283388854 1.1807591448399235 14.477541026865389
Au 13.46229247083783 11.808297513877628 14.539686145257493
Au 12.469519998056123 15.981983213606782 15.118025069733967
Au 12.68585663796715 13.650588729961402 16.31243133116973
