6
Energy = -12.68989207 eV
Au 9.567896552301372 10.76867164246084 9.763193844612188
Au 9.772385085702261 9.839542641673557 12.200575646174158
Au 9.359428917654194 11.542675593159164 7.272472399250606
Au 9.25547743979781 8.066224807569888 10.337342654916807
Au 8.675549490439892 6.458947302010027 8.344084258884635
Au 8.986577902365989 8.985213890862447 7.715027832692665
