6
Energy = -12.71628108 eV
Au 10.84909208265001 10.592089383839042 8.183049022157414
Au 10.059427789096608 8.094629635007248 8.152462230735198
Au 9.112363777665067 5.648492886384435 8.203849301905555
Au 8.316824965054252 10.188852966551343 8.751790277419365
Au 7.425116955592371 7.551326410214996 8.82249520871247
Au 5.882471183300318 9.554043509987741 9.510389006712419
