6
Energy = -11.2268385 eV
Au 9.932486834303333 7.251567491824523 9.64044154545597
Au 11.339164439463788 9.343002915459735 8.402769306302016
Au 7.330893585744841 7.728918903375291 9.648426766581222
Au 6.753009764377699 10.18318112193668 8.416188992168895
Au 9.09750189337081 10.020586768741351 9.779001092011631
Au 8.86465640742208 8.790455798662535 7.43088529748039
