6
Energy = -11.59021161 eV
Au 5.096364006113611 6.914947331150452 5.390551048355605
Au 7.588032619937832 5.246207162883002 5.310183739371809
Au 7.012487048931531 6.9986903736392065 7.1085742620783865
Au 9.347306114307306 6.052509816529697 7.641489709876296
Au 5.30867471892546 8.821079199896944 7.738455622384983
Au 7.962019591194788 8.281450215310963 9.125629717343191
