6
Energy = -10.44549075 eV
Au 11.387630463130634 8.65246320224712 8.257171924338717
Au 10.984601502179773 10.840365256892733 9.820895605925264
Au 10.704545031112785 8.263782097663945 10.89426925067926
Au 8.907960006920227 9.257799802450386 9.086947392494556
Au 6.921549961907434 8.396430322446026 7.58466759739081
Au 6.4304593202324885 9.923356109411177 9.68877359118496
