6
Energy = -12.74966124 eV
Au 11.512168603698179 7.548530294764374 8.246420762644556
Au 8.891435533122358 7.527339336175177 8.405480295523663
Au 10.39912718655047 9.72403942172221 9.196300905742829
Au 7.632621321403866 9.765757574878712 9.478914104631107
Au 6.285863447116961 7.667524763074136 8.651199499861853
Au 9.148864954247408 11.832617581478765 10.08882742748974
