6
Energy = -10.99077256 eV
Au 9.796972335192875 7.578596243125236 8.627790876923335
Au 7.5016071604063415 7.8671491859889855 10.07042912912359
Au 7.138620720723517 9.596632959021282 6.146595740549496
Au 9.727417958821839 9.330012383212223 6.682725170677359
Au 5.9591030077910805 7.969728558872352 7.8238498859962835
Au 7.6814120132638335 5.905042637090328 8.320840875400835
