6
Energy = -12.67238734 eV
Au 10.964776583565369 9.108788434166607 6.701682627602244
Au 8.510401665805443 8.69380606562809 7.525658513407805
Au 9.97572617933223 9.557540699035927 11.826507629830632
Au 6.108553393089676 8.354954579619447 8.509673538038445
Au 10.554446509034163 9.392848052369708 9.274563670766476
Au 7.9704462887778735 8.972150580220175 10.24346180263351
