7
Energy = -13.79537681 eV
Au 8.587704179271219 7.459296153016436 11.219319947298684
Au 9.500232159422152 9.800057051869084 10.292376858687819
Au 9.834390204438492 7.313921027302657 8.895440259579441
Au 10.39804080076032 8.680662461105213 6.689117741494687
Au 10.110245719993006 11.158616700122995 8.11731493396997
Au 8.079623632119393 9.306176702706502 7.86061363841387
Au 6.772125553305236 9.478347713048203 10.134206049363492
