7
Energy = -13.8483316 eV
Au 9.54772725145181 10.943717782353636 10.62761360220971
Au 11.821513597668917 9.776807285925326 11.567929470329613
Au 10.794799195051887 11.848440344745697 12.828214569951628
Au 8.246655442052242 9.840983807654014 8.644738849590745
Au 10.71433046300939 8.748989376721111 9.371116762667254
Au 6.920341819592623 8.570119373394903 6.716566568889259
Au 9.225694733717742 7.576556786165405 7.500806118907407
