7
Energy = -9.10612404 eV
Au 5.20427382674658 7.80104149007072 4.612602100822559
Au 6.039105927166857 5.330383447356313 4.9910363000878455
Au 5.815099690246681 6.422212069962912 2.46232636095104
Au 3.2473792965091217 8.374158378779844 13.189985512435081
Au 8.98908520654225 5.651744790579477 4.982756316885824
Au 9.550047820565316 7.653470016434218 9.006017067976195
Au 7.609270357588127 5.245273318051008 7.212057349251968
