7
Energy = -14.57439193 eV
Au 8.134817473784887 10.81175653588514 13.182060746221957
Au 11.557378050269625 10.51878358549868 10.015819272579998
Au 10.05062717458587 12.099372781547206 11.887601291313356
Au 9.434678279619504 9.449306937791436 11.34924825184602
Au 13.730742666582952 11.651059560108717 9.030665076989878
Au 10.735164912015922 8.072176281982918 9.541794303413306
Au 12.095783261657239 13.102829101122413 10.576273374219966
