7
Energy = -14.18533214 eV
Au 7.4263962313574625 5.886593116952536 8.901791188320644
Au 7.99624331740092 8.116577394468907 4.97074992395194
Au 8.048681550359714 5.68740594871456 6.240377782061683
Au 5.399465822516739 5.355218096451514 7.294853139041406
Au 6.572941459655218 7.966893005427908 7.312230645804712
Au 3.6853913011299837 5.149240887219479 5.319497391972392
Au 5.760575019711931 6.703520999917662 4.8633071235943905
