7
Energy = -14.20735242 eV
Au 9.746169111516311 7.839016564729381 11.455858799164902
Au 7.45745981532754 9.221975313890088 11.187925390648969
Au 11.289911669951325 7.471209222786746 9.184880642557296
Au 10.767101407966821 8.994788708312441 7.046801873867518
Au 9.128659065012666 9.131072085585519 9.130751936954391
Au 8.716755544661348 10.724158500535005 6.955860866511213
Au 6.798134166469799 10.519548980228212 8.952921598340335
