7
Energy = -14.53897668 eV
Au 11.243652300360909 9.2275490997175 8.90130590034097
Au 12.323405914640356 11.631274985648568 9.017378680515877
Au 9.917278359646092 6.972781898038362 8.925023778593477
Au 7.321614048385843 11.31305774908758 10.548572934761811
Au 9.83106751830961 11.447484176594177 9.822693944542461
Au 8.475422034025378 9.099001773101527 9.721809398150013
Au 7.313159607980675 6.725905301767328 9.480366705939193
