7
Energy = -13.41657199 eV
Au 12.304601306521297 11.728014553460092 9.454043908008446
Au 12.191713418752288 11.271654104731233 12.344410683192613
Au 12.29396509113014 9.211026525446064 10.389783036310797
Au 11.457094863784286 13.53651879306803 11.203091690305747
Au 10.961783177903953 8.9259895750344 12.718361289496144
Au 9.967454055785543 10.739457202319176 10.801062571202435
Au 7.7768581144206745 11.58058289546766 9.85445124788528
