7
Energy = -13.88107727 eV
Au 10.92110223095069 15.724697919310735 10.937177350897409
Au 10.779750773424016 13.167977348146886 11.744548748393381
Au 11.029084275983637 8.240601310459882 13.62440708866305
Au 10.833947179891021 10.695930321351657 12.59358705442409
Au 13.032750428476394 11.618207192779042 11.215500427150879
Au 13.07449599401574 9.162146942631107 12.238430535840783
Au 12.923139599197933 14.123462139223326 10.355181874318145
