7
Energy = -14.13632787 eV
Au 10.899633671499506 7.3768471186571 10.578198992763971
Au 8.560976663195605 8.265733571299808 9.740190776881159
Au 10.922093225152897 9.078340628182595 8.403578135279693
Au 10.519612997862202 10.051175742731239 11.032090721000344
Au 11.141008021610372 11.747283799705768 8.916243996830087
Au 6.379520639541005 9.623757644860916 9.18785162464265
Au 8.63271007936624 10.975149667286859 9.158614526250693
