7
Energy = -14.20798625 eV
Au 6.92352655593583 10.47035730304455 10.992615196524785
Au 9.35908378168134 9.739912886402651 10.358976451771762
Au 11.60678819399953 9.933665262850289 8.848399826929366
Au 11.045782739819439 7.586431443769141 10.22153076387979
Au 7.1930773693517205 9.319262999818108 8.656561075467936
Au 9.657743031454938 8.20586014184577 7.980537193383563
Au 7.606580113425757 8.147178825083891 6.352713965614068
