8
Energy = -15.78765165 eV
Au 10.822559920690324 8.066374720075649 8.552001186489582
Au 11.886439159236193 10.435455945525998 7.752390266120614
Au 6.700443227589864 7.611203612580794 10.748027098572711
Au 9.808082063539977 10.570226159006296 9.510789697122608
Au 7.909218981712648 8.57435614699373 8.498944295012192
Au 9.399331775559922 7.874191125075176 10.772866695858829
Au 7.4876805838202865 10.23524527543471 10.72127952425214
Au 9.334235882848017 10.064109355171093 6.830146288327515
