8
Energy = -17.5195559 eV
Au 7.535396359745606 5.086186352396053 5.364383421857763
Au 7.075861397938371 6.194583658604178 3.0508110573242555
Au 3.3480137004136745 7.989234321140145 6.054804622632839
Au 7.250414175641513 8.170444011179798 9.471165043711641
Au 5.45305699672996 7.8925215797408645 7.5968440212546495
Au 7.4451378127560215 6.0439756686148645 7.946467886911794
Au 8.29328518003628 3.624093524627048 7.388014077588656
Au 5.498757005265572 6.898883512224042 5.027432497245243
