8
Energy = -16.97879002 eV
Au 6.692932866006331 10.722186920421974 9.611667953023861
Au 11.088059169921232 9.785198498002622 8.36935346672003
Au 7.485014515586153 8.106735901558634 9.357729047928279
Au 9.996152460704915 7.455642970203005 10.080149594877838
Au 9.150036699211682 10.153292277532707 10.449896012881815
Au 8.571546177391452 10.42187142036786 7.650035495349019
Au 9.413185385379165 7.80753694072651 7.397028746570235
Au 11.641182882394133 9.429988447706199 11.021289885561396
