8
Energy = -17.2202242 eV
Au 7.845579993890755 11.374162103616733 11.550082516760767
Au 9.092480364768923 9.60870338981449 9.942029960314878
Au 10.458276288114972 10.474028624679256 7.728569509788151
Au 11.692465312848114 8.678262728503029 6.227502282157063
Au 10.34367636755802 7.779222459480839 8.31615446236601
Au 8.919915428090642 6.95983695457351 10.398873332269874
Au 9.296113291571332 12.226450674115606 9.347875815900712
Au 7.939591536969164 8.795758022403431 12.227341182927299
