8
Energy = -17.48346279 eV
Au 6.5632951007849325 8.28261008760656 5.904964028937965
Au 8.17792389190997 9.601755748547054 7.498181893245486
Au 9.213519397627563 4.488860310074029 7.145826159913042
Au 6.675058326706565 5.084686405911982 7.510917131312669
Au 4.12364470578686 4.818495012361149 8.087093506027585
Au 4.700109516318301 6.254839920663156 5.983490388666403
Au 8.601735524453598 7.027652956278184 7.28132156581422
Au 5.088476700388575 7.659127762641831 3.817507200642394
