8
Energy = -16.94730386 eV
Au 10.01904598147433 11.636426016015951 11.390517991810738
Au 9.273946511807937 9.17645863780291 10.779851719891367
Au 9.915927935612617 6.643806129671641 10.144613619547437
Au 9.938892629076728 11.05445020489599 8.840821050278924
Au 7.036829846257287 7.804694010399793 10.104933700183231
Au 9.664658695579607 10.108152386397032 6.3579557193845435
Au 7.778073005473843 9.361075702338558 8.155625726847383
Au 10.478544820063936 8.337628421059582 8.239026489934679
