8
Energy = -16.59954721 eV
Au 8.562121715090006 11.255590056368312 14.575950985997999
Au 14.056290733679674 11.901703112824052 11.431465611524454
Au 15.613383158857998 13.490370028253345 9.99699641477039
Au 10.92568660102378 10.838765436148085 13.457869734378766
Au 13.003142290267025 13.738861446257141 9.69235113818804
Au 11.34903412914665 12.341154853974476 11.163355141165303
Au 13.340863921378268 9.989875176162295 13.031765455772826
Au 8.932851901147119 12.197158356717894 12.146680170881181
