8
Energy = -16.82206866 eV
Au 9.912140909198886 8.786671237821604 7.3079831601567875
Au 7.096227453616537 8.909841442023227 7.0734028976002215
Au 7.338677611556458 6.953750216716933 9.119882269891427
Au 8.383780319145368 6.588938151877716 6.5745828491146865
Au 8.577265408894338 10.923535228871188 8.277305069452813
Au 10.066412092248457 6.570167900207346 8.954635333395501
Au 9.192908782357163 8.887842254980542 10.047326869697743
Au 6.502979241023103 9.44964538554188 9.715273550690823
