9
Energy = -18.92473284 eV
Au 11.325039379443337 8.80908740926183 13.129922724973408
Au 11.11996274371653 7.6822733269697805 10.799327078956548
Au 10.116267020298162 10.987792899525985 12.368078330456497
Au 10.942795968657332 6.732341313189914 8.383867537162692
Au 9.9088133272589 9.908368404528991 9.927109387772335
Au 8.840653959063161 13.071865982454144 11.466867171938231
Au 9.77243365155252 8.867072918298339 7.464221703680978
Au 8.659729346032549 12.116081577834656 9.057733480182614
Au 8.524682790637115 11.024683891761883 6.7030568847453695
