9
Energy = -18.65152485 eV
Au 7.286716500280462 7.813360210054527 6.56924083798993
Au 10.051214244972213 7.826524807881047 6.571936726971591
Au 8.678157634536909 10.43765951862848 6.537341910967953
Au 7.234600400749292 9.538712052560337 8.67311440720395
Au 10.119964602159051 9.548727233248906 8.673110363665593
Au 8.671431030076096 6.8145880677923625 8.673227751320725
Au 7.286739671096258 7.813603510356833 10.777101959234201
Au 10.051190373235853 7.826759152345479 10.774415218606885
Au 8.67816904229548 10.438248947132024 10.808694323142012
