9
Energy = -19.12233557 eV
Au 9.269100730673237 9.251410499645303 11.458420336891054
Au 10.58242370509598 10.90204398078315 9.662731616191827
Au 11.394023925855187 8.389019952570328 10.03103328413924
Au 7.82500606882693 11.26078725702825 10.289572858272745
Au 9.002000368153272 12.619751353958085 8.24601828054186
Au 11.479611586258201 6.074902382954081 8.726471783572567
Au 7.141674018618188 8.622967715214939 9.760269519477017
Au 9.223455661041031 7.443296921946818 8.511069644221987
Au 8.613725714597146 9.966728732286562 7.845583266773952
