9
Energy = -19.08649981 eV
Au 11.366255591107404 9.735651985948289 7.519557731673237
Au 9.047515115763227 11.065541647156639 8.267000108472063
Au 10.982779092671699 10.12156705176639 10.138372121209564
Au 10.126816792288096 7.6680153175676855 8.861312236873871
Au 10.211548493273659 10.33903519856558 12.732289655668847
Au 8.776713965685039 8.794496762582344 6.7089713334365815
Au 8.336625239373964 10.967863503135593 10.850466783444416
Au 7.585606773471757 8.846955244337435 9.215956569813168
Au 9.262024541870757 8.184246667370461 11.338044348597684
