9
Energy = -18.35309752 eV
Au 8.976975470050503 9.911188698132964 7.551598629222236
Au 11.280608728263912 8.473731233435666 7.276044238846296
Au 6.927147109140365 8.31141466836299 7.1551169807915445
Au 11.346552023813855 11.00881159602348 8.348286837089846
Au 9.3031785677052 7.177335494759336 8.483105247799797
Au 7.113344018156506 6.293514950437048 9.6919439468338
Au 5.087895265498156 8.060428581250914 9.103474400281234
Au 7.530457097452818 8.984700704424252 9.901102599032725
Au 10.106144288930018 9.451176642184542 10.161629689113699
