9
Energy = -19.44107874 eV
Au 9.714992661896575 13.15770099983692 10.992511637314564
Au 9.584211065470706 12.20285240416251 8.528710096375518
Au 9.558475334180978 11.072375669024847 6.162236480982289
Au 10.865798706844084 11.715376994793909 12.8824702393372
Au 10.280305731948262 10.487589602158575 10.528848722456004
Au 10.085778642220895 9.353520726498145 8.065137989568111
Au 12.043343893371455 10.121061388270217 14.598236168990828
Au 11.363470832158793 8.863352919413959 12.415260283956254
Au 10.650887395993083 7.776483063538437 10.115588244394448
