39
Energy = -122.34533866 eV
Al 12.090329466388846 5.465346860483347 9.538644443983037
Al 14.610240959620004 9.833858410208368 10.39617478532584
Al 13.700523045198894 9.474780087697315 7.883870630464932
Al 11.517154206608431 7.623266120769245 7.6704803434915965
Al 14.57496077944023 11.286789179881215 12.790547830032747
Al 13.610138319819887 9.763653296424945 15.063319509521072
Al 13.310331725173278 8.72552203215751 12.513595942084395
Al 13.287065932727362 12.439548977403362 7.888267854777103
Al 14.101527605452588 12.510817203148697 10.396268884699099
Al 11.274795366523648 10.660961447231681 7.185166095143293
Al 9.824138145548 6.844358298147855 9.859105335928703
Al 12.599195937791574 8.06449763767092 10.045988846352353
Al 11.941531902076584 10.904155674360684 13.207957282815856
Al 13.153180623192108 12.590415489735246 15.018538074531602
Al 11.993152598821462 10.744081655913298 9.848645692003556
Al 12.534478241535481 13.478580358244088 12.468293968187597
Al 9.550367931951563 9.222398483562559 8.696664202394274
Al 10.813409244062306 13.537622305176876 7.368445077682286
Al 11.623580610113594 13.589396361355414 9.930073293103762
Al 9.841759798812257 8.596712191499602 5.876694853020708
Al 8.54338086409456 10.789285508270428 6.537669344609554
Al 9.159061625208947 14.54187116814562 9.314395000307773
Al 11.169334268481943 10.861354394767016 15.869344050222644
Al 11.40466734553418 6.7104403915355055 12.05122460495363
Al 10.229716161666401 11.992585006344184 11.573050862110138
Al 10.52791813783505 9.260216424822785 11.456163010969753
Al 9.489350696191796 11.828056521526388 9.038601707416754
Al 10.05535146520706 14.624787718247607 12.049700633462166
Al 11.103910144432765 8.454056452625704 14.138182421863432
Al 7.516181920765177 8.09666451760932 10.283469361219838
Al 10.415189731291221 12.966993551582014 14.286985612022749
Al 7.079033407671503 10.407022919678646 8.871358675804611
Al 7.62454126281869 13.162342261028934 7.38747139719439
Al 7.494957107570737 15.23393046679362 11.38785616565276
Al 9.225166505610611 10.481471298280542 13.77655574770405
Al 8.70508373840981 7.836836753708492 12.809878122198368
Al 7.992330151805919 10.529352652560247 11.405999429275553
Al 8.027087599160158 12.890481014804571 12.852543822116978
Al 7.133017199718015 12.83150820034695 10.130105742096115
