39
Energy = -122.44427249 eV
Al 13.39300544721156 9.98080592305118 13.32134600050305
Al 14.979340667329492 11.707489854737112 11.680709533551957
Al 11.264751884187902 11.116111773694241 14.60835271327974
Al 12.887691002515982 12.652281082218146 13.049566938845937
Al 15.595732456533494 9.120354762017904 11.902380588512129
Al 11.0147971021238 13.889554065324253 14.447747651219293
Al 11.428222392003166 8.323409461626417 14.41370607575876
Al 8.721699909638453 12.073645736052583 15.421026341187744
Al 14.079339824437543 7.28637544296727 13.54929189516494
Al 12.538434292348178 12.489754046742119 10.388919264701565
Al 14.613838131105975 11.5402776158374 8.972951241491113
Al 8.90336745865613 9.79393668554311 14.002274483660884
Al 10.946614255299503 10.16984979124865 11.979834234695334
Al 11.071653654520343 14.217488071801352 11.712397247456808
Al 15.303713825842427 8.774106665074433 9.084310929220662
Al 7.076989916563267 13.677111416533938 14.025898874403534
Al 9.4370766342755 12.3342747264587 12.838200867041602
Al 14.432681683466921 6.8153991681340464 10.828433140718994
Al 9.038469097181194 15.240705665890038 13.090134014553424
Al 9.482495183004431 7.630246701059476 12.519444518674774
Al 13.258189865259032 9.78628029444573 10.628776211245608
Al 12.030373254703493 7.5961797055373035 11.766803285996216
Al 6.8536813029542065 11.422302330660036 12.727841956749844
Al 9.088971839413468 15.822572619631543 10.453661245555544
Al 9.650599551249702 12.140167894624813 10.214503944664003
Al 7.449434746032532 13.741185214902154 11.323697188013433
Al 10.92771857877029 14.388621951410153 9.025474363071954
Al 12.573935077020282 7.695492708339794 9.006694136922754
Al 8.326579548522135 9.737830809190081 11.268320756454376
Al 12.670015898395395 12.808637498446464 7.6163721632831995
Al 13.478813934157907 9.582554519038853 7.243595652215122
Al 11.45040348179585 10.561610786404607 8.83179255946107
Al 10.052225692994885 8.193428118656215 9.965997220537728
Al 6.910689190993315 11.575770911313795 9.838481385129665
Al 8.073898888191442 13.942565715252046 8.714350270989815
Al 9.87128135261587 12.382168827791556 7.409946999509729
Al 10.588886770966749 8.520528823717134 7.298151840954179
Al 11.551385158417768 10.900305356011224 6.039212986693173
Al 8.724489499360653 10.113829947247329 8.550456549009853
