39
Energy = -121.78914841 eV
Al 7.033545814472193 13.394735310852075 8.853356094432332
Al 7.207789804064834 10.769189043100173 9.78301080686903
Al 7.844175679695059 11.226077095585229 7.246882133199463
Al 9.273059444862174 13.376592725190017 6.608100496385293
Al 6.411910400295288 12.796741977759716 11.481178952921743
Al 6.874552461846086 10.19676272512978 12.445271401793276
Al 9.087623515805936 15.078824362691519 8.694595863765404
Al 9.525932595414401 12.265441802164728 9.152606322545362
Al 8.37091781282116 8.607600767868833 10.852271211728826
Al 11.083867772515934 11.16498710392997 7.117365888055944
Al 9.474410440147231 9.541641199633895 8.606071124064899
Al 7.815803164925962 12.444402846897857 13.705343737278518
Al 9.332603226961142 11.231856442171468 11.638223873759172
Al 11.566016968922776 13.72401911519871 8.16844441841678
Al 8.898355641826187 13.985385027596573 11.321698494110189
Al 9.404391798808955 9.136731921616699 13.315684741213188
Al 13.117488627265693 7.640480542884647 9.571430317797137
Al 11.96062264612137 10.156397934646758 9.536206130918227
Al 10.98063450494167 8.127861306405007 11.13775226565336
Al 13.599740228696277 12.067020503674664 8.412682788652974
Al 14.812275873020152 9.876357331905243 9.36985549772878
Al 13.169075574478132 6.586939854079118 12.065588080873367
Al 13.453998965896918 9.320854028898886 11.69417401251461
Al 15.55325392653577 7.5889320851684445 11.04938080757717
Al 11.889181879978294 8.157976134311497 13.763118433067696
Al 11.738245016474165 10.872262653115303 12.9156538712327
Al 11.184648571500821 15.48788712632271 10.259336056564072
Al 11.450773994940928 12.806657348059998 10.988887232817069
Al 10.339496310338749 12.963197232067172 14.162473669957686
Al 14.198931836329871 11.915632046513831 11.105757171773957
Al 14.888846554853426 8.308607235718164 13.687070044719183
Al 13.58191743345309 14.318669513981545 10.139253856887176
Al 10.670091778845187 10.098173094675973 15.40666578213718
Al 16.209545765662433 10.138804263158029 11.85093414772429
Al 13.360127317083114 9.517685885612282 15.60157884650675
Al 14.511914880876175 11.104832735648237 13.649331947997187
Al 11.022265263815976 15.099886694817199 12.805101197393748
Al 12.634410364849572 12.078875023723768 15.369612779329207
Al 13.091820291756342 13.461249592917163 13.091780291032471
