39
Energy = -122.52907695 eV
Al 11.378621825876827 7.503123860914084 7.964391398424311
Al 13.851454779431943 8.367082604852763 8.26415721964242
Al 11.335287477994079 5.868142601594729 10.460737705981273
Al 13.951434125584958 6.418778130485076 9.977063637958523
Al 14.630734152148632 10.85297993790766 8.718712860721219
Al 11.944220665085334 10.221178612613564 8.135283712401176
Al 9.294191046315703 9.488916597480225 7.572364748635216
Al 14.388534094507495 9.506652904098491 11.240450346635363
Al 12.012104326013567 8.625219154961584 10.428225501733133
Al 10.688613551458635 7.489507925403673 12.628632300662401
Al 9.498164643310202 7.695124723321128 10.025043503417352
Al 13.337621911236859 7.235661544461298 12.442843154803773
Al 7.416954925451852 9.17043789551698 9.710638683336672
Al 15.642950266037769 13.401422048145994 8.772715083296736
Al 12.880682152797496 12.820285059178488 8.212934361066
Al 15.684036816862276 11.818042979437045 11.039375243866072
Al 10.191779432558551 12.055810566590681 7.58326317568081
Al 12.342692831275514 11.470896688936287 10.66702361193807
Al 9.893080678449476 10.526724557986403 10.092103036963765
Al 11.081028294386657 14.562590292087425 7.188043515341748
Al 12.429446763973548 9.605057755990346 13.158388259048333
Al 8.546004735548728 9.066478439065607 12.319836102971195
Al 13.822169691794938 11.960754316298113 12.88395987431425
Al 13.85763323716889 13.896841255425358 10.74789784923495
Al 7.776606069070815 11.660935833652728 8.78379336123876
Al 10.280002310333275 11.204353489157388 12.61333820195375
Al 7.449197399949066 11.32559909592986 11.391073559694675
Al 11.380831814384365 14.202989363852254 9.86662605663229
Al 10.113592927550926 9.326299260616329 14.603990192866863
Al 9.351863925780318 13.31451071115359 11.267232678499205
Al 8.956795005705095 14.188344338442988 8.749219304181281
Al 11.897345284650813 11.942930491938553 14.642834173129884
Al 11.806769452220635 13.80768002934487 12.49519339042817
Al 7.805944700537571 11.005728808169023 14.061447525613097
Al 6.761371820274935 13.771919751484553 10.286915992269224
Al 9.679018036500157 13.611774689818171 13.998244892098796
Al 9.632822197188782 11.70086331315383 15.982474918491768
Al 7.091551050602311 13.568417408301821 12.939550020017935
Al 7.439911664110575 13.263009046360144 15.60704692893754
