11
Energy = -21.12388007 eV
Ga 13.19698296687458 14.782977137361291 12.265279060965966
Ga 13.313506135403891 12.271811676096561 12.453941377686624
Ga 11.875337895996886 13.770501553268202 14.399312538940858
Ga 13.151661069662953 12.517472968468343 16.30928224787871
Ga 14.298975445345254 10.99277752047308 14.508460175836825
Ga 11.287772858869017 10.730319175763798 12.044323095717974
Ga 10.099971276019158 12.172628650444352 14.09597746534699
Ga 12.181371798325799 10.143154826964997 8.48413054877752
Ga 10.464840269338728 11.90883318843256 9.63673728692596
Ga 10.28959652971387 11.178845521009299 6.77234941790758
Ga 9.499773026825153 9.375524393618647 8.415278026797354
