14
Energy = -33.64581061 eV
Ga 12.115365875622285 9.385649030695715 12.32580483489477
Ga 10.905318298079697 10.590956319686525 10.332573728244709
Ga 12.651506043526348 8.72263088315394 9.650884195206247
Ga 12.011590272841431 10.46818201213272 7.752831665947698
Ga 11.604336415679185 6.67341073638902 11.50224897826966
Ga 12.408314964720777 12.534495028109674 9.372922172495201
Ga 9.56367838423672 8.58767212487285 12.160800498642793
Ga 9.660890596842936 8.343849793330554 9.566189412202387
Ga 10.708091303344034 13.424496674761683 11.216700310567465
Ga 9.23877928656582 12.33718800530491 9.304374035588973
Ga 9.321277400732804 10.165995232837636 7.7834108823342145
Ga 8.187421699637053 10.62437270918052 11.129810371376628
Ga 10.292834191113766 11.394653029550028 12.794573436958682
Ga 7.946893967891584 13.403215837603863 11.731704387820896
