19
Energy = -45.85322542 eV
Ga 6.96809112499989 13.149922512402368 12.507163238439444
Ga 10.854338709365495 13.14788181712503 14.187652267965591
Ga 8.935295584552177 15.139663572481613 13.664244496355094
Ga 9.27554342407926 13.871384201216038 11.30145794187237
Ga 8.228521895875552 12.825935140411206 14.992516261179455
Ga 11.32085727116677 15.34202876669042 12.558263812691491
Ga 9.230048783085632 11.541667245582136 12.702743839188221
Ga 11.758902234098743 13.266327657129475 10.788945988558826
Ga 13.260308061579817 13.120028192884396 13.208171291993711
Ga 13.66828749349338 15.607749646134282 11.515826520086817
Ga 11.748540232626242 10.930801203918271 12.325753131463754
Ga 14.612029943823693 11.001126347171198 12.534385402235342
Ga 11.780125213065546 8.739728778557394 10.723687105187505
Ga 13.123465163466395 11.021071923751707 9.991716323481603
Ga 13.54905730942107 8.750452336348543 12.784095704068664
Ga 14.63782579626548 13.328028635191746 10.762834053481896
Ga 16.194439381863873 11.341870609966723 10.115034452564252
Ga 13.565320413010989 6.66784867980888 10.76830993916286
Ga 14.875477397572915 9.103398048976796 10.233220340577555
