18
Energy = -44.29437762 eV
Ga 12.784314202712316 9.024342630362419 11.574088564636606
Ga 10.18847009071019 7.25531009588048 8.689564231000181
Ga 7.578969619439421 12.452376259062913 12.509519009988402
Ga 12.641854104872648 7.382389774881922 9.48883499613177
Ga 9.423455732363161 10.455920059460004 12.742453273142294
Ga 8.679188503212085 7.791655215122077 6.3834449366140396
Ga 11.892197524674964 10.786544930666595 13.250191810611314
Ga 12.959675643353156 10.062726827182908 8.882834703782736
Ga 7.54902215863146 9.683464045383175 11.123406350091514
Ga 10.279045731451761 9.20730851791674 10.4636572953774
Ga 7.690227499578534 8.262755108312655 8.974030387790494
Ga 12.55439392729056 11.924508763045923 10.922147631768038
Ga 10.646787047785399 11.45873610859755 8.994934085049193
Ga 10.078508587595584 12.909151458371259 11.146033187356593
Ga 11.158918749700886 9.382737162031596 7.142919866357985
Ga 8.707689750021244 10.334172845690725 7.575086821154511
Ga 10.455131701181422 13.080945953688301 13.736137713442133
Ga 8.106071980757674 11.907794050359323 9.76836010358499
