16
Energy = -38.82043386 eV
Ga 11.675261043553716 12.238493666256412 11.111479120675835
Ga 12.406485680950452 13.981087998083638 8.985791052480431
Ga 10.70224641725358 14.638695228470766 10.827534122157324
Ga 13.233942164218448 11.39108621653194 9.057288310935968
Ga 11.864325294563393 9.690797464227034 11.29680973696938
Ga 10.217477255928076 12.200416950140355 8.270897776269084
Ga 10.416281273778974 10.952439953485184 13.416464060949465
Ga 8.44505499738219 13.485026011885413 9.647779124766519
Ga 11.311095245173254 9.76507333379502 8.47486051895495
Ga 9.014745145271222 12.779132423659785 12.174293307704653
Ga 9.359268710625864 10.762729170361546 10.338861863558199
Ga 11.919499769386505 7.2681646654448855 9.966761343871266
Ga 9.124427835948692 8.827613841275072 12.118255166379782
Ga 11.347018214734778 7.381897571570636 12.595930676809125
Ga 9.44286635942706 8.043203061104338 9.626180850488979
Ga 9.016439023188425 6.07832504846094 11.59179142655991
