19
Energy = -46.35214203 eV
Ga 16.239335256039823 10.91340235064539 13.84666586811842
Ga 13.526921607259187 11.203650384455848 13.66588924887562
Ga 13.717641627306215 13.434429373191977 15.318310711645166
Ga 14.693713082822011 9.405865093834281 12.023330946857973
Ga 16.930221263419973 11.323548152761518 11.2457259090167
Ga 15.118232524549262 13.136367343007107 12.489362463808309
Ga 11.580596039544336 12.980590296484603 13.623103094273322
Ga 12.248186127538236 10.388903351925396 11.38908018089944
Ga 14.447820039572612 11.56496178669454 10.352598576751609
Ga 13.506638243420264 15.123598450112217 13.197163366838794
Ga 10.010421712261591 11.107471925248133 12.680304080097207
Ga 12.790290385196515 13.60123138301351 11.069971901161484
Ga 10.973492755376272 12.306767093044693 9.92191147563332
Ga 9.539680425653305 13.65247143530689 11.796046135009453
Ga 11.123783084650082 15.614777894771866 12.30270410667945
Ga 9.748236264402589 9.883691231367473 10.170174699682553
Ga 8.019401017623487 9.17989497128466 12.091501342008154
Ga 7.426597273977441 11.813011959187675 12.185476400181363
Ga 8.274948705047551 12.12704986624922 9.695708025211935
