15
Energy = -35.71863838 eV
Ga 11.079764811014643 8.260152949781276 6.131660138572718
Ga 9.129901158852167 9.668550358051132 5.012108354653384
Ga 7.627917375635238 8.150518194032342 6.5704326144914
Ga 9.519960020823309 10.094388390436201 7.639560095452086
Ga 11.092036417345398 7.997036951002519 8.740979124345714
Ga 8.150736282779501 8.05936054716055 9.105300308471458
Ga 9.483801055534865 6.358049862923933 7.09151177642271
Ga 8.726396074294275 10.69216741732643 10.051637954214202
Ga 9.921431865212684 8.056248896948693 11.09050898553309
Ga 9.11815319933975 12.841587724128486 11.507845843383597
Ga 11.435640671888837 10.228856448934623 10.037430054165696
Ga 7.172055575404675 8.58575628805396 11.544364895646888
Ga 7.665214861673084 10.899140476865005 12.601492143243856
Ga 10.128226929670813 9.937702791050317 12.775218754832391
Ga 11.571352281511317 11.993071284285568 11.922537537551673
