16
Energy = -39.05282234 eV
Ga 8.982842003406612 14.066988206487768 10.367731542546142
Ga 11.65180094356116 14.621411501769991 9.154350428568117
Ga 11.379290991338893 13.70709751099901 11.79189472804692
Ga 7.914875823084045 11.607937351851994 9.98171271535081
Ga 9.486043728645692 10.01386695920892 8.312598627587397
Ga 10.396122386211488 7.868195992884706 9.609459073047054
Ga 10.693521985616327 12.081649731542594 9.397531467749255
Ga 8.952467962177993 9.461997725140135 11.241920888297734
Ga 9.64432645712235 11.812153974922747 12.12283098238667
Ga 11.271293265977109 7.342183968593033 11.906111112950503
Ga 12.161096867722495 11.473592445101051 13.013340941449057
Ga 10.505899462284292 9.396007582619696 13.449209631608309
Ga 14.756152814598897 11.156835122135583 12.373858951945921
Ga 11.743933501468911 10.084384403380755 10.646704784078416
Ga 13.294034619941277 12.406886761782888 10.355190944880421
Ga 13.444418451486579 8.849604922158694 12.348790542863734
