11
Energy = -25.58525785 eV
Ga 9.265701958928785 9.681807934867704 13.00005104288255
Ga 10.857370795122385 10.749892591105194 7.426133804124573
Ga 8.535091313266932 10.484901126346212 8.58467215614818
Ga 13.077149056231967 10.856586996820011 10.808487780778103
Ga 10.065668986427728 7.413802113114264 11.106767872328637
Ga 11.78787064536028 9.046944782424733 12.235340300693895
Ga 10.165368367496635 11.176742349792649 11.072313601610169
Ga 11.580014068198993 12.441241457936405 9.222802698152012
Ga 8.02726383155624 9.193319117469535 10.76120328628169
Ga 8.851585547841635 12.95247444980304 9.492149892431428
Ga 10.984150211982907 9.209482623098799 9.505409457516683
