12
Energy = -27.81465231 eV
Ga 9.45473441323443 11.600229719676113 10.261024773664534
Ga 11.170453679034939 10.899145643671535 8.430191368843666
Ga 13.246245820576272 9.794991184346696 9.73783183316994
Ga 13.773161664252058 11.675357970340173 7.763526554181422
Ga 10.883703722763277 9.356055992929956 13.1381190024459
Ga 11.82249365570069 13.117898994755953 9.709628650084264
Ga 8.976615766882825 7.467467439224542 13.120874267341115
Ga 10.50719468355254 14.253070727506788 11.684549379764876
Ga 11.940463429156969 11.296955420290809 11.614840199229624
Ga 9.837510959915534 12.041126047585998 13.026724866127571
Ga 8.449461849977633 9.952749407793661 11.939307303481066
Ga 10.639904118062667 9.168596538811977 10.42580252959703
