18
Energy = -44.22725735 eV
Ga 14.974524052247453 11.33905867984065 11.98621262284087
Ga 13.849155179144994 13.7495026580838 11.34240819890147
Ga 13.465997938401706 9.263851879927754 12.649586134731258
Ga 12.882433044901088 11.385737423587651 10.051914712678709
Ga 12.23729402520256 13.106014668000112 7.839504509433635
Ga 11.846724584997064 8.953521150924827 10.519508301235797
Ga 10.693263443569016 13.0646556683006 10.226845869221854
Ga 11.803210057281015 7.076920915960932 12.853902002933582
Ga 12.379062038563085 11.793105925387449 12.725352083405836
Ga 10.770164397130394 9.930975625649538 13.339984901054443
Ga 11.175442704934666 10.562288289714548 8.21934592306159
Ga 9.721765766499342 12.301233895127458 12.762707155371604
Ga 9.842027374664823 10.561106265515235 10.479392675330079
Ga 11.479886642135472 14.336436976857913 12.383817128114789
Ga 9.413521748021255 8.138110820649281 12.096826427190685
Ga 8.74539137817344 12.095484607018193 8.364214157846009
Ga 7.726626360771576 12.984329183066384 10.937758551094744
Ga 7.8031769519192045 10.354271447160958 12.105652622490918
