19
Energy = -46.82329418 eV
Ga 13.437416909834262 10.357520043742726 7.296211644991183
Ga 11.397729809946496 12.026986465017377 7.195978741117802
Ga 13.545444310708156 12.09653536148137 9.371243159400388
Ga 11.15580125737084 13.03827846627216 9.855249372871608
Ga 11.732135353949623 9.835169256221777 9.288124021343268
Ga 9.406818932524796 13.722596084317457 7.691018433185735
Ga 9.194426305275877 11.18176891366953 8.804094484784576
Ga 9.836962483934553 8.390088581090383 10.12108092434709
Ga 7.562772271756064 9.865110587820842 10.33738046654268
Ga 12.809328012186066 10.562148464576909 11.75526232086889
Ga 13.586548681523723 13.215612484512645 11.737229703705598
Ga 10.090905398654328 10.918200291055722 11.399866958400997
Ga 7.9776944315313365 10.054060821327692 12.90248738386117
Ga 12.439195880738456 7.916977635491227 11.467542386564041
Ga 11.17353038064111 13.182860579684782 12.536237746125192
Ga 8.20117245741523 7.446096082262535 11.95732276182246
Ga 9.366998437977214 11.932674979496541 13.924171680964056
Ga 10.344309378990147 8.607484340266229 13.111445121948414
Ga 11.689320299062055 10.598341555712278 14.19656368117533
