10
Energy = -23.08024021 eV
Ga 10.565204936781813 8.135913537688799 8.587451557115363
Ga 8.164668123681498 8.713454267340992 9.271049633054714
Ga 9.811409572296986 9.596085602507605 6.470695459860276
Ga 7.373839558091291 10.27461890168459 7.1275019790449825
Ga 8.11525404365072 8.181357058173637 12.12335074455844
Ga 8.295537364504609 11.669751853087352 9.049211146787068
Ga 10.265329822353316 7.0403816255676235 11.10214477613208
Ga 9.260504323693254 10.333269800852914 11.175488690198108
Ga 11.588487366831739 9.307279273462628 10.738312506453639
Ga 10.763240137331737 10.953024264290223 8.546828815808045
