15
Energy = -35.98515343 eV
Ga 11.3969983945118 9.12103269051153 7.135236926543552
Ga 7.60700012301164 10.435474686254553 6.529371449213989
Ga 8.910839138665981 8.201014625651828 6.748235980046601
Ga 11.197152890388082 10.19826066180327 9.710612132537573
Ga 10.024605336521546 11.284334108150388 7.623948241718901
Ga 7.388798818357015 12.415896664683512 8.394568116502917
Ga 8.28087910898552 9.634195076343106 9.068037628643644
Ga 9.911773423711857 7.583835934338438 9.237193957956007
Ga 9.322194167173205 12.293341098871302 10.17747704480204
Ga 8.98338461679948 9.634349258696151 11.534313732031022
Ga 11.225393114353725 7.9813083153144735 11.547490749039529
Ga 12.695009284610844 10.142716697427534 11.80702226452864
Ga 10.159729430628316 9.062181952353946 13.768134881209642
Ga 10.614385335548821 11.62433607963057 12.366021015469025
Ga 12.389951692208747 10.495817025445321 14.460430755232649
