17
Energy = -41.21522378 eV
Ga 15.339760598480307 10.473157452423832 9.7384862614001
Ga 14.024844074862061 9.138759202487634 7.747663136172141
Ga 13.701035671987663 9.112078400848256 11.315092424322236
Ga 13.73360761955772 11.852370412190778 11.361657501710718
Ga 13.153824134072735 11.867085743560239 8.612668396421753
Ga 11.897846486125152 9.464612509393366 9.309295570121348
Ga 12.67779884995885 14.192654381353075 10.071721249133033
Ga 12.008493230447721 13.132692831109166 12.738700748324378
Ga 12.194409512408509 10.414605131438318 13.172975974616321
Ga 11.068711513599144 11.7393262153872 10.354124752806984
Ga 9.59805111035214 14.279867864716813 13.814378463967682
Ga 9.148661027310721 11.986539198506737 11.90933043813578
Ga 10.229297210843853 14.577768880019143 11.270769061606986
Ga 10.417331741932088 11.787044640165014 14.438079498127854
Ga 10.248929829343911 9.405196033241944 11.640144092526732
Ga 8.57097771455884 9.758479570619468 13.695761059206333
Ga 7.544100779275738 12.302134817647904 14.032151551590646
