18
Energy = -44.5460728 eV
Ga 14.692971211714905 11.097933943097912 9.436134446470982
Ga 15.390452248914997 11.478828787243176 11.963591167752217
Ga 13.312401574985186 9.59405595677897 11.486677458404387
Ga 13.203051002122752 13.270641412803267 10.120043932122517
Ga 8.673815131023643 7.799164257351226 9.435151351514447
Ga 11.108585585746708 7.837308299506454 11.977408822303836
Ga 6.664575077479474 9.653788103655012 10.085315823888227
Ga 12.84578945301254 12.132328154329663 12.581266613791753
Ga 12.083439559283496 10.90037956115137 9.19847199097345
Ga 11.282253015669003 8.45886817300658 9.407873397062065
Ga 9.38191932789159 10.442597074040739 9.33048717881481
Ga 10.819252288628661 10.599483325411654 11.799149678830345
Ga 8.697430246768986 9.034877991644477 11.945630713585441
Ga 7.820471042724403 12.087983115237478 10.689338572140986
Ga 10.462239956869922 13.267176605691322 12.91451254951007
Ga 8.580913562289995 11.406457962273558 13.152894262694582
Ga 11.646049168694653 15.066031200821222 11.353740107213605
Ga 10.326166229167697 12.886818452672857 10.146587221897011
