14
Energy = -33.88236213 eV
Ga 8.913656477268876 9.932718301587723 13.520551263658174
Ga 8.764128896806708 11.886022375459167 11.767647326188005
Ga 11.497144100720625 10.310506647848664 13.76912865711946
Ga 9.204824428359474 8.18131620537029 11.611141137477947
Ga 12.428884682680017 10.803234388655232 9.370063635854383
Ga 9.704409531535875 10.225829637995595 9.868513223691615
Ga 11.804282599354021 8.96682685818159 11.446576327742417
Ga 10.517012948654038 12.595941079641445 8.823275966719201
Ga 11.398406165715597 11.861137664042257 11.624974227770615
Ga 14.0874621359474 10.430779944030618 11.432740752083822
Ga 10.016979689579708 14.122187754943406 10.881624332978458
Ga 13.802189138314494 13.0466699027106 9.321326190085232
Ga 13.518580484261392 12.060084267814378 13.385144070779305
Ga 12.79358719898694 14.036120524048169 11.50272204991438
