16
Energy = -38.32649012 eV
Ga 11.544247302119084 11.744524474946523 8.833723781410951
Ga 13.144849798953818 12.444643547850593 10.778447963187544
Ga 12.015752196653205 12.865513340136435 13.340438765166263
Ga 10.436349510576013 12.07407685600457 11.524278954333328
Ga 7.788944773287446 8.443024316410346 10.122362939208191
Ga 8.718153010341052 11.120982570499518 9.955917390932752
Ga 7.1051878345008985 10.356413947767066 8.161094537698574
Ga 14.784285927283973 13.06773821708399 13.003495491952377
Ga 10.467319187084916 8.85292863888608 9.385165525342684
Ga 6.194772487181696 7.743549650916171 7.860786469945525
Ga 11.171269668734405 10.294721446758782 13.563469876506462
Ga 13.750794556794075 10.497250917653135 12.818988666260159
Ga 9.68726181654757 10.662371997896026 7.360112403030872
Ga 8.932065954404958 8.079763188882799 7.517831175628914
Ga 9.336105707158945 9.212327716300845 12.081234198003083
Ga 12.175477507739275 9.80887165971648 10.961669896308416
