15
Energy = -35.6531479 eV
Ga 11.7490816555665 12.991428862260522 10.09421652531811
Ga 11.953478901161455 10.749365291865823 7.844970644971102
Ga 11.199545055701021 14.480279543130262 12.640200952331877
Ga 9.87603978697005 11.004668170868113 9.512428830499497
Ga 13.363154567321885 10.683906926375089 9.973716843427674
Ga 9.416316949295753 12.64808075091932 11.467359486621616
Ga 12.724877454896701 12.034519109230144 12.38430026414877
Ga 12.3788359779125 8.099202776359489 7.18758853775875
Ga 8.98789510345005 13.56329652451641 13.916090622025438
Ga 12.332210879282913 13.282638641873787 14.71733560775613
Ga 11.26137562485476 9.599072935385342 11.379784953527471
Ga 10.365031126469066 8.535443188342775 8.995960675542115
Ga 13.007158559540418 8.123627606735562 9.849549876116667
Ga 10.19042744638511 12.299964530490199 15.880148340353708
Ga 10.482343740489041 11.179775566863688 13.427983618559054
