17
Energy = -40.84455942 eV
Ga 8.567927784632147 12.426044954066503 8.540252460164218
Ga 12.446197068469614 10.531231454597942 8.344890265512092
Ga 9.831106331540077 10.328553145699345 9.291108449495166
Ga 9.302459659212808 13.768574004367013 10.98157476949049
Ga 11.128551015488247 12.849498153748545 9.41614511779759
Ga 11.488856467777252 9.043297357327367 10.83306572238785
Ga 6.623596862969158 13.597783127614347 9.777484623636228
Ga 10.417319573903253 11.566913340163808 11.864574246676051
Ga 8.918925234766427 8.760016006823086 11.721553131726202
Ga 6.995680121812607 13.36777176533102 12.385433366773631
Ga 13.058108640619302 11.758495181834878 10.80374295547833
Ga 14.18934345323796 9.219598649807397 10.160653427942044
Ga 7.9180719197463425 11.163793728796541 11.024849858702217
Ga 15.148103467032078 10.843480752705894 12.08982783990806
Ga 12.515026755276793 10.400541415815816 13.086109548716541
Ga 13.413620102677918 7.817265583450348 12.201868262242266
Ga 14.72466435791817 9.18193960625389 14.138474092917646
