19
Energy = -46.13353789 eV
Ga 15.861836363886068 12.782469060412545 9.742619220593893
Ga 14.47880483126203 14.089410731078742 11.595547325791413
Ga 14.005046035737859 11.270708719231607 11.098394386127291
Ga 13.47755921366737 12.657472416575638 8.625333264536714
Ga 12.27762426486268 14.478382339594594 10.103541584684448
Ga 12.323328644164592 9.122585397244746 10.917577632220997
Ga 12.57443582208272 12.783134528135603 12.720299323169415
Ga 13.795325569952471 9.612307154832159 8.849342091749309
Ga 10.128348584578298 9.457955930113222 9.126316286522034
Ga 11.760442511448938 10.827319191211219 7.6361958257607085
Ga 10.474829124105304 11.422557757036433 12.94320588619913
Ga 11.390983280223598 11.748789665360874 10.257560247203521
Ga 9.970458243373475 8.869655993078688 11.999201954764647
Ga 8.699066041964636 11.202375840054188 10.734594966209611
Ga 8.21777768371832 7.807620756564482 9.78814834720443
Ga 7.200470679681327 9.220828646428252 11.752908364074676
Ga 8.793384209665685 9.630674028441689 14.127366564487804
Ga 7.791970946416789 12.053469154256728 13.006292067954028
Ga 6.094652423648903 10.228581378095045 14.142576857187871
