18
Energy = -43.69053109 eV
Ga 11.57003578725612 7.482143042193891 12.779099623725035
Ga 14.094072263514 7.864338141327599 12.085191984535715
Ga 11.266860233472197 10.054111480984135 11.861481455275165
Ga 11.164943693092672 7.911440431675592 10.142537514798732
Ga 13.74552416193907 10.284699734957762 12.855865609699242
Ga 13.392041516500747 9.609414443678324 10.14404725824948
Ga 13.56603370820101 6.920916300286434 9.527116985779932
Ga 9.759781721461916 13.761905222037836 13.693487390814159
Ga 9.141500218418063 9.912868993417884 10.122533793531918
Ga 11.163523591563916 10.056517461107505 8.32210272959286
Ga 12.405755870026166 12.403366222934688 13.095033564327984
Ga 12.263036859821394 11.919589112595473 9.761991405310544
Ga 12.147956698655756 14.94237929299139 13.46041222294552
Ga 9.991348702839996 16.52943873014674 14.212312740271
Ga 11.813503453592572 14.166208726754045 10.893340671971444
Ga 9.879674616308147 12.161437514904568 11.467455114714246
Ga 10.966649333193152 16.613289463609686 11.627089929967731
Ga 9.186630988548183 14.770183374250466 11.368974775619554
