17
Energy = -40.93311206 eV
Ga 16.975827153619342 10.591644285531455 13.467314959461849
Ga 14.91411178121172 10.94428513075017 15.094181270472232
Ga 16.207786490412524 13.156721298380793 13.573068812438937
Ga 12.423145482640209 11.427535686471753 14.75701063108277
Ga 14.881571856734237 13.635828675447609 11.19116341986386
Ga 11.106763367830514 13.77046698373496 14.142026525518459
Ga 9.642966517515225 11.566017606849563 14.126849126635852
Ga 14.18190074263357 11.304135996785 12.483013207688611
Ga 13.807594918415333 13.916011338951531 14.018384660953837
Ga 11.581746601922362 11.296434276265883 12.178782200092265
Ga 8.505092579558827 10.983935574999615 11.70406089961865
Ga 13.134573250156052 11.955886353643905 9.902714539265254
Ga 12.302846390410297 14.018444908595256 11.717831062645214
Ga 9.617629837679392 13.498548388414985 11.866751437299762
Ga 10.57486438432446 10.88632007955447 9.873472278114779
Ga 10.803134751445228 13.561026256439098 9.500054034486059
Ga 8.169134272770284 12.546640002745624 9.490529986674632
