12
Energy = -27.80286853 eV
Ga 10.888138629490067 12.730712955962709 10.463248035374916
Ga 10.647810241425164 11.004694498792169 12.788951208340235
Ga 6.9682255617682225 13.723274347976707 12.481783929689938
Ga 9.977398427053222 10.016915685545424 10.185392716429915
Ga 12.253087153922005 9.44617620907521 11.858952327672611
Ga 12.644843959072833 12.894897281692947 12.569529476852846
Ga 9.601777294155625 13.52259558504341 12.71896539977999
Ga 11.91601640250242 8.481616068218806 9.289616514804575
Ga 8.325883855331323 11.659660894600714 11.184583247479322
Ga 12.507222156066922 11.176624248194734 9.548339964955685
Ga 14.239148228491086 11.208663781510653 11.578417340534362
Ga 14.534724121214117 8.95302974853625 9.949971407241378
