10
Energy = -23.08215392 eV
Ga 6.291322178840613 7.295878621524246 7.111330901924183
Ga 10.935934081892695 9.537348718446147 6.4684533130316
Ga 8.761104869225868 8.148984815762857 6.7721831326314845
Ga 6.740990500280642 9.294783122174772 8.691187344720563
Ga 11.308509465218263 9.762331490686165 9.083516167991466
Ga 7.355817901513058 6.2935125421810065 9.248878833086692
Ga 9.57101708633802 10.176602510279283 11.118786531802032
Ga 8.846899380038973 10.526228523468784 8.51221441345269
Ga 9.63092675677312 7.616195658052268 9.154207371353356
Ga 7.700142502171781 8.490798719717615 10.981906712298947
