13
Energy = -30.66541626 eV
Ga 9.87725289527364 11.92785979170125 10.281782056523603
Ga 11.477230942954009 10.541461562096488 8.222523952474347
Ga 8.93063285282904 10.27160733769173 8.254524636500365
Ga 9.169933603710714 8.364033845704174 6.341294320647761
Ga 11.791832421088492 10.322640476847415 11.333686383630283
Ga 9.004848667732745 13.631070444991122 12.166176258773591
Ga 11.7719160721224 8.12714362513242 7.012885573398063
Ga 11.273572303249818 12.407858583455166 12.718627407608395
Ga 11.583371248536574 8.264989719449348 9.69547890771099
Ga 10.169302892325534 10.117188717548716 13.649908951984278
Ga 8.175717414587375 11.030309629950468 12.343923455281395
Ga 9.21632635677336 9.191565960381874 10.864228235348142
Ga 9.25519386727876 7.510867184589259 8.83359511607358
