16
Energy = -38.71179872 eV
Ga 13.120437960464203 6.993972218687869 10.442698286365587
Ga 14.787517777250512 8.857013656215713 11.503428036496963
Ga 11.963419687995787 9.182613349629213 9.409112430652492
Ga 12.049634444478881 9.018744817757314 12.106039464685656
Ga 14.308823687416437 10.440286719172956 9.412595532365625
Ga 11.891812738963528 11.814304743790894 9.94159230417043
Ga 11.148677164821658 11.355652492478377 13.209893783035897
Ga 13.597058665357658 11.200651070299449 12.004963112049154
Ga 9.795917505337176 10.36147067407314 11.041523410636174
Ga 11.604481390673339 14.660782943501257 10.011345523065689
Ga 9.505795256848762 13.56600078150618 13.139098676259012
Ga 7.402104063374726 11.787811865834882 11.337114893372432
Ga 9.511202973614566 13.07906859300009 10.474565138585927
Ga 10.332954212334194 15.842991298586895 12.013097124818524
Ga 12.298510661257742 13.549544359161075 12.240273877502487
Ga 8.55854487103214 10.993334583240012 13.510818916171186
