18
Energy = -34.81972135 eV
Ga 13.088007116978565 17.564520651392304 10.955465863940768
Ga 13.458797277514387 18.245915247709924 13.390413253154072
Ga 15.197638665413951 16.432722635686265 11.989229649672744
Ga 11.23216417099354 15.670037747400535 10.884053457120306
Ga 9.03035233722156 14.91076102725078 12.264867725422242
Ga 12.937625143308153 15.82509991622174 14.361608057389269
Ga 12.416128862531925 13.16538176262925 11.370735511940675
Ga 14.477860301152853 14.184099529784902 12.930070093850407
Ga 10.449933265038812 11.851893052984156 12.709947715228141
Ga 10.49134995672167 14.991360712744484 14.250291056033483
Ga 17.325698063653917 10.757091662206816 11.00062625643662
Ga 14.489366800509435 10.042902241960677 10.739320962383474
Ga 15.646129082409745 10.62046775708052 13.27116910647359
Ga 16.682424700584786 8.32218227181888 11.742034717257063
Ga 10.642718320098004 9.318585972740053 12.290333246494558
Ga 8.731896606616793 9.292350827987054 14.795943689579152
Ga 11.76814191802657 9.637345696633867 14.927764673416178
Ga 10.303123376512 7.364106069312637 14.501251716621173
