12
Energy = -24.23952914 eV
Ga 9.899308215840271 9.225050241488642 12.577938682597955
Ga 10.151146644936361 12.600377588341928 11.69903297627565
Ga 10.754134360950067 7.0658416348037 10.386181025510528
Ga 10.068454776713581 12.446231359918087 14.498155590821757
Ga 10.135840825829254 14.876122039620885 13.398846815385784
Ga 11.413479818081699 12.882109101401447 9.147294834929111
Ga 11.724749127251021 6.610154766199364 7.613013669341539
Ga 10.965380116725365 10.191483746041682 9.711236373957798
Ga 12.782617563730541 14.810798544196594 13.279472736363061
Ga 12.830828920869262 12.780866081963268 11.420936619742896
Ga 12.60875388377937 12.33818473406872 14.052872600988238
Ga 12.06744050165434 9.547872107910191 7.438703772683219
