13
Energy = -30.90435449 eV
Ga 14.107779779822629 9.4118636579736 9.872374451329666
Ga 11.59190055784416 8.74172846690533 9.376276118830994
Ga 11.598745026800025 11.445331210124218 8.710341331793916
Ga 10.203123749624506 8.303796140911217 11.58251912364578
Ga 14.121962566442168 12.01744412379901 9.711289124283764
Ga 10.854138683903733 9.694513362835055 13.730955980011315
Ga 8.29538064507817 10.251084167807237 12.572573741900218
Ga 12.087924538533464 13.252594596140126 10.882311606186205
Ga 12.254030673633844 10.609324272886333 11.647142566993466
Ga 9.714199773235075 10.626198719658188 10.308136729567774
Ga 10.286918917985359 12.145236811872396 12.547733861556976
Ga 7.481525874974015 12.484492656676574 11.379248259761132
Ga 9.662546279625765 13.339529596340082 10.026364308525427
