10
Energy = -22.61172122 eV
Ga 13.590128147333601 9.898009871761877 10.299018712905424
Ga 11.393548495628263 10.147248158753346 12.21193860275866
Ga 10.161368368623824 12.320349070847543 12.086142360910873
Ga 12.009069041574277 12.008821889845125 10.104455437062041
Ga 10.631489227878001 9.822132523321734 9.397060661621767
Ga 8.47586584858645 10.494439137451437 11.110354150398052
Ga 9.964673040190636 14.238015341127225 10.279823631691375
Ga 12.115509321949379 7.803940968513808 10.802857101973341
Ga 9.387822011583118 12.033412324073574 9.02820257948402
Ga 9.653795411724174 8.134029628739293 11.568431197538114
