18
Energy = -43.83855631 eV
Ga 9.385391531874244 12.5081766246161 8.2662759050894
Ga 9.817987129907827 9.60725541172603 8.86222655180535
Ga 9.66634096184197 11.2375356842534 10.960467417187582
Ga 8.611213143928246 13.695593863202678 10.997790093403983
Ga 11.895789087128891 11.340283710338237 8.799988498706691
Ga 9.481971993530557 14.963980525824864 14.166244688221544
Ga 11.95659292308859 8.50656681419034 7.774871696689278
Ga 11.366941912496232 13.476824298559642 10.194972275740248
Ga 9.0426300577808 12.439431113438102 13.326885187031866
Ga 10.391977179003622 15.513555332162147 11.704275855024248
Ga 11.579137307231335 13.419178515737624 12.929819130125841
Ga 12.563286279033752 11.448420975604845 11.48910720030109
Ga 10.43405361675975 8.682430999487314 11.255214533739778
Ga 10.958847074222293 10.481054832305773 13.461549118447694
Ga 12.97798936305137 9.27864849008122 10.102743207730244
Ga 12.224905834695871 6.882695214172323 11.578374343991545
Ga 13.163255800750466 9.238473949214097 12.979250391468447
Ga 14.788003627718656 7.574464045501602 11.448984252432355
