17
Energy = -40.73466589 eV
Ga 11.694231770104 9.479466865867161 15.583281513227222
Ga 12.135379355642993 7.1162223902946575 14.32797458131771
Ga 12.648500966665816 9.490108596098194 12.963246206467534
Ga 9.22275443792012 9.58242794043067 14.41137635664525
Ga 10.315816038170386 8.103684093918535 12.583304872344357
Ga 11.020698845715957 11.55564079857317 13.97971095357447
Ga 13.407415674890196 12.128240782057661 13.078614585646509
Ga 11.028474931075705 13.16262870689511 11.84713570300577
Ga 11.966968019170425 13.348811234550055 9.239954146861177
Ga 12.528052572840268 10.758464986159902 10.642399523061833
Ga 9.972297484085393 10.630056726593367 11.679781217534268
Ga 9.99284610569596 11.625506847978285 9.26916578423443
Ga 13.406158109292884 14.78248444442402 12.385486575842522
Ga 14.196632781295934 12.850089879103146 10.604663978222193
Ga 12.089309735810449 16.024122551178547 8.27336545938902
Ga 11.430642722595367 15.637945257810964 10.910540872445173
Ga 14.222858781350904 15.194610539388087 9.60147540959348
