18
Energy = -43.76463019 eV
Ga 12.648887343095033 15.141643997356107 14.430221401708206
Ga 13.838516229532026 9.845528705412042 13.76129943054325
Ga 11.007263134765141 13.08376287789139 14.851136960946585
Ga 10.072776799039135 15.810995957183312 14.808273682260829
Ga 10.804507567294136 14.575195550343812 12.233641919535485
Ga 11.372189964312696 10.896662603670336 13.599710269252789
Ga 14.446350537111124 11.165466386872028 11.610855560398432
Ga 13.265310791118084 12.976820279381052 13.064241444438323
Ga 12.097889191444652 9.553880239793822 11.48408306910791
Ga 9.328006901153236 12.470757241623554 12.770653752503799
Ga 11.70267407226629 12.549046685357016 10.953545965355293
Ga 13.414831422573045 10.704132213387457 9.332523142867094
Ga 9.45023015861379 10.378671460072775 11.303162374252107
Ga 11.057603054672299 8.012599125957008 9.714313457407053
Ga 10.779891192527879 11.160164648665608 9.01291968187431
Ga 12.307754938134021 9.059065514234796 7.611090615187404
Ga 8.754433668791082 9.159517385144676 9.083498642518038
Ga 9.920074724719521 9.806575121147068 6.88055885326749
