19
Energy = -46.88212413 eV
Ga 11.210857715272967 8.009814836796254 11.266949526987354
Ga 13.72747621384266 7.403932397509479 12.521073529066578
Ga 9.071729242882824 8.670319087102481 13.46807489725314
Ga 9.465887036358806 9.941762375292013 11.146028665593608
Ga 11.6847271193699 8.359425290495384 14.009917745835446
Ga 13.77675667371975 8.40064165731074 10.012092756043863
Ga 8.033799435439034 11.177301290331801 13.329089651987621
Ga 11.333539362457563 9.538134310929356 9.094378454806158
Ga 12.951631695235763 10.129407911267606 12.12416789043833
Ga 10.912948498924806 10.951759082228127 13.56519611762191
Ga 13.755987055511753 11.022195634338017 9.589843209320403
Ga 9.961900934081692 13.306205381766786 12.789339770990827
Ga 10.167204672442148 11.705778240853448 8.404979365222635
Ga 11.421500156161688 11.833799860601594 10.893379714668216
Ga 8.322064516620813 12.19800338654418 10.738520575492396
Ga 8.657299473032397 13.960579511085704 8.873150319221677
Ga 10.732998687732366 14.244763639032273 7.270379952507463
Ga 12.713174741545577 13.363641781384098 9.058020801434735
Ga 10.767281722872726 14.39494207482328 10.534876126585184
