19
Energy = -46.45907588 eV
Ga 12.289923373155396 10.63942476995024 7.405283064405797
Ga 10.139163731279567 9.271359853337254 6.530559558907478
Ga 10.88403973861639 12.084670419770994 9.03273260638262
Ga 11.765210481674208 7.789558036484956 8.12628227885709
Ga 14.380268844782272 8.91195534375016 8.246355773270796
Ga 10.6468873046881 10.623187203401317 11.744977951107582
Ga 12.469289056493519 9.932957701423327 10.046779872574023
Ga 8.679654956309593 11.452347929249923 7.238646626859857
Ga 9.783189443119774 9.49453581380826 9.168194943970466
Ga 13.546576399889538 7.281429358166488 10.27514132067665
Ga 10.473708119498605 7.082662840877556 10.290644967177537
Ga 7.8386243808647755 11.102713926467338 9.808316677243226
Ga 6.824918358512753 13.02185880996234 11.390927185678356
Ga 9.480775682542452 13.140252281893433 11.070361638353727
Ga 12.028801454978463 8.342476741270042 12.19450139538499
Ga 8.833720637980067 8.574689693586993 11.529529427846928
Ga 7.014307002319567 12.837384408792335 14.11376495890463
Ga 9.556736161272967 12.16580362724913 13.571060349835253
Ga 7.624823941092304 10.54143153109279 12.52583209836148
