12
Energy = -28.20520425 eV
Ga 13.212322096805169 12.679424757594104 9.213368965767733
Ga 13.38755708522992 10.043756005301386 9.701943636008345
Ga 11.929635872356343 11.547372454444634 13.990816104585903
Ga 9.631228301278046 10.641679201037226 13.129432496842032
Ga 9.770492171428714 11.193096339972035 10.345122312547183
Ga 11.159406851196204 11.232246954908232 8.275688950911146
Ga 11.808381799383419 12.622862875692121 11.390610467029425
Ga 9.149413688864934 13.052797006020198 12.228132446154966
Ga 11.162425917381118 14.1842573312851 13.741889042614364
Ga 12.053643038893808 9.956352118050031 11.801726375070299
Ga 9.742439726436192 8.558874990153694 11.192732549789849
Ga 11.120839935197145 8.589670066760137 9.051174680406682
