11
Energy = -25.65218241 eV
Ga 9.838488806382383 11.928384706865083 12.064024667821442
Ga 7.904481162650671 10.813906217735942 7.934449995674282
Ga 10.109586714720246 9.11738394565074 11.50252070548189
Ga 7.764777341566407 8.764293958681028 10.568603330431925
Ga 7.756242372625515 8.267354570593179 8.024493442443703
Ga 12.683786347660595 9.885270853451038 8.469499121026194
Ga 12.372277799195576 8.09546455759153 10.479577227245597
Ga 12.085282979137107 10.830694171203753 10.999373016241478
Ga 10.249669392719133 8.467313586340317 8.762553067336501
Ga 10.195347766346107 11.109335640401895 9.11422303529974
Ga 7.744771306367479 11.327184385000397 10.634977192847774
