11
Energy = -25.1981771 eV
Ga 10.312863778702226 7.20628136880446 11.21814881313572
Ga 9.657794729165985 11.79438284993286 11.260954333158145
Ga 12.574703481893279 6.756527514116603 10.000635966067328
Ga 8.548624683794507 9.30327410866752 10.895930331441033
Ga 11.25515041615172 9.682571716095987 11.077010119474252
Ga 11.99156574808772 8.934846811390095 8.599204215374558
Ga 9.545701977078407 8.004943461115513 8.655200457971821
Ga 7.152169835237222 11.722467806533919 10.523491903188773
Ga 7.989606115832057 10.195586863722419 8.455005552750384
Ga 10.431160603430717 11.161806990113753 8.639795738418089
Ga 8.524947870694048 13.194764259377163 8.648635611547448
