12
Energy = -28.20032978 eV
Ga 8.683947759423564 7.600893047576017 11.587251276350193
Ga 8.626200966881745 8.215968845199766 8.81266403131636
Ga 11.395504294425422 7.6920545513119265 11.818932541081312
Ga 6.783717808854868 9.331193557172652 10.802733064187713
Ga 10.34216916859757 6.569069881137085 9.582486856341555
Ga 9.776161485008364 10.199402898076526 7.508227374863707
Ga 9.885534456801327 9.824309667377555 10.792556713764226
Ga 7.954966018897057 11.092986562121776 9.126925636142442
Ga 11.65801979722987 8.78383346907261 9.084397642276626
Ga 9.70586665988664 12.465152638585833 10.675921654367244
Ga 9.816001497098485 12.931107613527299 7.312596716689064
Ga 11.541968955458211 11.463961013678722 9.071985383911816
