10
Energy = -22.63806477 eV
Ga 10.587378113510983 10.837772951118241 9.859330789520106
Ga 10.133835554616612 9.853834480519033 12.153426983705925
Ga 9.150681221051963 11.771341054241962 7.811318279435179
Ga 8.445020121181518 9.258523147442363 9.690294005317819
Ga 9.812487634213936 6.890860843394028 11.06989950607167
Ga 10.210060757439601 7.550156568345518 8.661571704291543
Ga 10.820902443270132 9.863939515390841 7.266184889835359
Ga 8.00803086327375 8.35278548123088 12.236986865661661
Ga 7.1593876790160715 10.19398117791717 7.67179073344386
Ga 8.720374464878883 8.474963632853411 6.627355095170858
