10
Energy = -22.68161077 eV
Ga 11.489268305492795 7.520542403198986 10.879642056956625
Ga 8.891696620005394 8.013889570525434 11.19355949075546
Ga 9.417259125191215 8.50968880676396 8.68825128695277
Ga 12.115857255024693 8.270014716154634 8.467224540431477
Ga 11.21086122201006 10.715554074644226 8.605905592991345
Ga 10.865251522297909 10.206694101576678 11.146254153713906
Ga 8.417789202491823 10.896829704807983 8.893752750597118
Ga 7.978024253347396 10.401948072416594 11.401631604346164
Ga 10.01348295312015 13.0129125849707 9.07139378430569
Ga 9.585392408061919 12.558264958896181 11.607707099217862
