19
Energy = -47.14708218 eV
Ga 15.470677470230699 8.839618351479093 11.632216492823328
Ga 14.223765017233042 11.284009016503454 12.406644060411951
Ga 13.732773802952694 10.200143994147423 9.99846591463411
Ga 11.54919448117536 11.453615743441153 10.949011280564472
Ga 13.882649769008804 8.712853324322126 13.860060331169574
Ga 12.395138215518209 13.062457776509012 13.019791138306879
Ga 12.491964201477387 8.346728848201934 11.597750129115093
Ga 11.094157506989914 8.989814946577596 9.336160625859316
Ga 11.852050584917073 10.413083457786326 13.771413961218611
Ga 9.974247115061479 9.262783063135581 11.960551848598806
Ga 9.805743275807291 11.848713074057624 13.077382002275687
Ga 12.162477213542402 11.331511609240525 8.21674733703889
Ga 10.740961033657545 14.185399643284406 11.338502524202557
Ga 9.389100756820318 10.965504568004885 9.38441869985858
Ga 7.666086891146487 10.09596351501603 11.441470809256973
Ga 10.674816893765376 13.362050291820411 8.788004488370985
Ga 8.37697239524933 12.920427286280862 11.243295361667194
Ga 6.58841906175071 11.400682773161527 9.418081849117995
Ga 8.043936436132856 13.449932060421837 8.581369010187823
