19
Energy = -42.39593724 eV
Ga 10.042551224354563 14.6706397679356 8.622891259160394
Ga 10.258640886273444 13.127524713825832 11.03050732054824
Ga 12.102013372419034 12.837312543793006 8.701138484983508
Ga 11.356164489165417 15.511752498290253 10.765006124061015
Ga 11.608484403496348 13.779666041720612 13.059482827168114
Ga 11.799115754816878 17.069342656016286 12.687147697059052
Ga 12.707474860701828 11.874401299845948 11.19374547888633
Ga 13.648603454844123 14.284836269748093 10.24028810335723
Ga 14.63103155209472 9.053863560333307 12.662120327438583
Ga 13.930785607571504 15.048613956352288 12.84522751030586
Ga 13.718004023945438 6.373089851628447 13.556613809093987
Ga 12.504327253543089 15.916898452001414 15.048138729995333
Ga 15.256919279257666 16.196835590524643 15.340786205807717
Ga 12.368459774900852 8.743680335118157 14.392499733404525
Ga 15.019482914993247 7.916215515372541 15.412474352205525
Ga 15.123528396239593 13.650062583424452 14.76968817831438
Ga 12.479966180141517 13.247135442703083 15.338967694625135
Ga 13.492376163107542 14.841638830301187 17.289446875443424
Ga 14.029128651186959 11.708619229944926 13.334619030463518
