15
Energy = -36.06721807 eV
Ga 12.029561063442594 8.740186604657477 7.348289067498139
Ga 9.684608189921498 9.490459138790861 8.282930467429512
Ga 10.01990054502486 12.096456426932699 9.019387022524121
Ga 7.676325632007783 10.684806229328453 9.498394229022448
Ga 12.111021051957458 10.589094124533577 9.488442637128868
Ga 10.126008657168022 14.490774256944752 10.36704043020354
Ga 10.179724297119002 8.191039953763624 10.461679342419208
Ga 12.72932720435847 7.668834138149173 9.581569168864048
Ga 12.437724566753223 13.105333683495045 10.026545359042766
Ga 8.413143553773505 9.579056576558083 11.78379154103743
Ga 12.459532969230096 9.145394291777482 11.70024518550865
Ga 9.439566252429204 12.158385351127784 11.573498563192862
Ga 12.00827156285061 11.803854283083066 12.193753949248727
Ga 8.820246501062348 11.396528047594932 14.076098908877729
Ga 10.760097947519965 9.754856887881756 13.493394122620753
