13
Energy = -30.29702518 eV
Ga 10.346442917420804 8.888358447329264 8.449081937838232
Ga 9.512437140941055 13.504204148901827 6.487241562901078
Ga 9.0642753378631 11.014996906644026 7.471319096787059
Ga 10.421514479859177 12.76097424953119 8.892694093982122
Ga 11.808278558598047 8.009795111836317 10.72223905779498
Ga 8.059017314514648 9.81747770590908 9.500607980850901
Ga 11.823206570657893 10.726808217031843 9.942921247156743
Ga 12.491670380386427 9.938046079822527 12.353690828547611
Ga 9.529901273418732 11.606298989608394 11.00946712277281
Ga 9.853624284954934 6.614498762029239 9.604580801354727
Ga 10.32964893848872 10.915609184668638 13.394605979165844
Ga 7.602854293711246 7.487758326643087 10.515703380371818
Ga 9.450657543878526 8.89774471582514 11.857653267996461
