11
Energy = -25.48317337 eV
Ga 9.622747866973397 10.177469247640294 10.888028787022082
Ga 11.308192274840865 12.183712061009418 9.74917854229194
Ga 13.23544539499155 10.63185906108128 8.937717022294125
Ga 10.884390227478852 9.642594345962278 8.48715300020745
Ga 11.29744812423787 8.166781771189788 10.615285783033855
Ga 8.915857226602219 12.923504175740687 11.015074319589381
Ga 13.498404908059939 9.363630753035581 11.149502055669817
Ga 11.272732050088297 12.828909628531152 14.35703510883289
Ga 9.286206039603606 11.465362534657155 13.133998739299349
Ga 11.22696764372388 13.794366757112934 11.835169956240783
Ga 11.885323694438933 11.118872126326975 12.225956306735958
