10
Energy = -22.46564776 eV
Ga 12.234232011436388 10.348950777812671 12.69464562158741
Ga 9.17441998133723 10.486661094494764 10.9616769866662
Ga 12.647304579929267 10.455836627362174 9.976432633578295
Ga 10.527303772872312 11.669258679109317 9.084818644868363
Ga 11.884063467581882 12.422063339399939 14.085257929424648
Ga 9.24211814015383 8.611506651288312 8.980150762579832
Ga 10.821288517629412 12.399940176758548 11.584098413155562
Ga 11.350994769187665 9.604079214777586 7.627340088726154
Ga 11.079371428141746 8.69076997973239 10.947890144428124
Ga 10.259199005090945 14.312433825176086 13.361420986089797
