11
Energy = -24.90255815 eV
Ga 13.329578347539464 11.382804800674627 9.94371350962935
Ga 13.208492070666287 9.59838198567941 11.820343699927438
Ga 11.566762883602612 9.244932495645385 9.705904120203622
Ga 12.290707329356751 13.071745478504244 11.638010079405483
Ga 12.248228885365574 11.28290464096872 13.531949588515712
Ga 10.712138149014349 12.298246980284558 9.60682747191432
Ga 10.447521718391336 10.662235917826383 11.680570910079416
Ga 9.220762501808322 8.57175546996713 9.44113611552171
Ga 8.600087827481943 11.314015968817033 8.826215603232306
Ga 7.98220218875388 10.21781870281581 11.326572966227884
Ga 6.53731384273766 9.350578179130691 9.218214813292535
