11
Energy = -25.20983338 eV
Ga 9.135284375413066 7.345833975858945 6.467720175920289
Ga 9.411287429874777 7.015516062153936 9.109592307191177
Ga 10.562763165324208 9.216051523306286 8.212807391605073
Ga 7.970766571404935 9.558965931058772 7.394277135874287
Ga 7.48363842778631 8.640704914911288 9.860854211663163
Ga 8.802706058752861 10.540068197035838 11.939610414239871
Ga 8.779605113467033 11.114488316857509 9.393082308625827
Ga 10.31015660565018 8.625493287060609 11.066438040129315
Ga 11.459822474668703 11.327775642448419 9.440402660505244
Ga 10.363417452587203 12.562666935424007 11.416217752200746
Ga 12.033536412025866 10.362999010524842 12.010280375669899
