16
Energy = -38.82816229 eV
Ga 8.954067011622824 8.761823969614735 14.424562876094454
Ga 8.373899861151235 8.418183230006276 11.91973265259266
Ga 10.966273617081717 9.0353126276119 11.975087494086672
Ga 11.221233434400181 10.271154502654296 14.44168426421471
Ga 8.949249498041207 10.978024751156006 12.622027315999414
Ga 10.952947419089888 12.577619379734449 13.136216676282569
Ga 11.4980768677251 9.411277554942936 9.42736703133396
Ga 8.80551405721259 9.65877539696825 9.645390755898642
Ga 14.834050417041674 12.110490672280822 10.578828893277494
Ga 10.321340541537154 11.440861544287968 7.659464055869795
Ga 12.710764038985943 10.864464858435563 11.687186687288944
Ga 10.19688558933757 11.822483660900964 10.596112278439653
Ga 14.233339265039081 14.612247505604035 9.622212542119398
Ga 12.584851016719355 11.984792843924359 9.070376793952677
Ga 13.252930645420568 13.385611746823905 12.251372161149884
Ga 11.625188422619726 14.158030167011434 10.321857997097636
