17
Energy = -41.18197843 eV
Ga 12.33553481639168 13.164627257611585 9.035202886796316
Ga 14.052117861272663 15.446160946355263 10.931715349961184
Ga 10.001044916876172 12.437025497007738 10.402302976069786
Ga 14.79405045889333 12.985380117803839 10.026660070607178
Ga 9.93188246659345 9.693758458543785 10.744094462722883
Ga 13.52554199305217 13.094536129135177 12.48318651862013
Ga 11.549049849226646 14.346807997920877 11.371722808721717
Ga 12.54507928281531 11.115622063248894 10.695011523114053
Ga 15.301549941440962 10.927464609412503 11.583892577181818
Ga 6.685153359222418 10.164396613263676 12.881059389219217
Ga 13.745499472539707 10.72744270261755 13.757438100099366
Ga 13.890947062649753 8.76174800034837 10.881922538626306
Ga 7.674123257953343 10.983984040592453 10.418957384648706
Ga 11.951656283784253 9.162656959313987 12.672064453795317
Ga 11.133221844165437 11.979840463747335 12.980956432303362
Ga 8.53946264475713 12.240306083848711 12.802565399516073
Ga 9.419128579036522 9.821587267192006 13.39816915698033
