19
Energy = -45.59619587 eV
Ga 14.797505236197626 11.529217362098825 7.893404853689295
Ga 13.560288176805312 9.663046558123838 6.3769043024674295
Ga 12.957377294834314 13.094388307496558 6.907636939321785
Ga 11.329455789208598 10.937033558103346 7.0182867480962985
Ga 14.20211927379958 11.624566251146629 10.394657045673346
Ga 14.120110409835185 11.982884289276582 12.862698635090762
Ga 11.754477016213496 13.269635893402356 11.580996300176135
Ga 12.793992139690921 9.782170048673601 8.947774488580084
Ga 11.759757242119711 12.555298793042079 9.15568628643784
Ga 11.512759587111447 10.362536873030928 11.059021912289152
Ga 9.308985425140664 11.713275705078056 11.89191156865606
Ga 13.647236507657562 11.956633610905307 15.360709373237928
Ga 11.741505747592557 10.898397898496007 13.504423730639065
Ga 9.80964624603922 12.578062993337964 14.29398508914171
Ga 12.197765155822365 13.885405732092108 13.913645076305306
Ga 11.27523211192919 10.810687944592727 16.04373069996321
Ga 9.131724439192666 14.598039939802108 16.177287549910226
Ga 11.688609218833598 13.613618504845709 16.37207261638013
Ga 9.400888970518606 12.156511211863933 17.244567064417225
