16
Energy = -38.82784701 eV
Ga 15.44166129401285 10.925127879977763 13.08510607383513
Ga 14.61431260126189 12.670609779030624 14.8722801224038
Ga 12.116365978856415 11.779758233302035 15.026239851718392
Ga 13.150713129454864 9.639432715377962 13.795117365582886
Ga 13.922333744407606 11.303366954582946 11.049114971432788
Ga 13.07469669809366 13.110585374996724 12.727480110446454
Ga 10.242204813142834 12.735677883631858 13.456179203962806
Ga 11.343154819253375 10.626151413454078 12.191556417453166
Ga 13.211591871396013 8.486892638876208 11.215764214115778
Ga 12.069420877997379 10.331341212656433 9.536493344085434
Ga 11.3822612363322 13.021927501298245 10.708423775321119
Ga 9.355393065890157 10.507888529792961 10.386142022863833
Ga 10.462089082123057 11.875370233001636 8.27565612786244
Ga 7.563380396594047 12.016277441772507 8.856813997161368
Ga 9.456566346404776 14.080805451672274 9.293952554377272
Ga 8.559828904555737 12.730201447783916 11.499283252955195
