10
Energy = -23.08098736 eV
Ga 6.103440511846223 9.729391031200842 9.882436321058556
Ga 7.825617459391622 11.26562643669512 8.802896786820083
Ga 8.540916435054571 9.434062999163727 7.066778287865361
Ga 6.691812372491746 7.880566075151897 8.132995628841483
Ga 10.42866110006673 10.746050906279361 9.173293165963972
Ga 11.31828050983175 9.87424123824285 11.480921980118882
Ga 11.248945532155789 8.765673065422067 7.749003832989169
Ga 11.569050798260601 7.611057904978235 10.148700652249438
Ga 9.254173375120281 7.307556083910005 8.742037938484458
Ga 8.727169813655252 9.06522094446047 10.527097109909084
