16
Energy = -39.00702346 eV
Ga 10.299796450688106 8.969558896044749 9.921803601080313
Ga 8.035012782858622 10.388571114951217 10.588988228867754
Ga 10.064419979630422 7.834621366909365 7.126529414016978
Ga 9.589187817691384 6.128381706272423 9.086902089397928
Ga 8.727306527149823 5.123010879704036 6.698184031532805
Ga 7.722825183246977 7.660543639632058 10.132368240799762
Ga 8.381470529988768 7.531863788623714 5.024315694853135
Ga 8.45956892063377 9.8785211947238 7.834853234297831
Ga 9.504621327799272 10.227503698659351 5.294370144604283
Ga 6.824276730337536 4.934048281545115 8.948368041781714
Ga 7.386391819026584 7.2868526976612 7.55844794111599
Ga 5.898224461911007 9.446429378925483 8.682863998988832
Ga 6.569754144853202 9.335701522915414 5.929810953935075
Ga 6.429136559590157 5.476843819743722 5.321619716230734
Ga 5.139547554404813 6.989166149202545 9.384644387388896
Ga 4.913403833009679 7.166168511531722 6.637862575418193
