12
Energy = -26.55085763 eV
Ga 9.659506387918151 11.133276543678942 11.314034031094153
Ga 8.296034009996278 10.206975041823744 7.012912709523269
Ga 11.034091249867265 8.934401260297388 8.53923267528404
Ga 9.540574072010015 7.926031859122817 11.317720546988387
Ga 8.716881801223234 7.035557971815267 9.11459019773885
Ga 11.995053817780313 6.862519719844639 10.283508332573627
Ga 9.655663782874317 8.15350177050571 6.727433721675517
Ga 11.57009538371022 9.636162570266581 11.098570807819597
Ga 6.857645651682563 8.677907529132868 8.650777313722
Ga 7.522965966001378 10.02863338411943 10.333039569551675
Ga 10.026889373242103 11.285907834892685 8.60997988169721
Ga 7.701876620808861 12.696202221874172 9.569876743069633
