12
Energy = -27.85342145 eV
Ga 12.347249287480278 7.687327187687787 10.240402218999954
Ga 9.900362424245827 8.269189894635437 8.858099553469104
Ga 11.40965314997136 10.30821561573148 10.152663233865665
Ga 9.90622813284166 10.774171992265078 8.094515164898064
Ga 12.364662861876333 9.285919630741478 12.472300503507782
Ga 10.114215215047444 6.493464559131967 10.883713011309144
Ga 9.675620953549238 9.04560774818486 11.73597862620448
Ga 8.08595656386484 11.40644653498216 6.042318578891206
Ga 7.591568133658609 9.277298551021698 7.612785213028788
Ga 8.873738939592112 11.447279371714785 10.475363804139526
Ga 7.3534915353621235 12.096520501789625 8.495210275445155
Ga 7.573617665200253 9.103866339744672 10.140107623930167
