13
Energy = -30.04685805 eV
Ga 13.75032720064698 10.122816885566907 11.845736246724192
Ga 12.284973715755127 10.240067389868658 9.667721058298682
Ga 12.934095213546103 11.248482703636133 7.258110957967509
Ga 12.466217376305522 9.557043124508393 14.124519207269442
Ga 10.931663713716254 9.356894150392415 11.815079094212296
Ga 11.703883330199366 11.971792532803592 12.284545184019931
Ga 10.088049208570592 10.768761199757565 14.094629094003086
Ga 10.587722883741156 10.058384385155852 7.402671782502204
Ga 10.236065847811538 12.299257862267222 10.26804538127271
Ga 8.480963914803654 10.481765906511711 11.990986477007155
Ga 8.973542922594094 13.118697081461121 12.653245621617407
Ga 9.515240180049727 9.649622161808871 9.69086872112314
Ga 9.019916344611039 12.11477174210732 7.967903753483727
