14
Energy = -34.08754922 eV
Ga 13.300675686063554 12.265895550659904 14.008431593294143
Ga 10.673979287583776 12.205635980871241 13.900594700483136
Ga 9.31402776561068 9.987864283822372 13.20053873033962
Ga 9.156723931494906 12.611643490806824 11.722122180064103
Ga 12.064475921924736 9.537655286598836 12.851897124090613
Ga 14.075697593179111 11.555831805295051 11.592140654482485
Ga 11.833927706069181 13.056100031947324 11.621798592263152
Ga 8.125969899924053 10.251244769334352 10.821069445663259
Ga 10.819034609139733 10.535173453316762 10.85214695000627
Ga 12.679595587452638 11.946276152527586 9.310575438441848
Ga 13.302302329120868 9.266900099970435 10.35051110598896
Ga 9.056012296560022 10.442163010525379 8.406997518244637
Ga 10.145000027275135 12.892557620411269 9.228959246037618
Ga 11.51721130760851 9.631807646315833 8.38924999422089
