11
Energy = -25.18200394 eV
Ga 11.899517915854537 10.123328609570192 9.00310575801271
Ga 11.747981135392086 12.440883156018268 13.128779091423532
Ga 9.462075103471507 13.233972766352139 12.103345445410087
Ga 12.715895182965228 10.587747366978245 11.611503578729568
Ga 9.585732132354297 10.613224321957212 12.396325309717282
Ga 10.555958544836622 7.798457699448441 9.131578539434038
Ga 9.05770568484849 10.108284580793125 9.524743630814937
Ga 11.823115615132915 8.384438306550171 6.857991631305906
Ga 10.788763696645598 11.97864124765685 10.210285723556796
Ga 10.814126404660232 8.703379010576242 11.48718333773488
Ga 7.6026505808871585 12.07525441363659 10.464622946252868
