19
Energy = -45.79180959 eV
Ga 7.155902638698464 12.158759091825184 12.724133258046852
Ga 7.859687312839117 9.79129473921538 11.865006901988522
Ga 9.145115020077242 9.27696307970775 14.089879834249654
Ga 8.307922176550093 11.708718820117 15.019035366137798
Ga 9.336274012545502 12.512216185198561 11.35155480900097
Ga 11.809042987308992 9.298429895777398 14.450646355475543
Ga 10.517208727551123 11.79407375500315 13.661823667989799
Ga 13.145451872768994 11.51047961840519 14.083694329707274
Ga 10.464401176280093 9.76599900248205 11.647091710068858
Ga 12.900484128693952 10.087129991848656 11.614044279282405
Ga 11.932427162338863 12.911958795047429 11.521848516585283
Ga 14.15383870069185 11.884619281092187 10.187227069046816
Ga 13.137536892376287 15.44755932635775 11.57299439155902
Ga 14.319975336900956 13.456810600681678 12.753040454594098
Ga 12.82667732034596 13.886785706791 9.172137655476998
Ga 15.28591065954584 10.728276591665 12.61341522844801
Ga 16.83924873570039 12.445862545318647 11.39660527613007
Ga 13.814677227486875 16.49249199748408 9.142709737836707
Ga 15.407377245133668 14.295182374191794 10.343398855513431
