13
Energy = -31.28674442 eV
Ga 12.363648178710838 9.186357100351909 12.510939042202624
Ga 13.221886758059687 11.419599526404944 11.220385793590694
Ga 10.63331463875776 10.559935099896633 10.986628945051809
Ga 12.03968946508943 8.57970912109303 9.70305607276078
Ga 12.846980730640103 10.85480375738123 8.697964065631448
Ga 9.780701505293582 8.298434537490575 12.399890887664164
Ga 10.252638722223802 10.345211309260867 8.225679470520564
Ga 9.538625393402326 7.8572344302801875 9.776756153233734
Ga 11.064014547526194 12.805178976384507 9.800561519227875
Ga 8.691806489369194 12.654793496342418 10.972081580464463
Ga 8.626998328991434 10.687917079720933 12.80708176609187
Ga 8.129963480746154 10.085728794603884 10.00297583926979
Ga 8.442685770941322 12.279647205988558 8.292619809101128
