15
Energy = -36.39472946 eV
Ga 9.214062374129945 8.922979851726904 6.217901670964658
Ga 6.825778475666358 9.061559132459855 7.435905583526397
Ga 11.066229697741212 7.058515789635761 7.157330497885162
Ga 11.222400928938603 9.957726114046803 7.732485884384216
Ga 8.922145332160051 9.843105791059495 8.919997803101836
Ga 8.392778807051977 7.0664930027263875 8.223159839240326
Ga 12.864471753270436 7.831247945644893 8.925384408933246
Ga 10.668283655146727 11.963756646475565 9.566331402251526
Ga 6.146771023833615 10.512436885273045 9.412811573703094
Ga 8.167423093042542 11.824453248445026 10.522896560987094
Ga 10.294698370077771 7.547907671390828 9.939555851755769
Ga 11.867879184682623 9.712939914417007 10.577104298448766
Ga 7.482749907727734 8.054379443089333 10.679415021123479
Ga 6.622190984410636 10.312683662911029 12.289293449565834
Ga 9.488497841784545 9.576176330362872 11.646787583793794
