18
Energy = -44.7137576 eV
Ga 14.63461327699716 12.076442482057114 14.224725942271476
Ga 15.156342045191646 10.180518134827565 12.409921849255891
Ga 14.603977478028616 11.68968334964386 10.272489462784705
Ga 12.983586635975474 9.340098317831824 10.952345052203405
Ga 12.810183492091491 9.189815758582254 13.78519668633041
Ga 10.343873222574347 10.614502424944652 13.461620227500427
Ga 10.461805628075904 9.417262212738963 10.855176804547112
Ga 12.65658213325921 11.629319533926619 12.273091443546914
Ga 12.157560974131384 11.909883047484003 14.980255317587774
Ga 12.086309067458481 11.463678497639178 9.41658439995769
Ga 11.777064982512565 14.041275133461125 13.326741317741789
Ga 14.538265838107742 13.820102676953582 12.254572806300102
Ga 9.456336457531593 11.37037073680872 9.37416874072274
Ga 10.191376794221213 12.612997253821641 11.766582790412533
Ga 10.042445470488394 14.06827207108777 9.259832402298377
Ga 12.462035363108882 13.905298548431508 10.514324130976766
Ga 8.118808915255205 10.370568561909058 11.671067880190693
Ga 7.676211076816232 12.982592920125631 10.954379756175188
