14
Energy = -34.17244795 eV
Ga 12.063882287040459 8.386103234929458 9.028877048208084
Ga 10.146299029751532 6.68566304253606 9.747221512898896
Ga 9.752025947359055 8.570165442313119 7.908594144086323
Ga 11.483689262418432 11.010058953057108 8.148570378859853
Ga 9.393657133527597 10.545871938970526 6.237467328786656
Ga 7.605567736487339 7.47170647496023 8.774333326289824
Ga 11.36868763271011 7.312794560169527 12.120851896041048
Ga 8.608120354848367 8.340813759054997 11.236842000198813
Ga 7.122294517762797 9.472645329059494 7.057175793677498
Ga 10.630601898749166 9.781590746468234 10.736565398969038
Ga 10.134319292461656 12.312046787358787 10.523943109788567
Ga 6.743798104320725 9.895847284776881 9.889955210826463
Ga 8.695135412601473 11.09644525325244 8.761200003979447
Ga 8.20455897747538 11.073530425732894 11.794418511234417
