12
Energy = -28.68810659 eV
Ga 9.41786759409556 8.26360111436144 9.372562382808407
Ga 11.041991095499643 8.981360745296877 11.326731815729193
Ga 8.531217183989156 8.735737262570835 12.105349933049512
Ga 7.99670200059447 6.3557789262752005 8.000337150234627
Ga 12.232893318990017 8.794619645830632 8.905810344329138
Ga 9.712424249412972 8.259625603705112 6.760481670758016
Ga 6.81617930617882 8.387459307126676 9.667296861854245
Ga 10.859221161252178 10.591826805774073 7.568553601084336
Ga 7.626679971803143 10.784209194711973 10.735028831190368
Ga 6.970549326547239 8.63042985658289 6.940782685725537
Ga 8.168446918424792 10.510637498003915 8.063619524120668
Ga 10.10456106565055 11.148300112907208 10.035523168481713
