10
Energy = -22.92322202 eV
Ga 7.789276134530493 9.124655829736838 7.42148869180064
Ga 11.099942506789574 9.76129706508827 7.903259663046248
Ga 9.51490102059446 10.272776610927059 5.9199704310188555
Ga 6.627072716285309 10.148644478980954 9.485748263883025
Ga 6.545442863530252 6.823306338820907 8.642950992365375
Ga 9.224518584176412 10.369922182074845 9.503088051013336
Ga 7.536538228515621 8.205034037641205 10.858307706468231
Ga 12.190534707901454 9.014601707818178 10.047726086817725
Ga 9.26659489474532 7.511130311357583 8.747454407559268
Ga 10.028484503565156 8.591937598188203 11.293311866661337
