17
Energy = -40.98605812 eV
Ga 16.974964506098576 11.30746541124652 11.5743851359518
Ga 16.958857971260258 13.314769184368656 13.912222303325677
Ga 17.916481789107515 10.759571599786668 14.182026560315695
Ga 14.338623373652096 11.275603740170277 11.434014847136426
Ga 12.598010030214063 11.683345706962253 13.497250885871832
Ga 15.672522905489112 13.674849800302317 11.523038833778559
Ga 15.166540455634246 11.241852968556234 13.98830536596517
Ga 14.350529447796594 13.868630149154425 13.896961230088436
Ga 13.001563137542286 13.946421076358682 11.401756440352838
Ga 11.720306548648097 14.311884024831848 13.949721523340596
Ga 11.708876390122569 11.621725620548743 10.790965115454979
Ga 9.28139098211435 13.639551203375763 15.387840901754911
Ga 10.451678415298879 14.002485920605285 11.461394577682027
Ga 10.107811682509253 11.922043208013413 13.424950495673828
Ga 9.375318680294788 15.461233337943513 13.38479952593393
Ga 9.119774119561631 11.538678908788071 10.615445864269883
Ga 7.9668850858876645 13.193821272657512 12.414294698511451
