14
Energy = -33.54799382 eV
Ga 14.360141265042449 14.562319543592446 12.621056814820063
Ga 13.029319752847888 14.345007581610117 10.11541060704387
Ga 10.506897749222109 13.317258783595937 14.708850211087
Ga 13.0441984622231 14.023680614322974 14.782967240923556
Ga 13.729905922783747 16.476801163462888 14.961465734898434
Ga 12.15527067451202 16.50464798557141 12.599621007355264
Ga 13.506967740140725 12.070644272260669 12.424411154699994
Ga 14.314152919118017 16.694121479835182 10.724270064183646
Ga 12.129448565675684 11.227408152741098 14.390413082421201
Ga 10.482947498856479 16.001634984986893 14.568847836965517
Ga 10.064486669662996 11.703833045261263 12.498875942973674
Ga 15.34954178587893 17.05314826708036 13.09334623364085
Ga 11.555793473510953 11.995890621180218 10.430101040694774
Ga 11.479845178406299 14.059363629750907 12.352774491143766
