15
Energy = -35.60121154 eV
Ga 6.567855772130964 12.063329395956812 10.85165590929039
Ga 7.7271763271145035 10.627492252107603 12.73923993891899
Ga 9.722044151040343 12.1308285755602 12.118633280009732
Ga 8.842326989174236 13.44114649883358 10.009290114099379
Ga 9.03818469837313 9.219553400748511 10.966108503457459
Ga 8.367888608801806 10.94082903940653 9.177090917028314
Ga 11.444314814899409 9.952953238931878 12.251399275076757
Ga 11.165732362192296 8.424674977744978 9.682193608024287
Ga 12.331824862394111 12.624847126976476 12.080109349153338
Ga 11.40725327200196 14.055919598337947 10.201526014414423
Ga 10.951767284695192 11.298763087470794 9.680240728651603
Ga 14.083806719600375 10.797688042811707 12.43336468056457
Ga 13.284059512497722 8.243633247879057 11.290272245438409
Ga 13.291647026187217 10.582893196384644 9.66409145880742
Ga 15.670370562547378 9.476332746198736 10.729935985287046
