16
Energy = -39.24546488 eV
Ga 12.979072297883073 10.247843257808222 10.752185653534214
Ga 11.307030659961738 9.748301872336746 12.838349927010702
Ga 13.117602981594922 7.668496454245349 12.088225529718873
Ga 10.261251835588775 7.578828433971856 11.503265613538252
Ga 12.04348878635503 11.62691435382792 8.755776013160531
Ga 8.91622682613665 10.748067470005026 12.56504901606805
Ga 11.995833618870593 8.003044752179974 9.465702357889771
Ga 7.885727390346976 8.648551920284262 11.261478362018694
Ga 9.216153893665338 8.24588416870235 8.9562016194394
Ga 11.107620385221836 9.470981395858646 7.480137164859278
Ga 10.12655712486611 10.444351155694442 10.1980991990268
Ga 6.81460045422403 9.617329162085191 9.021614706439506
Ga 7.63248367492893 11.784617649734072 10.495765415817024
Ga 9.583955434981734 12.326044685261374 8.124605493528765
Ga 8.547625795788349 10.059430848151473 6.985313158236356
Ga 6.737856203279426 12.178493480100038 7.77966007200847
