15
Energy = -36.03040362 eV
Ga 7.862358862534591 8.81927793186559 5.773808232481036
Ga 7.364004867534316 11.118566516226647 6.921707113860024
Ga 7.710411442451552 8.981296858750895 8.553090545305254
Ga 9.82370744345219 7.44331618275452 6.868472070743254
Ga 10.085271958596383 10.116028993334243 7.390598697690236
Ga 12.10625733134291 8.08025614087382 8.079323321993295
Ga 10.834218784784161 10.27829805090017 9.72340370828979
Ga 8.40765445793536 11.525159566089364 9.41867200719639
Ga 11.9273043105869 7.924562715163978 10.783948886866803
Ga 9.573417433763952 7.603509604627116 9.608106211357555
Ga 10.342824332208359 12.323274670252399 11.579357093406802
Ga 7.729683802120067 12.08663177266585 12.018263887141751
Ga 8.376770952581198 9.442072405541309 11.237623609437057
Ga 9.803907058181156 7.133528097208678 12.386226225684993
Ga 10.791497960551695 9.863511492370218 12.396689387170424
