17
Energy = -40.88511453 eV
Ga 14.020272344354877 8.400008486096075 14.249135749792428
Ga 14.73771044094008 7.401155976884096 11.945539564178718
Ga 12.376173122405635 9.077472344990024 11.974196642616523
Ga 14.970750470665308 10.07773310013903 11.937817631678852
Ga 9.108548338629246 13.047771805830946 13.015527843191816
Ga 12.466174705754607 10.405836060642557 14.394260119754884
Ga 10.631615628108094 10.890586381497672 12.521595815784222
Ga 11.76936575476393 12.926267487971533 14.235014438005216
Ga 13.46335783563318 12.033882407241405 12.082288371609854
Ga 11.538185168421453 13.367164196646321 11.14540773628681
Ga 9.091414507719039 11.830768816273931 10.517049669973405
Ga 11.761337455191788 10.63308421803633 9.998557138245681
Ga 9.773516599115135 10.996457043300913 7.909302759723081
Ga 9.493259774400261 15.253808741082903 11.607180216606203
Ga 11.756110810019601 15.240921770551832 13.149838227533651
Ga 11.882627473302387 12.787136389605884 8.479109519516186
Ga 9.626535644218682 14.089772949124793 9.299184627828826
