12
Energy = -27.63557722 eV
Ga 9.746160674264807 8.280044761723193 12.72918497556182
Ga 12.261651983215133 8.22277582697794 12.040246936886918
Ga 12.523016876569322 9.91586542111871 14.136168829286026
Ga 10.09695648419217 10.715494656939473 13.619446254677968
Ga 10.364514318208021 9.422726428605197 10.439085105699446
Ga 12.513648273077719 10.864114943078803 11.697998629755844
Ga 11.928951315834455 11.591349161991511 9.188209216533059
Ga 10.128994475312908 12.095891715999535 11.43120225496265
Ga 10.023834905570029 10.119526570131546 7.933020064629593
Ga 8.345109159520087 11.328525153815518 9.502493322212038
Ga 10.751798162440997 12.50162817604906 6.817773215654485
Ga 9.983482908708464 13.43975146288882 9.198650087511872
