12
Energy = -28.3904899 eV
Ga 10.140991480035066 11.099144616496423 11.702950812027357
Ga 12.071346442602868 10.642797464235244 9.877137828175481
Ga 8.572947184873328 12.385050330887953 10.228782296400144
Ga 11.638980606459969 8.369351039968961 11.595515455063088
Ga 12.822326382125983 10.516787561465144 12.454695199927611
Ga 9.813065744421026 9.361195227973026 9.426760568432794
Ga 12.482208308726657 13.057758089595504 11.762633161740427
Ga 9.130365125651664 8.607173400099363 12.06434895463686
Ga 12.00543581514913 7.746943051696936 9.03186076359098
Ga 11.137524207646246 13.034968189906794 9.50244092880932
Ga 9.747538150325578 11.449105257639687 7.9099875924997765
Ga 7.289964111828379 10.299412992312174 11.110686748884035
