19
Energy = -46.52959494 eV
Ga 11.617767303846678 12.335973365495775 7.735615580052792
Ga 12.335639662077066 14.16632841086733 9.607381000857725
Ga 14.967835937728374 14.999208175171145 9.869049281600693
Ga 14.354646222270594 12.05553021252775 10.214470461046934
Ga 12.394143153671122 9.951063871325786 8.699614429865289
Ga 11.770629351605782 11.639309127761083 10.55210679910978
Ga 14.1768045179831 13.98727077306321 12.222245593539423
Ga 11.409868134820286 13.782536831214324 12.091118280948445
Ga 13.963637952137939 9.468196050432276 10.922393263691998
Ga 9.575589119339252 12.6550245806035 9.54959706783086
Ga 9.643966886851606 9.835790819474825 9.603584230815915
Ga 9.525215844172815 11.481062982993816 12.072258876599237
Ga 13.184769825543498 11.585305782074965 12.809062059701349
Ga 11.495035629327871 9.31366466509445 11.821885211044705
Ga 10.824127927479786 12.256622587951053 14.311214054362521
Ga 9.301000055136296 8.957125637589698 13.4016911864718
Ga 8.347594378752799 11.147734980671318 14.514695724442827
Ga 10.140681603948709 10.4108307429086 16.54951374050743
Ga 11.720922700812196 9.773799850943123 14.455769710632023
