18
Energy = -43.97842944 eV
Ga 10.021901684612937 10.521283539303553 13.546383520081179
Ga 10.907256897766086 12.110896460062401 11.503365489881636
Ga 12.230214147153786 9.204492833475259 12.809352228040407
Ga 12.272504897175258 10.08748591934043 10.336252319098476
Ga 10.97774544788659 11.640902638906317 8.691403880613155
Ga 11.169553389825863 12.970819325319567 13.985159307280016
Ga 13.542635102066368 11.784978321177144 12.646481545658768
Ga 12.055567397178336 14.522521777421243 11.9745543601217
Ga 13.67834106889454 12.40771853378535 10.074083316016356
Ga 13.020619571779458 10.719769888277488 14.877484733255953
Ga 11.764841644370959 14.130570786947986 9.18018544455123
Ga 15.082940603200667 14.46473594064448 8.948946975879661
Ga 12.545246802641781 13.39740928581175 16.227572980300934
Ga 14.879200216571663 14.241079822912802 11.694183798450556
Ga 13.818603689667047 14.059433102728303 14.127253502720235
Ga 10.552237956874594 11.415914461240902 16.05078239041667
Ga 13.250611622559925 16.053668220870307 10.21503258074596
Ga 12.611503765696076 10.817866256917522 17.67038280270397
