11
Energy = -25.37933879 eV
Ga 10.009083502843026 8.611389455137413 12.80286574340573
Ga 12.323268226959351 9.687350811793365 12.402232755775094
Ga 8.402253082302376 8.36893790788472 7.988096136460113
Ga 8.650998195423565 10.819142256134432 9.678775994603368
Ga 11.540972055533782 9.699933050151726 9.886860419410066
Ga 9.757620810258512 11.139197090926018 11.928061945984357
Ga 11.19674442811657 12.611077425428961 10.319030999027781
Ga 10.140228993373242 12.37279637961209 8.071869068808283
Ga 12.414603022019481 12.296420866976833 12.627888457864756
Ga 8.947571916701195 8.378732889349571 10.555276928560783
Ga 10.50164394590246 9.876669115374218 7.504060222589507
