14
Energy = -32.77335159 eV
Ga 14.771446355186438 15.075546460614362 10.327615266818611
Ga 14.395505437901356 12.243361983324647 9.83915871666677
Ga 12.038468935051274 14.190536265511751 11.609113495328515
Ga 12.661192037778015 14.03736138603523 9.089905491820979
Ga 13.036181424967216 8.759294279575629 12.552237697747598
Ga 11.704897382399906 11.126067695408295 13.075549906094249
Ga 11.470026324630783 11.94555865009495 10.268476927062393
Ga 10.326199873140034 13.299566891719602 13.280723591591823
Ga 10.705412798652958 9.448698276944231 10.798026776965928
Ga 13.302676248151808 10.06445534536038 10.39790331483258
Ga 8.982710584413176 11.573171049106122 10.966734950247965
Ga 8.056641097589566 12.036509672436997 13.526459073460122
Ga 10.73373505304621 7.67949310669493 13.018377387374459
Ga 9.3181970320328 9.788113338268694 13.130330586149988
