23
Energy = -57.78240582 eV
Ga 12.373184130827756 14.926839057217459 14.456159195144863
Ga 13.407104584794398 12.731609499049728 13.607257949126362
Ga 12.427953005826728 14.43896629088373 11.21784770781527
Ga 10.23610391653964 13.67195527354448 13.337538845789046
Ga 13.940529046325786 12.459890648180872 10.4044391849033
Ga 15.45219132723766 10.189934453094763 9.548446453129893
Ga 15.05031967474329 11.07499379339073 12.442350671095175
Ga 11.544120722178345 11.901687519094054 11.786973666147153
Ga 10.670143361742578 11.268591537984122 14.656653590746314
Ga 11.287546547647738 16.41228989230307 12.598464757973506
Ga 12.627641515831758 9.97375388077254 13.234170368166682
Ga 10.136526266140637 10.554843743194915 9.511319045069424
Ga 10.150875877299347 13.387622360499972 10.09673447944627
Ga 14.556685123465522 8.599707113761474 11.86580592836747
Ga 12.684614008611948 10.067092288865851 10.197785109829052
Ga 10.210685263770177 9.387082100272522 12.105528477681924
Ga 13.826692622781895 7.676016922809934 9.339765427171965
Ga 12.12386885926059 7.552111611750394 11.856656563920714
Ga 8.811152330651952 11.572473679255374 12.323249450340223
Ga 9.182181462908185 15.411441885685068 11.475464697195182
Ga 10.931114854745816 7.951594088695514 9.365416145388192
Ga 7.91626016925885 11.987060078875915 9.547868960811003
Ga 7.272897249095157 13.632622479016504 11.84517649153315
