21
Energy = -51.61033967 eV
Ga 15.713676888688232 11.620425326885432 14.532980478867222
Ga 10.649402480392094 10.554292671633933 16.155583350848232
Ga 13.943721230723762 11.672812036718272 12.333250390484253
Ga 11.278070654851845 11.039410271805204 12.219060073708361
Ga 11.239398694749774 8.927929361635247 14.014163333454388
Ga 8.927205409399846 10.568222743179996 13.72938454624245
Ga 13.056639506264915 10.761340425651694 14.598904174935626
Ga 12.841169847490766 11.652917890755923 9.970436785142114
Ga 14.80447865743318 13.303615888603193 16.508521031473414
Ga 10.673162623461483 12.585147472359438 14.374422027790063
Ga 10.30778561218167 12.601313702452734 10.155004939053164
Ga 15.423305452858138 15.287521760376269 14.933960731084948
Ga 12.427190839238055 12.356232467648246 16.74265702421382
Ga 11.670988841353301 14.94104268516884 9.842274301225087
Ga 15.678073586320245 13.674264513832219 12.801278285250474
Ga 11.815637105396894 13.85628878343533 12.224432694376977
Ga 13.289899907068596 13.799329611326462 8.05526965079769
Ga 13.229978518221579 13.770891067593947 14.310456182945314
Ga 9.78397105335949 14.26947322336523 7.982891922939082
Ga 11.375550271086063 11.98019694947132 7.70742394518866
Ga 14.2534200229283 13.92145600604608 10.666139055109861
