23
Energy = -57.5794213 eV
Ga 11.375421930107684 14.687370628566374 9.940287050281004
Ga 9.474715441460098 13.469637924516029 11.474462816883982
Ga 12.207021571565022 13.256457560993478 11.912526993600313
Ga 11.148930047811055 14.056524241977538 7.151887303552603
Ga 8.822074848206517 14.442780405692789 8.962504747027506
Ga 13.052297030330639 11.361516691854769 13.775915909362137
Ga 7.654450282985377 11.393819670061653 12.252880515289103
Ga 7.9618739556060625 11.918140851069207 9.608606211147542
Ga 14.730916022620763 12.955738444459385 12.51876380712907
Ga 13.58801194490507 8.466732223005417 13.874406344078906
Ga 14.249175617741365 14.836942423146246 10.487167279359307
Ga 13.256887423505557 12.953934150444963 8.566888290688627
Ga 10.628892127604406 12.075441090727566 8.992391749924481
Ga 12.706151977520573 10.99156684551588 10.371705973483905
Ga 9.901525435361922 10.248307681075186 10.627561950271433
Ga 11.208421181872012 9.857091985874396 14.803813542449008
Ga 9.091247069186288 9.133940064687264 12.901996165103517
Ga 10.351550178187383 11.690584500880625 13.112936814204598
Ga 14.697383820540777 10.09802351473962 12.000692901620983
Ga 9.128452169887959 8.07402757356269 15.419869162050393
Ga 15.322443463333897 11.886566463309682 9.999549940318715
Ga 11.834042956156836 9.048418163655427 11.944724724995039
Ga 11.158501875580285 7.1712658690134035 13.772522624187665
