24
Energy = -59.69875754 eV
Ga 13.377456824598937 14.91313012671487 9.833477561429651
Ga 14.200801496984898 14.014907146169353 12.660728214110213
Ga 15.125579061370868 12.644798397594359 10.68295914852444
Ga 15.785552740723137 11.97557468588587 13.66810301485556
Ga 13.107692610680896 12.34832675491905 8.938073556773803
Ga 11.966611664620352 15.475130482803507 12.061382306226772
Ga 12.292295173550857 14.708089628498806 14.692060275419966
Ga 10.681707373341313 11.682661662471725 15.50173222138142
Ga 12.99326643699372 12.144161863645678 14.055116802317691
Ga 13.288639771039563 10.794370469998976 11.698679733774911
Ga 11.800326803074908 12.889424988543112 11.13377271026204
Ga 14.557937360526415 10.205481119923023 8.956898623323951
Ga 9.334829180835126 15.48760316388832 13.445609828766377
Ga 14.678628528308613 8.189362715500287 11.143683144008198
Ga 8.91955701714899 17.422605084853185 15.37494145124208
Ga 16.302734267436144 8.246653138252668 9.087122707825428
Ga 11.248213711480913 17.3134879214124 13.788553905192956
Ga 16.122557082060897 10.416989046009197 11.480642318907943
Ga 10.310722604158329 13.064836036577256 13.205841842191246
Ga 9.723707502870845 14.181564178184678 15.762831655874397
Ga 10.663828438693619 10.47276401125044 12.379346288172295
Ga 11.164842965846232 16.2759007570706 16.451344142428766
Ga 14.45668923649444 9.202648616402229 13.531155560636494
Ga 12.230081528095663 9.663127897895992 14.705212713396847
