24
Energy = -60.07516373 eV
Ga 15.710846481167827 12.372100157483366 11.416786182287495
Ga 16.79006312167641 10.72622349507996 13.302091849671097
Ga 13.805482889695478 12.554414598457324 9.655591001830444
Ga 14.193247536032326 10.095808404780673 12.539927796623486
Ga 15.100474920088393 9.953813813161366 9.98039750654979
Ga 15.05469069888191 13.23552780668314 13.855037639883264
Ga 14.491997179856565 10.848977293056851 15.099280336850521
Ga 14.450113848242518 13.458228940650654 16.444080411118634
Ga 12.354991442476269 10.280420003782238 10.63430310537661
Ga 13.060540191990016 12.841979427584826 12.2304354029249
Ga 12.0487709290153 10.884273484233729 13.958283415836156
Ga 12.342404647306427 13.709079298278931 14.675130811834306
Ga 9.90044330139645 10.881952830435173 10.05314718409797
Ga 9.810799602446364 12.046163603651788 15.148225206990666
Ga 9.088968524051651 12.8769068527215 8.531514742114869
Ga 9.665760983601317 15.232832208936816 9.635007000592614
Ga 12.270730437666701 11.57827165469556 16.5031758298248
Ga 11.651412700964796 12.098287460109917 8.041732744582784
Ga 12.133056190785346 14.713629319621672 8.426536218247964
Ga 11.13153028650482 13.233163826699158 10.648314369100145
Ga 12.021507356338853 14.06906337795484 17.63738612545065
Ga 9.884089185834185 10.981604815006763 12.58469770737021
Ga 8.27387980104727 12.950897591062835 11.5002973122196
Ga 10.33035116146466 13.952475637756338 13.055587286976237
