20
Energy = -49.48508563 eV
Ga 11.914692496182088 8.65969132477908 7.701031621379147
Ga 11.781097993332548 11.168160347728374 7.038504682183955
Ga 8.996642314656503 9.762209419067357 8.045695004061157
Ga 13.91784578027235 9.198620644175735 9.594821020749425
Ga 13.545776342995213 11.848064634250441 9.093362405861162
Ga 11.940410097812707 14.173703938689295 8.113464903766
Ga 9.789027467560203 12.448646624190115 8.422333568962479
Ga 11.48970598396156 12.955553275834815 10.686235160569414
Ga 11.284739826723916 10.448658204018457 9.64469217091403
Ga 8.956452296246479 10.233956350303005 10.749976279161903
Ga 8.600379792952506 12.991296090006495 10.866179800512668
Ga 7.4405454522245495 9.212515621905489 12.654063919271913
Ga 11.665765247874424 8.669762903073144 11.617880035993586
Ga 7.8932129494095005 11.779924890076996 13.097508726618058
Ga 13.065214625444607 10.976323091325549 11.816172666207256
Ga 10.097450451828635 7.805028836578047 9.76664255891812
Ga 10.523159182633652 11.886076396682355 12.798846342460761
Ga 9.645712824684853 11.187320485399269 15.418281675712358
Ga 9.971375789979845 9.24702944387334 13.453739701152355
Ga 12.405294661820554 10.271959056639108 14.345069334140923
