24
Energy = -60.79358135 eV
Ga 14.029124735444633 13.069326555137593 8.263710047826155
Ga 12.760315492821805 10.683644588205144 9.18483644857461
Ga 15.518177506878917 10.828309313056039 8.268771968757997
Ga 11.74761422927581 13.137104187569175 9.65680255127478
Ga 14.96814056447094 12.244855356712977 10.692650600858737
Ga 14.553147893889854 9.059716012764875 10.161307577348039
Ga 13.56189110596611 14.080549316164847 11.852175702208314
Ga 12.500701739598888 11.46598644114791 11.738701090627066
Ga 10.148938239270061 12.960729535040329 11.683040334620534
Ga 10.113190001349459 10.680184925962651 9.978779991773827
Ga 14.846889084082521 10.32237140027839 12.532576591386663
Ga 11.651311624804029 14.747522080730247 13.516037376864247
Ga 13.287062178052832 15.451092008069136 9.366052734726608
Ga 10.968012909691742 15.539808760829706 10.82585037992591
Ga 12.478008039206525 12.374792561097573 14.233839199881304
Ga 7.74744877858169 12.167033715090838 12.884759944185266
Ga 12.170984842110872 8.756172650507827 11.52073071745103
Ga 13.112668808912831 9.848758175593213 14.351476272641545
Ga 10.278207421316553 10.403120598023042 12.73173398675402
Ga 9.001847793737005 15.311927042862926 12.994737772540002
Ga 9.773177593043533 12.983054509634345 14.485962769196433
Ga 11.024219006377185 7.9857750937820295 14.024898665099856
Ga 8.29445529243816 10.07237452012182 14.665258198577508
Ga 10.732828235149364 10.56694266562224 15.46478001901315
