22
Energy = -54.60699406 eV
Ga 11.556954572897595 14.095059666371084 7.335018230519815
Ga 12.924074687678496 15.046975912745255 9.893681980437563
Ga 13.00857544198716 12.388772753701486 8.830459238211915
Ga 15.30768717681132 12.401542674238698 13.039016030096043
Ga 9.814114957536042 15.905456795886534 11.409039038171933
Ga 13.319895776702493 13.067033747157323 11.548216657954997
Ga 10.719539340490483 16.120962254772987 8.919583177372006
Ga 10.619659372792494 13.551973135832148 10.059045701009433
Ga 12.235786168496254 15.542039414559186 12.481220196866065
Ga 14.238917391160367 14.905716240865393 13.971245034866527
Ga 14.664272795082104 13.29100807325821 16.061182567819927
Ga 10.298648958500841 11.161896874574783 13.5451827003002
Ga 10.2632067516164 13.475313280675213 12.598362697592446
Ga 12.415749614360559 13.028687693274875 14.309484917958779
Ga 10.563634655373388 8.992048003088518 11.809311800506242
Ga 11.380092218432242 11.167351089299137 10.579389160066034
Ga 14.689001804602897 10.813859736354022 15.05318105252205
Ga 13.01563523404571 10.664420030069849 12.765135188115037
Ga 11.510631461332958 8.74399209818855 14.282660120214281
Ga 12.038345595929528 10.893065892534974 15.771474157341
Ga 14.126280955657837 8.43858645130655 13.79814584419215
Ga 13.486995157229378 8.736809955819568 16.546271505938712
