25
Energy = -63.60421564 eV
Ga 10.522470042617465 6.627798714645695 7.247353279568738
Ga 10.25762341117002 9.805694852710484 6.931420249946024
Ga 14.74833967627173 9.896717555014758 8.503101541748315
Ga 8.582832791608597 8.148808794653002 8.27977514864109
Ga 7.934277080462669 10.83889769302791 7.908446392596798
Ga 10.207658259347642 12.299018831366904 7.706730320528509
Ga 10.061705434949067 10.215102311712814 9.83038278464622
Ga 6.840583604803564 9.450917843342184 9.935865963628727
Ga 10.154849007718493 13.13934157311866 10.407986952516712
Ga 12.667589616481106 9.170182778398075 10.517423012003167
Ga 5.5866112853412 11.817368618496118 9.030978622619424
Ga 12.314603158594473 8.532604087819353 7.91487618693486
Ga 10.78754642461691 7.245503278474938 9.93388857347019
Ga 7.636363456067536 12.17363674306021 10.841125888184314
Ga 12.427344448470741 11.437687582754782 8.692094175403245
Ga 7.917158039234322 13.568534186962962 8.446494851267387
Ga 14.430127097981016 11.19639726419708 10.8362305516168
Ga 9.381811664797572 11.120753106348406 12.345404008096402
Ga 8.639429144491524 8.238207991828022 11.385960510647653
Ga 11.902907769499457 11.815602572141179 11.721735114890668
Ga 11.093274614566946 8.332644547612087 12.393136583317073
Ga 13.754781494331358 9.911319422186994 13.091570466081299
Ga 8.899140986710256 9.12071385888861 14.113914865066972
Ga 6.769390236369766 10.174922681951953 12.654311345858815
Ga 11.250910883053223 10.490952738843951 14.099122240277799
