22
Energy = -54.34264982 eV
Ga 11.48810630008874 10.219055739535502 9.520114916006627
Ga 15.766317572577185 10.240241816243287 10.377679922740207
Ga 13.986687631680873 10.269667049456523 8.385326460754966
Ga 10.823215124099603 12.145470203171483 11.239957397575253
Ga 12.923814240962427 7.885348373794719 9.25372460438192
Ga 10.966916579136182 8.676591214794101 11.830702516746028
Ga 12.332615836997586 14.277991149773758 10.44903845837113
Ga 9.948975590657708 14.97928507359311 11.250628362424829
Ga 13.549273126231958 11.947981521206986 10.467336720396208
Ga 14.978809846194965 11.125705548333219 13.247127126636874
Ga 8.98301385674682 10.229663324933826 10.443520862615886
Ga 16.251921268465903 8.796132803599273 12.580929742160157
Ga 13.542081659081527 9.283540747694888 11.510060307967068
Ga 11.974514541256974 15.869049697762517 13.187199761058537
Ga 12.228507605374336 10.83966212362225 13.252765794195088
Ga 8.337133957688987 13.079726052795916 10.652375525620062
Ga 6.729684722120644 10.974674082632168 11.549219886598861
Ga 13.475530789031273 13.334292279224794 12.890396710646227
Ga 9.478566356830688 10.413268702865729 13.28135015863475
Ga 9.054887091342247 15.35773536191311 13.837310622934481
Ga 10.993101905980453 13.36730076600989 13.63418974195821
Ga 8.398421623331174 12.772846931120048 13.388518759183249
