21
Energy = -51.02875383 eV
Ga 15.074855032702564 8.14209229178832 8.12441308477667
Ga 15.052822200817316 9.36062691067459 10.458828446714147
Ga 15.260982372887504 6.412787387408856 10.071735836281645
Ga 12.837246623242507 10.787176627218926 10.002911895597236
Ga 12.857330059585419 12.254781314388925 12.558365454963143
Ga 12.573328625428886 8.269772411304055 9.084885257792298
Ga 13.619985074631355 9.745963684939943 12.527151527358772
Ga 13.379343509691429 7.228632129728347 11.636411543073786
Ga 11.139819439172097 10.192221605272598 13.49660996363705
Ga 11.58699236952855 13.046740815700828 10.130177327700837
Ga 11.01742593600214 12.060277775478458 15.256718351414866
Ga 11.18467285444809 8.717029429061542 11.246535877809686
Ga 9.872842439516669 10.83886884901047 10.853066925985791
Ga 12.368429539943685 14.61579794676632 13.134114506015088
Ga 8.567656319744238 12.967869809972612 10.254622362368147
Ga 10.122814018752713 12.75952621937245 12.722944099855034
Ga 10.122452037361644 14.489951911970113 14.87414728133019
Ga 10.52997180510808 15.102672505178218 11.064686716482145
Ga 8.234905742167614 14.541973345763738 12.727312787380866
Ga 10.490177904390782 16.66817540729191 13.252771841518765
Ga 7.820541127443767 15.640027298852047 10.26924511482746
