20
Energy = -49.83895735 eV
Ga 13.005504070623706 6.653075969022532 9.886338694264067
Ga 11.193308686918444 6.040552493517648 8.051287560747147
Ga 7.169165237334803 13.8416162875766 9.966847351562125
Ga 6.598362996520837 11.256458357607002 10.070147361916234
Ga 9.836459106678062 8.273821898426691 7.877024471260316
Ga 11.172531412843934 11.014458111990118 7.833540697824692
Ga 9.62401531760881 14.854720932040754 9.81525946655124
Ga 10.402423225746233 7.462746484025488 10.391920417137367
Ga 12.526245894054671 8.9930267587421 8.740016476960415
Ga 12.471698800687935 10.729363435912981 10.804243905421616
Ga 9.026560132008388 12.315976337250389 8.644097171084196
Ga 7.879129833034321 9.833308050393239 8.292383756322291
Ga 9.915542185849331 10.103799246618076 10.156502310092112
Ga 11.55935620771819 12.975040533526384 9.849504105829276
Ga 12.572828695582231 8.243730386019804 11.948281659241658
Ga 7.927062448752798 10.126804783517617 12.0800457955431
Ga 12.681102978704837 9.963683950484626 13.99608002437233
Ga 10.772210261313294 11.474854339680114 12.979720909994876
Ga 10.045737902793634 8.765214200298685 12.654873675924053
Ga 9.09392430783507 12.550917145959167 11.435053890560571
