21
Energy = -51.5069703 eV
Ga 18.13459729062192 10.489405569689438 10.93880376301853
Ga 18.292031284377686 12.6806249926914 12.727084691025553
Ga 15.773463781531353 13.35817811449837 13.366928430658016
Ga 16.748959916006644 13.53157458651936 10.778534042481676
Ga 16.3841798239739 10.73909776969416 13.082934701316452
Ga 15.509556925704928 11.236974827865746 10.58732375737604
Ga 14.064972252348847 13.570217843163274 11.014171140203171
Ga 13.84390142205492 11.226952241929867 12.955783815048335
Ga 11.855934721187566 12.248368224086166 11.168257962264203
Ga 13.4236929918622 14.372806107475375 13.627380261880115
Ga 11.011955688282171 15.322477994161934 13.835765443342243
Ga 11.597470308807907 12.513179149613626 14.017659947788301
Ga 11.838693838558305 15.137078599457869 11.188206178790713
Ga 9.112433249844738 13.946339941014367 14.986745992408833
Ga 11.635195244815824 9.8941466540342 12.806764123678501
Ga 9.694450904259785 13.61138804534175 12.068589817510238
Ga 9.434414925577611 11.14285975510132 13.683113219619694
Ga 9.816833620913803 10.734043278137705 10.864494005524143
Ga 7.266584974623202 12.703459593524084 13.597039756653285
Ga 7.672600489039674 12.325466032438808 11.004595322196563
Ga 7.472026394199655 9.799055275689886 12.254888330126786
