24
Energy = -61.03619859 eV
Ga 14.79572033748374 12.067426853751318 14.018549634725185
Ga 14.646225665669816 13.758933407064275 16.02949868455872
Ga 12.144468819025152 14.9306033865459 16.28346178274055
Ga 12.563842903201527 12.03441398261605 15.629415772408008
Ga 14.934436722561589 9.977417900127149 12.164113955863156
Ga 13.131974494440648 9.765283226920872 14.295028068934805
Ga 14.034371247934425 15.618178087873288 11.264859734387208
Ga 13.3663304370194 14.640489601454531 13.70616928692536
Ga 10.787864587418985 13.380004960398415 14.362021246029345
Ga 14.502407906884121 12.849067727437049 11.44913221686195
Ga 11.887006404787527 8.821986491540656 12.189862877436237
Ga 13.767798822188224 7.941709862286421 10.359536561946243
Ga 10.519556991859949 15.824559928066689 12.92368153234186
Ga 11.893668496728884 13.86089237381469 11.64221285721278
Ga 11.029686705913289 9.165363112262764 9.25107963809255
Ga 12.164840753749012 11.540865467065966 12.567711427013743
Ga 10.178056468679952 10.469085984901513 14.394184370464538
Ga 9.264158843624173 12.856025727471946 12.313198397310519
Ga 13.151730935272148 10.617307087057812 10.179441854722917
Ga 9.525970832810858 14.494935063853454 10.312461681964267
Ga 13.548450791951268 13.216196162279893 9.030140200990884
Ga 11.923358954531267 15.274825941732287 9.43024233267502
Ga 10.921732387580338 12.112527509093749 9.717511188953972
Ga 9.778935042829668 10.295379052996518 11.495134830201938
