21
Energy = -51.30685947 eV
Ga 14.29795125428828 13.528178989288412 14.032993863131606
Ga 14.255657358696904 11.05935889947965 12.368859846671795
Ga 16.134495995462167 11.604827423125935 14.158597666418045
Ga 12.728089120132486 13.356096686407671 11.73843570511003
Ga 13.471304464881184 12.437551976577176 16.329246903497356
Ga 11.008415765219091 11.030239414382939 8.481884638284994
Ga 11.213581876301424 13.5281022940626 9.683464033060863
Ga 12.54106614462024 10.885191534611513 10.49722075952339
Ga 13.714207719786831 10.043252931458376 14.767955799033304
Ga 15.563525812351818 10.722166367039291 16.66342343138515
Ga 11.72523017637967 9.447882454729571 12.970733347362101
Ga 11.930329375788489 12.052196516089262 14.198056766834437
Ga 8.771131928080758 12.048186555839427 10.335885003442627
Ga 9.330922773034274 13.107118795139755 7.8582362550313585
Ga 10.849467314703146 8.881143938153675 10.59168978475941
Ga 8.667949361785556 9.571614013125345 8.970996935114734
Ga 6.998410865209671 11.688359339132985 8.506426760283814
Ga 10.361619198645453 11.759757182289784 12.223282696086024
Ga 8.665431696898588 9.494610867071613 12.149951238669663
Ga 9.369102124572711 10.50417818567693 6.551458454555972
Ga 7.413602682674541 12.289122607640595 5.923029648812136
