22
Energy = -55.75056039 eV
Ga 14.19472939387131 11.022196557654558 10.117921119775282
Ga 12.924866928614108 8.553826723515732 10.010511264839106
Ga 14.001741832872407 9.34816125667799 12.539457643597054
Ga 12.919682767958998 10.159124952123243 14.93186418635879
Ga 14.1267446732378 9.915700720388008 7.572809479623901
Ga 11.404458132406274 8.669004041380814 12.371599286547243
Ga 13.116085473206342 11.832878607831443 12.452786190099165
Ga 12.340557681936385 11.98240003543567 8.161704487508295
Ga 10.239511869661573 10.363199403132569 14.088513941910211
Ga 9.837262235856608 8.110466790338815 10.31813090358524
Ga 12.574040672858807 13.647639956782848 10.573666439901388
Ga 10.376991071518592 12.477042641043926 12.121466568510655
Ga 11.726269685786031 12.819706688271202 14.445926781015986
Ga 11.62827163838194 14.872736806967076 12.709782697342511
Ga 11.335083623683689 10.71113096369962 10.492236433914861
Ga 9.247482018474933 14.71228966205998 11.295574555617629
Ga 8.876133618618974 10.220390847618523 11.796323934135874
Ga 8.18598796535109 12.365671274452126 13.769965293622167
Ga 10.108349171780917 12.976049041795301 9.342447789632056
Ga 11.291885663007207 9.392289801015295 8.092990034213035
Ga 7.680434782244267 12.384347503142838 10.839394226074075
Ga 8.825126249251085 10.390173478602424 8.880433174177952
