20
Energy = -49.77593083 eV
Ga 8.474561345327682 9.29673649534219 7.735782505171418
Ga 11.662588639053796 12.022614844822511 8.96214848663309
Ga 9.337212474372457 7.004659613456498 6.8800251349343675
Ga 9.921149839753653 11.326364353747895 6.996504075097482
Ga 7.020819891835261 6.723173140541855 8.167585836662303
Ga 13.07891261056255 10.744454178068136 7.104537635962588
Ga 11.177433548004181 8.896082821238176 6.710059301980556
Ga 8.884233979632977 13.45417413830501 8.221618450527583
Ga 11.40056882797999 9.29333596891905 9.26226441003873
Ga 9.800214135603198 7.192296396243902 9.539317942382832
Ga 7.200817330554438 8.64934333193845 10.127258029172424
Ga 11.853871956011108 7.616471642571762 11.58754431674768
Ga 8.977555454455084 10.87321822549536 9.722326606357228
Ga 11.450096437727586 9.477274760629994 13.614277855684694
Ga 9.93843509400996 13.183041442383058 10.636063681902032
Ga 11.775516559930889 10.810507252764905 11.387388805497073
Ga 9.414396446902394 8.771520492587426 11.581442423672872
Ga 9.533140414895218 11.540761257811477 12.608145350997093
Ga 7.106430085959535 10.638380315531743 11.862717605817236
Ga 8.80905147509231 9.302595875265155 14.109998092425952
