24
Energy = -60.4086638 eV
Ga 15.040147694256994 13.876940912400327 9.772465843512203
Ga 12.753344829617058 13.31488282559488 8.467068405950542
Ga 12.971973534967947 14.3240297225549 11.347826946289402
Ga 14.949954209056983 12.649352300738403 12.699453410349967
Ga 16.095320257948494 11.533366151374807 10.396660751978132
Ga 13.462632684248875 9.652968221311722 12.756079067621945
Ga 13.459548870293546 14.591777624562841 14.116208268601968
Ga 10.693613446567298 14.653211101848674 12.639490853206006
Ga 12.299734098763059 12.152620398929903 13.08549401628032
Ga 11.08733904199306 15.829661991889212 15.141043954801896
Ga 10.726110604711538 12.89787303205829 10.56421315866407
Ga 11.099261503396965 11.220851383088982 8.474895307551678
Ga 12.672253555407003 9.237432055349037 9.16887703567229
Ga 14.453595797370497 11.1778487454976 7.993138404470653
Ga 11.358662865861074 13.091818589757255 15.258153305982368
Ga 14.987788024676396 9.06266938817815 10.587220466344267
Ga 9.404210348919284 12.052098258564376 12.750122220947608
Ga 8.701805100088935 14.381392763818011 14.425248888659882
Ga 13.35657243261909 11.57228612149186 10.562739712471597
Ga 9.107861845211263 11.934841300320752 15.571441195586218
Ga 11.083224346281044 10.27336754129804 11.256728676863665
Ga 11.131114049346449 10.195283782386294 14.443578473089309
Ga 7.7478541236156655 10.284060975383964 14.167577151859827
Ga 9.429532083726748 8.918021855886856 12.71910956116167
