21
Energy = -51.62225031 eV
Ga 13.518870101565454 9.800279349449328 10.878173190385125
Ga 12.192264578236948 10.227279507360759 8.264761356931379
Ga 13.923416425740962 12.042098430043168 8.871779000781862
Ga 12.625624937829032 7.746989060364169 8.96472120806089
Ga 13.526967323604666 12.527415153990487 11.591050621359807
Ga 10.821739194692757 8.902777494735346 10.630336236537309
Ga 15.813265414320512 11.283911111091735 10.813271367004205
Ga 13.83391587652707 15.109808002537985 12.061782469794307
Ga 11.284126307276958 11.864101611481818 10.085269671734212
Ga 15.706109725932434 13.959141597028893 10.416117784984172
Ga 10.007659580673154 10.085061246440333 14.959358320896511
Ga 12.578797967514802 10.548296138630082 13.201809749420773
Ga 12.211947249954893 11.292171792113937 15.69612250759379
Ga 9.988804597813475 10.70640593794811 12.26582490804081
Ga 11.265947523817026 13.870457570187147 11.66552695553878
Ga 8.711435938925588 12.923059262479041 11.379184941919247
Ga 13.033084378085917 13.146162443756655 14.080797818262901
Ga 11.009386696666189 13.777150004123598 16.22331414712523
Ga 9.97717991750756 12.654570067516708 14.053149558478042
Ga 9.242296007779846 15.068356534608066 13.097043526780075
Ga 11.767365197208512 15.475771408067603 13.832707641647755
