22
Energy = -54.33259203 eV
Ga 14.804095086028052 12.973442285265387 13.980092243596479
Ga 16.894487442763786 9.438070233028412 15.106036764404756
Ga 17.083078758825216 11.76217058333766 13.52126066987981
Ga 14.927891028703973 10.990202200127031 15.877985233592973
Ga 12.667045155095176 13.473084562743116 12.52462365251268
Ga 12.542763070912093 11.466218856058516 14.845822050671146
Ga 11.871826251637073 14.825234957650517 10.423759894997865
Ga 15.16958700922463 11.55481170466283 11.616241348891158
Ga 14.66244280562898 9.699313586421972 13.504940526709117
Ga 13.555742591365682 12.522348847477584 9.910706620290007
Ga 10.384454132785363 12.272266612409874 13.446004188877659
Ga 12.605763654331504 10.497183769661616 12.210416684613678
Ga 10.615786238107962 9.679898488359695 14.253761393079605
Ga 11.47353162551894 15.792241854149989 7.603352808514111
Ga 8.23618718609871 11.592493907832747 11.793030943980362
Ga 11.071717445784232 11.78460142621503 10.563750516766271
Ga 9.696117402663377 13.969223247838586 11.659571262933147
Ga 8.115125534940153 10.66911565924823 14.313356092107517
Ga 11.540297427105433 13.169307557255108 8.2519622321289
Ga 10.020737765015898 9.583661957755512 11.663211878968326
Ga 9.444901345877433 15.335247208647049 9.35222725839241
Ga 8.970468289759422 12.560654759924258 9.126767011534618
