25
Energy = -62.99530411 eV
Ga 12.91551815416868 12.914518486602436 6.726648971730627
Ga 14.131016910534296 11.25119494249424 8.654301687748552
Ga 10.138302063655713 11.537382645176988 10.66683590062458
Ga 10.693455731827651 14.068316178168555 7.8458706334891275
Ga 12.8915384098319 13.46799909472301 9.486803596383352
Ga 8.183711105334853 13.208120269646352 11.528878429065635
Ga 11.155871885313637 11.33355585246588 8.327043331508907
Ga 10.43198255017447 14.283298904468834 10.532227464085189
Ga 6.3947128285058765 12.37551768159782 13.474823219359557
Ga 12.19128445776396 9.271573703344414 9.517791341526797
Ga 8.189801459427345 14.678456301885275 13.944272118519494
Ga 8.631031118652384 10.93466335719416 12.95305506499735
Ga 10.469537862327293 13.449470461841004 13.325968414721926
Ga 8.871948174852628 12.500240436326996 15.273301883236279
Ga 12.775236717432115 14.019361647741174 12.070237476873658
Ga 14.992643770996137 9.480195294068949 10.450047247144921
Ga 12.877541046080497 12.080534692813421 13.848853022727004
Ga 10.885958785010496 10.833213545951498 15.153541935752264
Ga 12.908691954923665 8.259914584547701 11.856715577468238
Ga 12.80646451178373 11.344050897475663 11.14887067549433
Ga 11.026301311411288 9.854776525629614 12.611905112775897
Ga 14.755252761694134 10.594719576929226 12.873180382266481
Ga 15.216781818810723 12.914509067864463 11.313623204780532
Ga 13.0071318785972 9.2038908695268 14.725133503799373
Ga 15.153445356294666 7.881735682316918 13.376514373993773
