23
Energy = -57.65486005 eV
Ga 13.75939786794634 13.295088920718442 15.140169771686288
Ga 14.737119081929755 15.271092987176093 10.662790985659216
Ga 16.482910966615925 13.882057768516846 12.842968396431042
Ga 13.999739789002232 15.218612556628216 13.291772099486737
Ga 13.183916428232319 13.154959571690192 9.672758252132912
Ga 13.462872281255594 10.522487737419969 13.732602172541377
Ga 15.784994306408572 10.421989171982839 11.786693049297892
Ga 15.895810862738205 12.703532629652036 10.281398838671741
Ga 15.853929964150234 11.7319023976259 14.284304585593462
Ga 13.298913930126933 10.565204353484738 10.736696217052327
Ga 10.671716352573405 13.45561746252856 8.830636457111131
Ga 14.018189145776779 12.724394681423046 12.280647081377456
Ga 11.849480249279928 14.525481657395567 11.647927304431917
Ga 11.087550216959821 10.066559486018761 14.86482480653568
Ga 11.617325116290878 12.699008015723368 13.674353690159828
Ga 9.317184994011505 13.936545959333964 11.90994031389655
Ga 10.922372925638305 11.786118384304217 10.909259845049817
Ga 8.456572670327288 9.889921513491673 15.157153871407544
Ga 11.293331425407096 9.430006048116912 12.213988871474461
Ga 8.384563363746471 12.523907104213864 9.618190793330333
Ga 9.149394029475436 11.777100659932128 13.427078767302808
Ga 8.634454953192723 10.398621326798448 11.070292663859322
Ga 8.932470814084152 8.527586119665628 12.906920898756878
