24
Energy = -60.58583656 eV
Ga 12.347737940412468 16.290389778748064 18.413986636267516
Ga 14.576902178334576 15.12373650866072 11.102250760242457
Ga 16.124311832772303 15.467596581602152 13.077461969167645
Ga 14.823727602026516 14.8556103880901 18.126644385956478
Ga 13.443256200250346 12.512627411913943 11.050246191289855
Ga 15.873965284663988 12.820925618160095 12.049434165923689
Ga 13.22165138825747 17.068743095764464 13.343933256137802
Ga 15.59077537713117 10.08664079147589 12.134504912816707
Ga 11.906137177009274 15.431473503695022 11.634216421245165
Ga 18.035814163535523 11.202587519505371 12.91410361302936
Ga 11.23524724564409 12.431168143734318 12.738921667326801
Ga 13.69719931692251 14.121820230406568 13.689474777121319
Ga 12.875512079524189 14.37614848034255 9.037323427114536
Ga 15.842973201995422 10.743178679201224 14.809975029175517
Ga 13.58525942653195 11.341754620719433 13.552691013919155
Ga 10.927255476368302 14.981059309369911 14.02734252717874
Ga 12.508524527294137 13.624427846450542 17.469208103432642
Ga 14.666936013830314 12.768288716136725 16.069652037561042
Ga 10.815409238810764 13.308033085999092 10.365554166713471
Ga 13.169601392331613 15.871511645722993 15.726994796272058
Ga 15.734172479199044 15.325818055039315 15.662307329155226
Ga 10.544373379555347 15.428545836414186 16.547691342131532
Ga 17.04058986609113 13.160969192558253 14.468717872087016
Ga 11.85709169038639 12.597855630101547 15.257878163524921
