24
Energy = -59.66300612 eV
Ga 15.461282131097684 9.37792108606612 9.277353699530066
Ga 15.70393572741295 9.857503880173986 12.681240359289667
Ga 13.357726257924558 11.0902433147785 9.017684175954091
Ga 15.200592751970275 11.715559492250469 10.781508216235403
Ga 13.779411023735776 13.676306566642998 11.831356467111457
Ga 13.178922319639627 11.114639174200317 12.632171898323152
Ga 13.656769869269862 8.825508080789877 11.301967952810973
Ga 12.102207621549372 8.573104467837602 9.196649764034273
Ga 13.116115276182674 13.782822745628328 9.208738703739751
Ga 12.820387156588822 13.232878147701387 14.405354079075037
Ga 11.008531915350705 9.752143861737107 11.526806104219776
Ga 10.785615094574089 11.59196149201821 13.599543320425726
Ga 8.66248774491864 8.990440437711484 11.045643207654896
Ga 11.232157940444663 12.538148898627822 10.861347797606426
Ga 8.637255913174048 11.755146839576105 11.891696773787158
Ga 11.30262168826553 14.557612260095423 12.510314921663687
Ga 10.725879768070392 15.33301726802016 15.008166938450685
Ga 6.394422033749696 10.67928548731211 10.795866785203257
Ga 6.971479600061841 8.806257599631449 8.749468659406764
Ga 8.435541469738718 11.397101859159866 9.210778963476733
Ga 9.598963927152557 8.57012616141257 8.58574943979642
Ga 10.830445295360356 11.101275866073635 8.635240977270346
Ga 9.035758460900588 13.619752620664869 13.71449920083925
Ga 10.717977919356453 12.763800626029008 16.097698397717487
