24
Energy = -60.20702653 eV
Ga 11.846477799410822 13.524176126506143 9.219068339419525
Ga 8.990622430419265 13.360340853664121 9.6036679758667
Ga 13.10201019352581 14.912269122372768 15.929926835913436
Ga 14.663230224141406 11.49036126738887 16.229767185377742
Ga 10.645054311532833 11.152079590828345 10.593862001667398
Ga 8.025979476323647 12.06088154353741 11.746985696008256
Ga 15.002589444033521 12.379032168330076 12.453291679777692
Ga 13.716554473616743 11.564693762147973 9.963530767430456
Ga 12.84772710548901 12.446015215054071 14.420510658832976
Ga 15.376788008299213 9.811542137352076 11.556908894138672
Ga 10.410350868431387 11.988535985491586 13.335063466493226
Ga 11.368897138505435 9.999908006280661 14.92798055764099
Ga 14.557319669190083 14.329846351158471 10.14812126413398
Ga 15.406305643036674 13.722105470133288 14.756496171325317
Ga 10.031054033629701 11.556116785753128 8.006714461878532
Ga 12.43575674243866 13.130406911755514 11.826676213963667
Ga 11.232998822684193 14.741420379429876 14.015445729173745
Ga 13.97504563187233 9.81897792079965 14.194998670907907
Ga 10.010639057554192 14.36757433934259 11.785822379533721
Ga 16.645797455419743 10.882685490652017 14.04138091484385
Ga 12.560855779847255 10.35663648641199 12.06642514973628
Ga 15.163538650625124 13.88777819463158 17.488675326469533
Ga 12.189648618704545 15.785020972171768 10.851525964789802
Ga 13.922205092659047 14.934368368421149 13.035063889275062
