21
Energy = -51.94929956 eV
Ga 10.87622114668037 7.356452270002047 10.773768549030608
Ga 12.923938351146722 9.063701823846882 11.733430562965772
Ga 13.147700156150043 6.9428086404266995 9.299149996913519
Ga 10.933301895033082 10.300522207157728 10.352951593129449
Ga 10.370452818675199 9.180273373159219 12.813686658873962
Ga 9.55333483093693 10.451807406654009 7.846086235930533
Ga 11.189466926524547 8.471385661934072 8.085181907965657
Ga 8.49758736884455 10.75174704898702 11.75077321627185
Ga 8.66946367223689 8.668023168346997 10.082448319887853
Ga 13.543397785735491 9.6437717239825 8.989121029916438
Ga 9.334602865299777 13.187493056370757 12.205431089372158
Ga 9.280257624915496 12.324504504421945 9.589789129594052
Ga 12.020871021028396 11.82023078715243 8.36589413923077
Ga 9.975207714400584 14.152363873007133 14.590415348480585
Ga 13.315639758494076 11.586181306628362 10.908826974994964
Ga 11.501310903725637 13.551146921896779 10.4062195063523
Ga 11.319251759990829 11.60399288514801 13.387627509893113
Ga 13.0022033714101 15.585913638844174 14.465945774031816
Ga 11.286878010658675 15.203406284624561 12.468723320708445
Ga 13.344861457121858 13.385136668623133 12.822003949751293
Ga 12.237684543447534 13.088664184404257 15.387846017635656
