23
Energy = -57.53553189 eV
Ga 14.632894824954647 11.495855441205803 11.210535990887777
Ga 13.99351479524109 8.307253051953035 14.291501946955623
Ga 13.614069723016776 10.884883704355117 13.589127626094484
Ga 15.127746691721036 11.16846953040866 8.548903740657401
Ga 11.294127389506361 9.157098791340543 14.394780611383878
Ga 11.905381441198406 11.788301813698112 11.550097186692064
Ga 11.087961788535077 11.958089976819304 14.132453138343939
Ga 12.93191677382014 11.054810498552888 7.011068515759223
Ga 13.148575371653722 12.898520856623213 9.277740916668753
Ga 12.719182923997504 9.880253201927681 9.477737220737229
Ga 12.559018685437929 8.922536712783412 11.905304816213537
Ga 11.037084605294806 13.930727340613016 10.25919577948542
Ga 10.640568253216701 8.157343565974658 10.224811488345512
Ga 10.097743243617725 10.65639698273053 9.628477055716703
Ga 8.773830960310349 15.09005439174155 10.837458241663706
Ga 9.929220802682488 7.389621491291942 12.796814658755522
Ga 9.83297929308348 10.165354737057426 12.40974000385322
Ga 9.306400158052151 12.86526713088208 12.33507053359485
Ga 7.954156710086327 8.544736118893926 11.280595883390689
Ga 10.881683589915918 12.491369070043918 7.873137760541405
Ga 8.601664580356662 12.958549111823322 9.156196123699148
Ga 7.626867011146161 11.050880300863493 10.759545601555963
Ga 6.610295812305042 13.509265247309106 11.302316435300312
