23
Energy = -56.60955005 eV
Ga 16.40290797146817 14.542132702486395 15.039799202111093
Ga 18.969102371640943 13.783843746588024 15.931315363209997
Ga 19.72164235082823 11.770347404244657 13.825977030923134
Ga 16.132673271017982 13.904892427498636 12.147991363990581
Ga 17.233780645823636 11.764531151090006 15.245640504085301
Ga 13.82105496048439 14.723416144867885 14.50640247788743
Ga 18.39892536615236 14.058302805443965 13.192769390256721
Ga 17.258273011515797 11.469634522081769 12.483506063978242
Ga 15.017972639365652 12.271130378951854 14.183184953151788
Ga 11.854948588611435 14.98895722656314 12.59272744436159
Ga 15.562749700804904 16.552467732678213 13.217087301454507
Ga 14.01693329587644 14.916237791283912 11.255613760793636
Ga 10.485760630679682 12.973757647811984 11.125954092985483
Ga 7.956664970428389 11.443506029239044 14.516568631985455
Ga 9.41756791904734 15.083176245272144 13.356072826043048
Ga 14.820963395188093 11.477606927900757 11.365473386443535
Ga 12.851909229030076 12.801865377041107 10.20185921839377
Ga 6.891555302996609 14.56325570639441 14.116302602083255
Ga 11.47318110436628 14.314927262769716 15.342612197928116
Ga 12.783731160440784 12.336518057404705 12.98881056796769
Ga 8.158874013051454 12.926365058617822 12.284934318420847
Ga 8.969780943127764 13.652958325612383 15.765015220061862
Ga 10.40982301601749 12.182728849278279 13.856775452646813
