22
Energy = -55.01297419 eV
Ga 15.811757546352665 12.75043142318853 12.372651386017548
Ga 17.39119063392104 10.514204349683212 13.297568160918612
Ga 15.838876806374303 10.267560663407254 11.181409973671297
Ga 13.690920467606642 10.211295047460743 9.791943271688918
Ga 11.694629061739448 14.169139199925889 9.55731877768005
Ga 14.156839922760984 8.911106521907893 13.185498115560733
Ga 11.565386987010097 11.52211502050227 10.330791593031291
Ga 14.076141576847114 13.144145866359532 10.266588999685517
Ga 13.278884770418061 11.432853363750803 12.363989600982109
Ga 11.969846504984563 9.08593065005832 11.633063812526448
Ga 9.350653383136667 12.59226717050882 9.882977991029044
Ga 15.057111959190676 11.141601214848192 14.549785845610561
Ga 9.690615004750567 15.40795481865935 10.76105120808039
Ga 13.840659011896703 14.020960956834285 13.447326132985392
Ga 9.4088142288126 10.137800186031246 11.397841586196295
Ga 7.217939611681461 14.121582995263834 10.549002152410727
Ga 12.677905869228407 12.09462492281965 14.994168070732087
Ga 10.643405943752105 11.405256903942481 13.56736427912217
Ga 11.60961058954715 13.812998456888554 12.320771480943057
Ga 7.179838486511442 11.51904520424463 11.104648446550863
Ga 9.067188167083271 13.356776996004454 12.628410217482068
Ga 7.709634997480734 11.320436087544627 13.753573645230928
