21
Energy = -52.06400252 eV
Ga 13.283564279676094 13.35154305851967 9.099823382750245
Ga 11.98944145125633 9.047046703000541 10.111824569207549
Ga 12.685829709114978 12.45448807834766 12.472278292186159
Ga 13.805643481177905 11.046597383126517 10.415040819845842
Ga 12.893918425404559 6.453716779960654 10.85461249617484
Ga 14.296369714634336 8.58071206004396 11.572641788679052
Ga 11.225416049874056 11.541049676362455 9.7482280054338
Ga 11.052345976734957 14.095183515646099 11.55860984305835
Ga 14.650652467679471 10.69007553072646 13.186719470179108
Ga 9.318500418589974 9.540566650337677 10.049179955621138
Ga 10.569274132327656 13.757019909758377 8.666200166154065
Ga 11.913157002916964 7.331637229558867 13.565792745410572
Ga 9.301889295841013 15.537431079481241 10.199872837994914
Ga 8.555523376050964 11.558070230585448 8.706060968467844
Ga 9.966467301035674 11.525595312450719 12.211339160262611
Ga 11.99801815196444 9.868713255337612 12.872652739487854
Ga 10.34846595046644 7.273936815616547 11.268390180874222
Ga 7.6925788293464334 14.137199786628722 8.42747483914019
Ga 8.352122627355685 13.074378685796122 11.022973916109805
Ga 7.269794436690482 10.55882124234692 11.817551427644966
Ga 9.325935856855297 9.073659071067796 12.97846327002493
