21
Energy = -52.72184169 eV
Ga 13.858183909200642 8.85082140032158 12.603509841010602
Ga 15.297590524803198 10.010359299142198 14.524497434883608
Ga 15.868348751982749 12.407198585543364 13.428080068557204
Ga 11.646945103415272 9.812392959877746 11.549869922514972
Ga 14.32003392103986 11.502528536912012 11.362430331205754
Ga 13.636837788856933 10.781659187746502 16.370519708598128
Ga 13.69649279911515 13.974957414103145 12.512804929628423
Ga 12.960421031539793 11.235354154463554 13.747359443160219
Ga 11.580359295303033 12.512460430428437 11.583269449027831
Ga 13.919429403709852 13.403085273081489 15.140969761843209
Ga 11.360091339953746 12.120322286587475 16.101545806869463
Ga 10.3039110661398 11.071707533982101 13.831429855961415
Ga 12.97698632222233 14.087909592568709 9.918044725298222
Ga 8.83751365211163 11.308016214910436 11.534250121474473
Ga 11.423885626092728 13.925946295076157 14.141661375819057
Ga 11.520730344156664 15.666423207792123 11.807221306367374
Ga 13.0080768919437 11.430604282476631 9.08067992464705
Ga 11.698001725006547 13.305022376077524 7.501863197550455
Ga 10.39347480064041 11.283881571305614 9.443790666446263
Ga 9.35305195754989 13.838945024484584 12.264495628784616
Ga 10.147021684945276 14.100409865810546 9.61121471242032
