20
Energy = -49.23760089 eV
Ga 11.423804679669106 11.50609973351199 8.284895277381336
Ga 9.631646455844425 13.674700372361675 8.45163771486949
Ga 12.360239009423358 13.945889798423059 8.293185364574136
Ga 10.21210539863905 7.525966815240625 9.939702194694
Ga 10.372870528855588 10.36440683214644 10.770013878503152
Ga 9.886256673721102 9.343805829566948 8.313910848702731
Ga 8.367726904802296 11.51130434399495 8.640831592960337
Ga 10.751536006355302 14.925273409398049 10.557715405059765
Ga 7.533917056955855 10.147785254219528 10.619377392764616
Ga 12.364644254125986 5.787652044439614 10.928669938655224
Ga 12.130133067533567 8.472519307375881 11.835491617511485
Ga 13.471087299375773 15.030673238771607 10.593920427481427
Ga 12.880183859020411 9.805652481618587 9.693491311436636
Ga 12.221021875831807 12.523751028600278 10.805154260610601
Ga 9.243636185392365 12.863081467103425 11.233822222800725
Ga 10.308905533513952 6.392734956765348 12.47873944296432
Ga 8.756606490825247 8.59477671034609 12.203524325968228
Ga 9.17716601234922 11.247362930247899 13.160723224499083
Ga 12.035527744397285 11.088553898645298 12.84044573297186
Ga 10.656705052794365 9.033729636647632 14.140467915017474
