23
Energy = -57.30220798 eV
Ga 16.02525843526542 12.303894328931875 8.97744875236777
Ga 15.708759188858615 11.694311925937486 11.627726853994282
Ga 14.200185271991982 13.884511123115999 10.218495148134876
Ga 16.19238911573473 14.431031014675376 12.182273527092333
Ga 13.795848435694287 10.724279976895039 9.846010083468721
Ga 14.892414575836508 12.51285215731395 14.070498416960607
Ga 12.579979373126772 12.681153981504792 8.393675706586809
Ga 13.220074544733697 11.055789227733353 12.429408195043248
Ga 11.85475072460445 9.94111222428007 7.91793553725696
Ga 13.388292137942408 14.293382013925186 12.612144675773283
Ga 11.68650750485612 12.92930461328208 10.929069746742314
Ga 13.087573571485903 14.262907935783042 15.179873777980822
Ga 10.068670430854047 11.735985309042686 9.246556425002687
Ga 10.521891820776906 10.538954006208044 12.939345404428044
Ga 12.394451776566175 11.454831542455612 14.81644735131707
Ga 12.032437411147827 15.084644923529988 17.822030096170153
Ga 10.292503589959797 14.45192562786481 15.838015072523973
Ga 11.483231728468407 9.700802046137817 10.648540932436855
Ga 10.924581785947234 13.597129824505567 13.391496188293686
Ga 12.100571789098607 12.483427993895049 17.164483943087713
Ga 9.083114015075163 12.53963747687544 11.66477375149942
Ga 9.668053327619582 11.88861617203547 15.179398691005021
Ga 8.726258403707062 9.741106547866334 10.848132750946126
