25
Energy = -63.39781556 eV
Ga 12.959094469204432 6.91936473158301 10.355036401969807
Ga 10.541566816171011 7.388791411790383 11.277276979799721
Ga 14.982058386489458 8.533308198363756 9.905573011667334
Ga 11.31973723510809 6.3656813720506955 8.330734208368764
Ga 14.129094991128 11.26831934142288 12.889463541938534
Ga 8.295840931335436 8.94746652279644 12.3649962809663
Ga 12.255058938253722 9.160815857152198 8.852904124184763
Ga 7.993513713890532 7.205948532691676 10.376593000102075
Ga 12.85999394793517 9.000833496987616 12.012271817921464
Ga 11.524345746907166 11.025475658710398 13.461931012590426
Ga 10.61621120036467 13.89116235163856 12.999068149534946
Ga 8.010809784703648 10.00936455459684 9.732926861469835
Ga 10.597470087738854 9.982223543767487 10.976124872086247
Ga 8.863164727753649 11.295340332289216 13.356413740041923
Ga 9.635630086450085 8.392454328585945 8.488750114423071
Ga 12.15921806077808 12.52373631177943 11.207480652383133
Ga 9.472339633150252 12.281393709755612 10.876469987635652
Ga 10.547545617362218 11.28052274646689 8.4456883774445
Ga 13.0265092050883 12.647516136264205 8.26986110118485
Ga 13.95810447584424 10.947715916103514 10.076432854831136
Ga 6.740652341752925 11.798656782338558 11.271233882062774
Ga 7.9024351495849805 13.8975867816608 12.596611892625328
Ga 8.410995452933713 14.594675394977509 10.022096667124199
Ga 10.990523305425649 14.129034444811232 9.390900161193294
Ga 8.102804695016212 12.453788604337616 8.35980558277782
