23
Energy = -56.36677257 eV
Ga 13.367081406071355 17.145114871923845 14.740343002875127
Ga 10.341634930356307 14.010996967804175 8.086940122683878
Ga 13.219347733399822 15.676663954032792 12.586815651845084
Ga 12.60774183104563 14.382611467006681 10.492533907884647
Ga 13.06175181768019 13.553852789564186 7.979969034327976
Ga 11.51664634882261 15.195370304017908 14.752330488615343
Ga 15.121291967634694 14.575073731339625 14.258208251428991
Ga 15.57654327941611 16.497320716120477 16.149231911741552
Ga 13.508043510964352 14.80608000365103 16.539320910929273
Ga 11.924542142370656 11.222258873950747 8.710297402097861
Ga 10.484428751854194 12.723191877388787 10.428170051823876
Ga 14.195055123127325 12.259522846091913 10.065733880426079
Ga 10.586891945843302 12.929878133828554 15.366449989776678
Ga 11.802371173830288 10.562274482281177 16.236332186465283
Ga 13.543645713932452 12.499118346268117 15.23230749881528
Ga 12.091671910388154 10.820457576211254 11.406277165054307
Ga 13.779065594218801 9.517283450421179 9.527514102864222
Ga 14.597132202094558 12.785462732589114 12.52921143336068
Ga 12.03309564767864 12.902581123274839 17.67586249645783
Ga 11.834446663128954 12.946356156225292 12.948474083019967
Ga 14.950918659551908 10.148678494143224 11.843458732003988
Ga 12.945902003435956 10.295555499117077 13.714621476330304
Ga 14.092462153338595 9.409978238414825 16.03489025158661
