21
Energy = -51.69204316 eV
Ga 12.439569403860109 14.81203392590081 16.816085414414626
Ga 10.653513448160213 12.874748401547146 16.214017556447622
Ga 10.512647557168536 15.285378635093018 9.863559723681368
Ga 10.91926756239324 13.595996227742555 11.946135349955568
Ga 12.179737258175557 10.540511911740264 16.25573173042599
Ga 12.637542221392279 14.261549299666504 14.160084125624792
Ga 12.236316132151531 17.419249164713943 9.779973659417653
Ga 12.361092214217754 12.30077249262451 18.369748990421026
Ga 11.092137861669283 11.816958839857541 13.965499019066732
Ga 11.836334016965155 13.026416002635344 9.408433810230887
Ga 13.916430750306128 12.65305106722256 16.00633418714766
Ga 12.489061737308974 15.82339279449515 11.984099754350574
Ga 12.00346644906578 11.005148816576096 11.60288035184273
Ga 13.704454714128472 14.979660376415016 9.652593059276665
Ga 12.750660095212545 9.468197500725976 13.996137213030613
Ga 13.753846095374994 13.321033477375043 11.666404339772548
Ga 13.640488154511226 11.039101736064396 9.51934635844252
Ga 15.473816552188199 13.004932721309851 9.14173842476899
Ga 14.302499712871647 11.68784543294682 13.71591781068692
Ga 15.784099096452367 11.587272355449471 11.496447621223819
Ga 14.255506448290669 9.429924886622016 11.836151762011362
