25
Energy = -62.90197221 eV
Ga 10.033743815405918 13.024727999882229 5.855717506499776
Ga 9.697496754937678 14.117083277678105 8.486792126863984
Ga 10.556820463474402 8.891342778609273 7.768561687142899
Ga 8.899386984194862 10.958846646162291 7.196428697936274
Ga 10.273877250669836 7.962775085368162 10.571927839972862
Ga 7.489274854101576 13.527789202477496 6.848267644123307
Ga 11.36881163294626 11.989428167896179 7.891413076015192
Ga 10.582811895093773 13.060838538580258 10.66202920071858
Ga 12.602430935378745 7.730342915932097 9.17037698988046
Ga 12.422255353404243 10.480220504121608 9.598718787735562
Ga 7.683643888766134 12.432767172632522 9.345917166481511
Ga 9.37588271130726 10.370810134027348 9.818150038616128
Ga 8.270059752457067 12.063461765111203 11.929771416841264
Ga 12.516979355992405 6.2932509629682905 11.462354074779151
Ga 13.13034227064953 13.397988928606097 9.530576660041564
Ga 10.669957459323808 10.533740592771279 12.148275186763865
Ga 8.260237475452584 9.101242383579727 12.036614940376122
Ga 13.067538062398942 11.756608008199366 11.942789287647699
Ga 11.249926945665887 13.428843629439672 13.16240907585417
Ga 13.230088640810177 9.063986956010805 11.638639995584061
Ga 10.911571294625272 8.001225857765691 13.114705634360373
Ga 13.578935721255696 7.614087961572132 13.889687016452369
Ga 9.227719842830012 9.290239483848545 14.574677741894025
Ga 9.617791697077807 11.794837265634113 14.359552602433496
Ga 12.52283509457734 10.353933933923388 14.236065757783733
