24
Energy = -45.78736378 eV
Ga 17.118210523951443 12.741040612756773 20.016737562605364
Ga 16.52969536138519 14.331496754315344 17.48077028076481
Ga 17.072003806161266 11.777508310958558 17.48240590517397
Ga 14.558257428865778 12.758994038699495 18.92634599858269
Ga 16.903493483410493 11.687481365149187 14.529003917320619
Ga 16.539873654820905 13.420772183311186 10.811370688005102
Ga 14.294542725525124 11.884276474322533 13.934747895406925
Ga 11.26501772891684 16.12108251114756 17.00242281872642
Ga 10.300351876790307 19.082264282299242 16.052557361332482
Ga 14.276166582934284 15.151289930766202 14.69995367840414
Ga 16.434602875318802 14.069507424630686 13.772857251801465
Ga 14.238959756024778 12.253645777546456 11.324160495281657
Ga 13.150975535955991 12.9280321672421 16.840092319145977
Ga 10.785591423952884 17.92943427377232 11.726682350325607
Ga 12.91825639644817 18.154785864844367 10.515732092353332
Ga 13.002374057667293 8.148531881060324 10.776192477504972
Ga 14.703321890099314 16.094917613943572 9.98754509061151
Ga 10.717952820790982 15.333883901311104 12.21529264776255
Ga 11.380065584573536 8.234266287706259 12.947768129406306
Ga 13.4655788000626 14.658993536646232 12.159344103655949
Ga 12.268397993920413 16.356188394959126 8.681454152203859
Ga 11.251047274761934 6.034568761377866 11.253937265372821
Ga 10.048604940679759 16.003631371034256 9.710124204394763
Ga 10.267414437022936 8.402726695150127 10.397207140218834
