24
Energy = -60.43746933 eV
Ga 15.083975953142275 8.873623228336033 11.501773386206747
Ga 13.263024694233327 13.829990817959295 8.58255354752762
Ga 14.587318665003668 11.171557812811383 9.85058595805365
Ga 13.023702639535838 18.112305886568155 10.705881530616018
Ga 15.248713873102083 11.767555712699325 12.338171936480006
Ga 14.873912405119018 14.77017363634423 12.872615166864701
Ga 15.078058641326434 16.333794727119926 10.544543025380563
Ga 12.657098932591653 12.76004424815886 11.155437215773482
Ga 15.280256938450407 13.73714429302976 10.48557878377754
Ga 13.323410890197922 13.342661016047114 16.749397861474545
Ga 14.483171607424017 9.925883277624889 14.032507712284119
Ga 12.581938896569692 10.154469275067276 11.568688016431626
Ga 14.223758173057803 15.368699029652358 15.325785029450747
Ga 12.487912549626916 15.337070847544766 10.850107216961458
Ga 12.005765697412118 14.384837421401237 13.251090044518445
Ga 12.879848820495164 17.097475615484623 13.20573744957557
Ga 14.105419491548956 12.700611913443424 14.421883248079556
Ga 10.950392055599592 11.902074374882982 17.624729418635884
Ga 12.722043869414536 10.726426817635016 15.898095251300731
Ga 11.678495996008234 11.524444612217517 13.552988779139186
Ga 12.078777244529807 8.544205010877706 13.827746265781537
Ga 11.09443725027265 14.6372298266413 17.68255913441463
Ga 10.831885615187165 13.271031542846236 15.259115715830374
Ga 11.570560938340257 15.936319702463964 15.360716066132568
