24
Energy = -60.52188725 eV
Ga 16.705574880625033 12.461009740849278 10.450608611002627
Ga 15.892197935342018 11.805944847015873 13.127183131170506
Ga 14.020710568296462 7.823110168053899 12.799574735748918
Ga 14.817118298036146 9.773689599552634 14.433087194543312
Ga 14.408997131818268 10.902197451744753 11.129397079884631
Ga 14.15982406017489 13.408812388641717 9.911504909177216
Ga 15.444210964143817 14.316159020061798 12.366073318955682
Ga 13.461092728812167 15.038415631745577 14.560348978312936
Ga 14.176847944836673 12.543694612601804 14.994192455865216
Ga 13.077552531955988 15.510289541358985 11.781511557648095
Ga 13.024130873521203 12.8473229114612 12.583919215522164
Ga 12.677955834948145 15.600166886061633 9.044060343722943
Ga 12.585565178543423 10.53085222839928 15.863554698528999
Ga 10.511460333281386 16.105256872758872 11.192694859885114
Ga 12.056929949504424 8.203962286336061 14.762225555249316
Ga 9.86574385519362 15.072392429900594 8.8680377727237
Ga 12.47184267907106 10.16662693826205 12.775822301081265
Ga 11.519522969882619 13.357007804004132 10.335188448967585
Ga 10.488595699926135 11.679128073118294 12.048036058037825
Ga 11.397286784374808 12.808522634269075 15.08677756714562
Ga 10.838651666970883 14.590912321887295 13.339734996502418
Ga 10.161316725647417 10.426604880382357 14.409093260201859
Ga 8.913130451099788 13.753319256886323 11.441731820924264
Ga 8.57460596240172 12.777401915271922 14.091548393601368
