23
Energy = -55.0611004 eV
Ga 18.345667624277148 14.656088808356506 16.7331931129452
Ga 17.331270047957425 15.070014024244335 14.346287526920486
Ga 16.46022662857776 13.163252211314758 17.739218839945828
Ga 15.80454878811576 13.078695122612443 15.223221888654415
Ga 16.20773672106213 16.127333060086784 17.380889845427745
Ga 15.611907145903931 10.656203553201744 17.311086342307448
Ga 14.052280212335694 14.633034158167487 17.582624430473455
Ga 14.881245684563291 15.745202524924476 15.10264460721028
Ga 12.776611265491463 13.632314181455758 12.628647074066093
Ga 12.664427445217527 10.925008650588587 13.150484004216732
Ga 14.194141835307898 10.975801006550459 15.142296628917368
Ga 13.888711630510274 12.486843504420383 10.604468796165582
Ga 13.312881757739142 12.250921636891738 17.358735560928427
Ga 13.083672816636009 13.741634727671167 15.08994510900378
Ga 10.475480719663787 11.850816857481396 12.045094848066656
Ga 12.234604279499033 10.29892813092937 10.635893525798545
Ga 11.29735814875218 13.977028266314122 10.533396225757098
Ga 8.75383233481045 13.167267652410994 10.497303889540591
Ga 10.071988160452129 13.998676378886632 8.147407934787386
Ga 9.76150812663167 10.795723518206142 9.421827485465101
Ga 11.847043206804013 12.161664259306633 8.605513515587372
Ga 7.723541740723113 12.01815093403889 8.391404106237287
Ga 7.617143862295657 14.4194377738579 7.214314863096185
