20
Energy = -49.95457446 eV
Ga 6.932269068242429 10.328849906120235 6.138295054018268
Ga 8.410882944764237 9.08037229991069 8.203259909885778
Ga 12.176887424503759 11.72848293786157 7.183700962626419
Ga 9.622724853638527 11.043471253168743 6.5932736835843855
Ga 5.995377841918346 10.128075070072239 8.957108505274023
Ga 12.872107675956272 10.749445413769104 9.514633490130839
Ga 10.286256042853287 11.15943109168169 9.311500308024296
Ga 11.118469464923075 8.946159683188167 7.301522551465867
Ga 7.917660690205799 12.038463106888646 8.369644626061428
Ga 10.279010330259794 8.308458379055294 9.80564208583255
Ga 12.00669850520741 7.04216409926869 11.273380838765013
Ga 12.862742542946798 7.944524402656695 8.94857462561978
Ga 5.835166414996474 10.21191362971568 11.669456495025406
Ga 8.08105492170363 11.44087303527071 10.878521609182828
Ga 7.724820961906999 8.379343532738321 10.697719372913165
Ga 11.228055616891574 12.393277219790741 11.577713851026001
Ga 12.506341340192835 9.719070153470382 11.80627516465061
Ga 9.49245083460417 7.1902508082965335 12.227589906516569
Ga 9.816298378154618 10.040496870929726 12.119233170548165
Ga 11.326776719491598 8.61892967950765 13.915006362209775
