25
Energy = -63.09469081 eV
Ga 11.314735560662012 12.153690374623334 7.939401852459163
Ga 10.610707067088532 9.463641947344053 7.417059944666338
Ga 12.762650019544864 10.187535126952065 8.905198441588311
Ga 8.943322831251315 13.712033238413136 8.632294672593623
Ga 9.024403327799105 11.683845956923287 6.50978768878549
Ga 11.387705394630258 14.858273072379406 8.580321965732722
Ga 8.890272219909733 10.90597202007875 9.151972378927487
Ga 14.246385605599162 9.822942757992685 10.91792204919034
Ga 13.02028318972597 13.146504716147042 9.854287421083866
Ga 10.483872405356033 9.123031271810296 10.170555874937428
Ga 7.582311747995652 13.12357175524307 10.81853394464245
Ga 9.097186207648548 11.069002290034812 11.742979526634047
Ga 10.478635598570559 13.29167526807118 10.794625628267157
Ga 14.566833286362467 12.446721393030545 11.893133914408383
Ga 8.742046022302052 13.461071015888386 13.276175785884583
Ga 13.728266762923575 9.245058546505536 13.300363405624775
Ga 11.63997786881492 13.890508032303384 13.091293643132477
Ga 11.904828950621376 11.217622428957622 11.633159331046219
Ga 13.091246311683513 11.94180528457776 14.065258804144687
Ga 11.034432441938016 8.748031972874594 12.613796044799358
Ga 14.316187031850674 10.303538051665237 15.800104616692042
Ga 15.935416329647733 10.995328397483764 13.610360807513176
Ga 10.342966822160879 11.298887142571726 14.076335369593572
Ga 11.720204436945805 9.143455582634065 15.097021478909099
Ga 11.684719318941372 11.315849115468284 16.65765216871757
