20
Energy = -49.84018502 eV
Ga 7.055079102317155 9.209279800864547 6.795790320612252
Ga 12.2322589460886 8.913359593540502 7.263674849651344
Ga 9.721769203850718 9.468982628775787 6.443319359882614
Ga 7.131087901023682 6.6412574606055825 7.783889865090105
Ga 9.428557162320777 6.742799812996705 6.318542558926546
Ga 10.717081531340398 10.640684998242742 8.714194467361978
Ga 11.375005765509 6.6328404555850735 8.396193951972318
Ga 8.004526028892741 10.775820024585238 8.728756377384421
Ga 10.152617065638252 12.419351975714285 10.442242135738352
Ga 7.538070838964133 12.623357137209512 10.547571920100301
Ga 9.225290290214984 8.189176118985829 8.831459886222449
Ga 13.486781242452787 10.315088448581069 9.19979636252316
Ga 6.847199891464579 10.144803177505935 11.455448810737977
Ga 10.984007457449122 12.77270966715861 13.033771624905675
Ga 6.723193552462285 8.231790313816028 9.790421563406234
Ga 9.465302834345517 9.76716980265186 11.368298368898081
Ga 12.14601897906354 10.782808304898264 11.503418386645725
Ga 11.564676783356902 8.411295386092128 10.364268065220177
Ga 9.080071157071151 7.061612454193569 11.3846682882345
Ga 8.51010984911703 11.644518020940119 13.022978419429009
