20
Energy = -48.58976638 eV
Ga 14.675390191391745 11.420502434514274 8.757540019264725
Ga 13.031450336677302 12.586132587213928 10.312436123633578
Ga 15.291244287295255 11.615105279030416 11.400353962229431
Ga 16.021382869547473 9.14176342614251 8.068402001081626
Ga 14.584189549303982 9.157291779000035 10.478735495540233
Ga 13.969032447061432 12.605760100210896 13.381653100156653
Ga 13.357922748353733 8.9404264117665 7.844517027194157
Ga 11.74838679100322 13.750477150314547 12.243746357373407
Ga 10.323144987334116 12.438555832139807 10.113589022929851
Ga 13.086024786494992 10.054501189399259 12.296721707959911
Ga 10.604716515015843 12.033262519990714 16.51843965215818
Ga 12.103325058974661 10.840816933609243 14.58121530126203
Ga 11.987245610626971 10.102895855931182 9.719809480144479
Ga 10.554885673119221 10.691174282805596 12.18815288947348
Ga 12.174630968117885 13.735659226693608 14.943820354019305
Ga 9.829716935883004 12.615760234134267 13.889655441932497
Ga 9.259605549906633 14.329188262741868 11.60794199502073
Ga 8.20151589076801 11.503653089605473 11.594083553072084
Ga 7.336699067897228 13.288121606786396 13.489034080803606
Ga 6.381075933827629 13.710545882552827 11.069700707741406
