20
Energy = -49.65520914 eV
Ga 10.703338812759835 12.165187956645868 7.674008237657013
Ga 11.40482670799723 11.174255915814369 13.45873254688123
Ga 10.174334351205491 9.454273341409092 7.195626775545668
Ga 9.39905924032597 12.055131990076134 11.884654638996993
Ga 8.114617300964479 11.280913223472913 6.844625126991706
Ga 12.742516973354167 10.68638425636263 11.235120971111815
Ga 12.262815402908492 8.769748193601327 8.792317701031783
Ga 8.6718002155126 9.357481467456184 11.671585131500382
Ga 13.047468353191286 11.270503962096132 8.497814920620714
Ga 10.42724207697863 10.461677118862674 9.80781909886883
Ga 7.895596250165252 9.850486523803957 9.148710715868438
Ga 11.366974184497764 8.336317961452504 11.292884904153075
Ga 8.658138693689514 12.605261720655536 9.350355586618457
Ga 10.819899399161232 8.504626339374388 13.720059278978194
Ga 11.34674381832413 13.086444859240379 10.288322857047888
Ga 14.427728559604912 12.816267900190523 10.285747567401216
Ga 9.564577331045731 7.569198789097865 9.353723937004474
Ga 12.942450255782038 13.12575604546665 12.532585578842083
Ga 8.649809044829349 10.379558981979818 14.043196793068123
Ga 10.445819649452725 10.11628007469222 15.987864253563945
