36
Energy = -91.94026105 eV
Ga 11.014361481713017 15.014841561128975 9.920557071640907
Ga 12.105186728736923 15.272215191602992 16.432616081212252
Ga 13.620370854861203 16.0047173313279 13.916930725632591
Ga 14.525577638858696 18.579025861932728 10.164655926034722
Ga 12.402878981716848 12.380428514297707 16.592524414438518
Ga 12.95043118605341 16.461964077359838 11.041932294212085
Ga 14.14905190362442 18.34090439460294 12.839076200701198
Ga 16.990664547898152 17.500074052760354 13.261523368952584
Ga 10.026371418220496 13.658797456310538 16.594660072740776
Ga 14.274052916215348 13.8626675160004 15.216835108194525
Ga 15.89369554581405 9.047197446215094 11.555365637104675
Ga 13.254886384369314 11.748514404942531 13.999020812435266
Ga 8.739655218949633 11.635382257859593 15.434180982891156
Ga 16.456080793900433 13.941571225211243 17.181327837207323
Ga 14.61288309279993 11.50015883078853 11.58986801729031
Ga 15.618696751933491 10.42540282158986 14.126708771367644
Ga 16.85929804387943 12.847435109995248 14.35051140440922
Ga 15.664227538076487 16.111950015149805 11.409023815765337
Ga 9.687303928915101 13.514923588166424 11.745773137265846
Ga 16.179620870347254 20.05061291051733 12.576182669070937
Ga 13.542322718662238 9.055134536514522 13.206860619474098
Ga 11.163005912757109 10.264806548404465 12.812608824873047
Ga 11.02146062819067 10.26523969230194 15.508655509639246
Ga 15.039738691464219 13.896150968599724 12.52672946958806
Ga 10.876270890541118 12.87590033160833 14.13871042143767
Ga 15.183867976162123 11.687853537521654 16.627379421766893
Ga 15.250394915951633 17.674031067020742 15.288078185622135
Ga 17.359389738779825 11.37132683408811 12.15953148848412
Ga 16.642413828143052 15.360558684592611 14.776259887017263
Ga 12.870041070655487 9.63581250420935 10.463392188069065
Ga 12.234968996174063 12.573496124940531 11.378822105753583
Ga 14.59366327875944 15.92606284269983 17.132557161823858
Ga 17.198188726605725 18.14947678969127 10.657150383494736
Ga 11.504458275948037 15.067088914387618 12.837783345509484
Ga 8.803031136937427 11.254365770606508 12.742184553634525
Ga 13.608654089329407 9.599573306518657 16.041543219282023
