38
Energy = -98.98033281 eV
Ga 10.60841220101393 6.374929439020697 4.6326465306147275
Ga 6.700682028349334 10.202831341132628 4.259622639814468
Ga 8.206100824593259 5.671776649148068 5.9655980483312065
Ga 7.164891979340746 7.114715041903256 3.622249476794231
Ga 9.038602172721536 8.615763926274056 5.326515949105077
Ga 4.327943113359781 8.074383883738793 4.526043412392989
Ga 10.43263419400001 4.304793160465823 6.980876745506908
Ga 4.835354599262836 10.112508378350768 6.568668016824837
Ga 5.335072515590141 5.285446308545813 5.502541559599336
Ga 9.318744924272545 11.538926093902381 5.524474523100071
Ga 11.809209556275665 8.921879773252096 5.7310289473035185
Ga 12.855066748702628 6.153237165829872 6.8155665094246665
Ga 10.452429384631065 7.073320850709941 7.349279757684014
Ga 7.579023614595939 10.160681346864946 7.1374908316640635
Ga 6.479570022687041 7.878952382494598 6.169030128258262
Ga 6.478719357142365 12.536750819489408 6.421176273468266
Ga 7.045547616381903 3.525369802627517 7.521910329359992
Ga 3.993631061980744 7.2229530927052945 7.295524595907698
Ga 10.294037711922131 10.029285453196081 7.849354746547733
Ga 8.128074121936113 9.75291434053343 9.795420389894069
Ga 6.361740885101742 6.0672954464516025 8.223392326944559
Ga 4.173122974524875 4.48815886506375 8.256498340349959
Ga 8.751566033910523 12.428992604844657 8.552378419776613
Ga 5.325259768774165 8.85502426233806 8.947233315876852
Ga 6.016502657274504 11.439556497410369 9.087784754210253
Ga 12.430848996830479 8.460295481640223 8.752769438445798
Ga 8.218362607056035 7.803419076814338 8.170567710612278
Ga 11.531740944935677 5.631486299685024 9.537849370259293
Ga 7.697155629731633 11.872161297324478 11.412044879379128
Ga 8.824648099474393 5.156567093544113 9.09354373625153
Ga 4.596151215668967 6.648590741792928 10.333817835001485
Ga 10.159470893453644 7.943172622911776 10.291109444858165
Ga 6.403880809332814 4.312997296632256 10.580445618403655
Ga 10.50803956495443 10.77906596538115 10.627977757847974
Ga 7.377274964629087 7.082150466862731 10.794145579131332
Ga 5.935253996135412 9.424766783527744 11.51637621891107
Ga 9.54322568861457 5.616753409525922 11.821092627903932
Ga 8.657882266201902 9.0340022834276 12.601828959605047
