36
Energy = -92.30563123 eV
Ga 13.69907588408054 9.979637365966536 16.361322047842837
Ga 15.829200498531712 11.466498789504653 15.502165546822372
Ga 11.117408822883586 17.97034402410035 12.297180193060534
Ga 12.862520799578634 15.898049463069395 11.398525435556838
Ga 16.975363012824392 11.017945513481907 13.020983040293697
Ga 15.909076557366266 17.966939647967777 14.226690590659686
Ga 12.114796848582579 15.689977289548402 14.321303727953303
Ga 15.972417120541134 9.512147174227621 17.549722211333183
Ga 8.528619494451469 17.553404835213854 11.779244967454
Ga 9.018408520438276 12.944284904353294 12.429179720723385
Ga 16.123293549383604 13.962742159303726 16.601607486070368
Ga 10.842876458333981 16.201585820446876 9.863707106285972
Ga 11.062491220962306 13.227538060320535 14.088829811142999
Ga 18.20082189891027 14.830792955242991 14.89251247022996
Ga 17.654356190320243 16.35460077924543 12.846686540572238
Ga 15.230053538907551 15.747473101417919 12.136466740739689
Ga 18.01512993751602 9.711726923508307 15.470598309497639
Ga 18.444938878261325 12.271419404339982 15.051628806082036
Ga 13.530429453362178 13.592378171216376 12.691265758081236
Ga 14.23088030282645 10.968027138582261 13.255169044948858
Ga 14.60581630746065 15.632972370094377 15.004606985493872
Ga 14.611568544875825 12.161168588004994 17.858125818731295
Ga 13.579842425837606 17.808328247972504 13.28505050007805
Ga 16.13686903101635 13.49339475263196 13.463387942852254
Ga 16.793170773586652 16.587632675041682 16.410997892968066
Ga 9.88544470099765 10.668629083697148 13.243825354821354
Ga 15.617181654458593 8.887610884388298 14.290597331613801
Ga 18.608614321138635 17.869702166194287 14.86990183433556
Ga 11.27170093161917 13.649230020722936 10.92842104240314
Ga 8.518342751342455 14.7450856886851 10.735740629910513
Ga 9.817910392159076 15.603205871287045 12.998146163061936
Ga 17.496245653323324 11.9478175884899 17.91007338600112
Ga 8.425913951745052 16.88918362177377 9.108870895257244
Ga 12.098389454873534 11.369230425021774 11.81902713278569
Ga 13.512558867736859 13.145925701145481 15.593683358276717
Ga 11.744154861408598 10.887483698903182 15.045070901967343
