37
Energy = -132.37020956 eV
Ga 13.674635081477826 17.08639959506887 17.41022368844947
Ga 9.887006577823604 13.32984119803854 17.409240682609745
Ga 17.8074075096327 9.853520156352591 17.157731491016815
Ga -1.6998278226879189 11.844526480782527 13.738656549645501
Ga 18.09915414128689 12.835265848617285 17.24202172690811
Ga 0.5589474245339349 15.568306727074617 21.62077039910356
Ga 16.028907229960947 21.64665927613823 13.346944064972725
Ga 17.706809648920554 17.37501338299978 11.629114990547528
Ga 13.706301711309905 14.753773541894752 19.36284100292839
Ga 14.67833977530586 20.062894501075558 9.309694253232095
Ga 14.271811851598331 19.42996670687128 14.417034451482069
Ga 21.526933276070576 18.305020018991748 21.07445916140934
Ga 20.4957199181488 13.878350857938315 15.786095526115455
Ga 21.169064416789418 13.979110851325958 19.48064344662496
Ga 16.899401250781708 18.110490343466978 8.77285738823118
Ga 15.068272975000651 16.87060350941389 13.007228556285158
Ga 17.425465533610915 0.24701245951748796 15.992281866785849
Ga 9.203270577663565 16.70676032553233 19.528873205799073
Ga 17.55476235119777 21.01154651070522 9.484614323833394
Ga 18.48222269820531 18.35918573917183 21.082147581752825
Ga 11.618461791750939 11.597541706394258 15.5635657657419
Ga 18.584412232124738 20.87407790497878 19.303896861414458
Ga 14.921404527772527 17.442913794774515 20.17304856419924
Ga 0.382724052644643 16.601040737031898 18.792514209582194
Ga 10.921511034568884 18.272846942083856 17.638511149135372
Ga 14.49322806606735 10.53424532286719 16.311622470052246
Ga 18.180386650723158 14.04169686975354 20.060783489305116
Ga 18.729174518018905 -2.4472801291365203 16.502876067557718
Ga 16.03998323086805 20.31010899100978 17.70687246016402
Ga 17.532910445317686 16.70164206918487 18.742268838070103
Ga 14.025134110318461 12.395842860127782 13.9492602014089
Ga 18.46210096446459 20.24476680419261 12.301220191855142
Ga 15.051438391223767 13.473502292807305 16.609131168880932
Ga 13.182148805154313 18.755167982423067 11.617873134127024
Ga 10.827290206037102 14.214682110559366 20.135078119952706
Ga 9.098785365544115 16.12695894421896 16.51319670393365
Ga 18.95732758624387 9.49098680480651 14.531846130294443
