39
Energy = -101.57849255 eV
Ga 9.43170252349753 10.462645687487575 4.196576427921671
Ga 4.732237973822163 7.57768435481055 4.840342150688838
Ga 9.893911481439297 7.733995306648348 5.112379801880117
Ga 7.149212167241765 9.029101020025882 5.235980210157184
Ga 7.256241226710858 6.115453031573536 5.3353128209528995
Ga 11.98186842898726 9.7451030183178 6.084999151863339
Ga 12.724211652066796 6.795365698314811 6.486504288294144
Ga 7.341355867689525 11.897627173951667 5.9434391324214095
Ga 10.529081287982487 12.38720467052033 6.316288345114298
Ga 4.5571556441582635 10.040497060570642 6.513433164688729
Ga 10.283668392142575 5.276741625592615 7.269755774233063
Ga 4.699694458702434 5.1257312080902615 6.869857464087708
Ga 9.303092825470454 9.991537196922488 6.893912334598526
Ga 8.38858226626347 7.360566116846347 7.468136564574699
Ga 5.799578118771966 7.593803992774757 7.414940587635219
Ga 3.1106084158910874 7.581318957627355 7.533467304391449
Ga 10.833159926716505 8.019904487513934 8.00836149377644
Ga 6.8856715291938615 10.0409810433414 7.991847241329619
Ga 11.414956652827993 10.93355936919501 8.675227931496163
Ga 6.90874647850472 5.177305596897913 8.578948475713114
Ga 13.383416580376363 8.663548681244176 8.855502082102726
Ga 10.132132549360039 11.25310753501426 11.33021761744778
Ga 5.382179625911817 12.209005403506891 8.72947677454976
Ga 4.628006654758015 6.472629403960785 9.882571225191853
Ga 9.282341981847923 6.084988166412078 9.823087060064152
Ga 11.05528433303361 8.5567645956861 10.605371589390183
Ga 12.95318518811886 10.654333420444377 10.980540182684285
Ga 12.077469426377888 6.1350057370603635 9.666990249046217
Ga 4.586024005088491 9.303196297271569 9.362599295229682
Ga 7.015346410317098 7.855937057485204 9.883304253143633
Ga 8.973948414472261 9.54250950366746 9.53240545573198
Ga 8.768498862360863 12.238616349132403 8.757915217051275
Ga 7.174237565510066 5.70015579853841 11.684445721448213
Ga 13.26993713966133 7.798084741491542 11.825888182404793
Ga 11.06309051311723 9.250230327363122 13.252899559537918
Ga 10.560140689797299 6.238370768396001 12.270414678113148
Ga 6.73511096018492 10.694055311354264 10.837330360202587
Ga 5.391995789430309 8.312781826789731 12.070083321647735
Ga 8.60371742887252 8.411353894836509 12.140047945871022
