37
Energy = -96.02722361 eV
Ga 12.07994241396659 11.599182550758725 16.851755212070334
Ga 13.765138676320017 12.09305664236109 14.777372335604444
Ga 10.400295153755534 13.537862577388845 12.23933808965431
Ga 12.500608597783526 9.60537029723895 15.0281496845689
Ga 8.564573711050349 11.72767792654385 13.73673515568899
Ga 9.854116982759576 10.34793808307595 15.838617713637316
Ga 7.685401688809991 13.124875268961407 11.760381237032384
Ga 12.211462712845227 15.074309516181325 10.526566330705254
Ga 13.190922137597607 13.59653194989912 12.59823018472517
Ga 11.093716782873877 12.3293315807934 14.39677748793204
Ga 9.343724667293563 15.029071735881088 10.198516499667932
Ga 14.716836278407065 10.306968572643443 13.00788401274297
Ga 7.390370291312337 9.80186980085535 12.01534742858446
Ga 12.87906155376153 7.828833802767272 13.21896959780738
Ga 11.753127628166949 12.456253369314028 9.918000293598903
Ga 7.896913661817858 9.011264002580129 14.591382364337086
Ga 6.770233591038217 14.20443038672196 9.523304605257795
Ga 9.62511013182654 10.992222126387153 10.96219335996072
Ga 11.083530746043067 14.541097374127446 7.966042720657517
Ga 10.23198884479374 9.236810286159535 13.19070841451471
Ga 9.002909447497967 12.76762182710445 8.812898575530086
Ga 6.719512105469829 11.346367374971372 9.847983003993793
Ga 12.129508795688007 10.813958195672187 12.186434263419029
Ga 14.395708625829828 11.88528533911605 10.795776908701246
Ga 13.875301169767491 8.957216798198209 10.845458040613261
Ga 8.60255553586211 8.22153814945037 10.107968715324986
Ga 11.24018294342314 7.700720962406317 11.234611000512283
Ga 13.769863683666953 10.53576317019556 8.612813040890197
Ga 11.116257879875308 11.79772453650024 7.35842933483031
Ga 8.493975060363598 10.236850473180517 8.182375039550543
Ga 11.096521423502525 9.521682807997266 9.171634311277641
Ga 12.94015111346281 7.513116269514954 8.90807116579627
Ga 10.430158107969046 6.1715542559171555 9.236032188840746
Ga 9.579033355404006 7.959336013530986 7.420440347762793
Ga 12.502372195139465 9.46126450521546 6.668524101188491
Ga 9.956336031061944 9.975051909458353 5.626110153277639
Ga 11.81571727045761 6.845272481806467 6.495881377538028
