39
Energy = -99.78065676 eV
Ga 11.210511240695658 18.18734151524389 18.582130526520608
Ga 17.489704888767037 15.26566581512594 15.382845654212856
Ga 17.319961163427735 15.215619948297775 21.00125014257364
Ga 15.145311460535048 16.119747768693767 19.428850134264245
Ga 14.952439607208206 14.841810949304298 14.245692733940126
Ga 18.515818632890163 17.91034637516427 15.183069696441327
Ga 14.148557219628971 19.538051970983084 15.407340086733278
Ga 19.8836388239291 15.88024724452787 16.820810388579172
Ga 13.3552990094671 16.656800538178118 15.38390006079389
Ga 21.457881953152647 14.352478761688467 20.91191642469016
Ga 20.02704644610958 15.991398050176109 13.930000086904299
Ga 17.570845596629344 15.49739136012877 18.161085177113044
Ga 12.674397194034642 15.866684341852517 18.13733765551387
Ga 19.26939524019916 13.160877019756326 16.938004280006023
Ga 20.084797331703918 16.45503910400046 19.77270264328578
Ga 13.783296476652549 18.426248191255887 18.196297889388628
Ga 16.320770441245624 17.900476472305556 17.462621152819064
Ga 17.30044559378775 14.061607280731854 12.821629285071188
Ga 9.945335709336726 15.654110763516359 18.520536011309957
Ga 17.460393753660938 22.123817545979932 17.127052090997513
Ga 15.402297512874927 15.894738447440128 11.760509217765264
Ga 19.530280147004184 20.234020552423043 15.932619998864336
Ga 11.720751415074862 18.69904544864258 15.97338063895223
Ga 10.903463203983828 15.977320019964106 16.013116935269945
Ga 19.15007478717938 13.789445016685029 19.447967887107673
Ga 9.180319122994046 18.055459904765303 16.774502518886493
Ga 17.591943192655755 20.00149507384041 18.78143450779925
Ga 15.808108528221535 17.530215982287906 14.41704258927223
Ga 17.827293489473814 16.790625817655176 12.751070553673232
Ga 20.193041794256743 -2.956157239247644 18.467142204213474
Ga 15.16195998810442 20.609279328653027 17.80142080557448
Ga 16.757181843785588 19.913602049338305 15.591226014383123
Ga 21.705436713600946 14.362286532052051 18.2451590804945
Ga 15.15358973829977 15.202976321633669 16.895471669821315
Ga -2.5651204171832664 18.036935762409257 15.685576759788717
Ga 17.748350661666233 17.806560341198733 20.20182213132419
Ga 19.198523402191075 13.37079965274005 14.387771413987336
Ga 19.507565939633064 18.26532883855935 17.956697325197176
Ga 21.70078091218637 14.326603331319738 15.45953003157997
