37
Energy = -96.28606936 eV
Ga 16.30636032654216 11.416750831720071 12.76163724515231
Ga 11.62003726547211 11.993481580118752 10.723341433856106
Ga 11.938164396541968 9.883316119598042 12.406360017486252
Ga 14.759236680313759 14.518829186674198 9.792723396845282
Ga 10.962375222557158 16.408655471220467 12.31256456310759
Ga 15.573329770617582 16.728496323145713 11.286540392552993
Ga 9.720012566114066 13.460988875977167 15.664682124915064
Ga 16.508666341793642 14.46420091001855 16.360165896468775
Ga 12.690024993757987 14.375895437056267 11.45799605291228
Ga 14.31174303649708 13.489361409465424 17.59929061703572
Ga 9.3539620785446 15.995403450638765 14.579653799332377
Ga 10.158212129044323 14.514098306596303 10.03969282082096
Ga 17.83680934367512 13.308815515541951 14.07633174408275
Ga 13.321088313382694 12.153220918309165 13.198922372270939
Ga 12.369307910048775 12.352500426436261 15.786251422146847
Ga 10.449454458667933 11.62102801886141 13.690128220874584
Ga 11.867097653858282 14.369671603221507 14.059897132421364
Ga 13.210732972877741 7.795325936932074 13.588680985263206
Ga 17.262473736044413 15.489618484675931 9.444024459157127
Ga 16.994454630628034 12.862958356994982 10.613004044311845
Ga 16.306325606173797 16.40300639067892 14.243782586502688
Ga 13.685985429735974 16.807681859256995 13.123857127980562
Ga 9.714715649931227 10.84703587679011 16.29953044037126
Ga 9.075152492872316 11.51689697445877 11.281778005109382
Ga 14.081767854582093 15.20247605563085 15.334451321056983
Ga 11.815682656981316 15.018557528065832 17.01782571369
Ga 9.589647050933939 13.901855615015714 12.665748137112416
Ga 14.623130829915931 9.443250623355489 11.673633804066224
Ga 17.6487395895663 15.151746729575006 12.161704293735813
Ga 15.354366233589426 12.347387934231406 15.162580298577456
Ga 12.85871394913747 16.835482400868546 10.22748273532348
Ga 14.269641469470683 11.942323258857973 10.568167563358038
Ga 11.900882309427693 9.701396427855524 15.273204694938567
Ga 11.883571961796205 17.01340839164025 15.106160129861063
Ga 15.209732378447969 14.12400356363611 12.816947817925207
Ga 14.682100000892724 9.860928877687448 14.528776589662607
Ga 14.158773390172765 10.752417009798819 17.14495268032053
