35
Energy = -89.75687243 eV
Ga 16.469078666815097 10.822118150576891 11.311371874127452
Ga 16.912656677541438 8.881768771866065 9.567105505784037
Ga 14.501202007242005 13.094524637577985 14.83135253619053
Ga 16.355348773470798 12.86693306613351 12.914060621383832
Ga 14.93860185195197 10.884297640363595 9.001232301277723
Ga 14.641030463304471 8.614522883627338 11.264930296074837
Ga 14.576120267375158 8.112196135472942 8.290654680440952
Ga 14.237294324031145 14.388515909573933 12.158001795199047
Ga 14.7084415585382 10.536829062947753 13.64742660686314
Ga 12.674452501789457 12.197303427698401 16.63253087915856
Ga 13.955870469817151 11.925362592106817 11.294189015392407
Ga 12.643408129674594 12.241322744153543 8.962056044057691
Ga 12.535447808384031 9.308833317849558 9.633726532604607
Ga 12.02866193285528 12.56681899833357 13.45537880865937
Ga 13.05191451488034 10.07732149196964 7.028726488609423
Ga 13.00147932630311 15.15692175120622 15.053791519235517
Ga 12.363915682945668 10.14833110787227 14.891719952015286
Ga 9.697482815575594 16.705437452675277 12.01816642974269
Ga 10.257888755118483 12.937069878597176 8.145165629107739
Ga 10.495704097404467 10.06366813362143 7.938313765373104
Ga 10.682224265409118 16.584931853210843 14.734967937828811
Ga 11.910909919825464 15.306973686863296 12.528306776498543
Ga 9.897984134826737 11.455981289902885 15.146853409849623
Ga 12.3994457657593 9.772043718197894 12.209817636188252
Ga 10.934116961503282 13.534465811754494 10.827903029027842
Ga 10.429106408708337 10.746246484575739 10.572342613476883
Ga 10.735673467507599 13.872206879735696 15.913752064758109
Ga 10.137147481361888 9.372899937494802 13.267637299672563
Ga 8.049887933455276 10.135892483854947 8.931439077619265
Ga 9.430746911874243 14.35623492638907 13.710841200392625
Ga 8.043295263354077 14.669554375734478 11.383419190663332
Ga 8.246935215599512 12.538859096192128 9.939659218503445
Ga 9.068026417195515 12.04960879048569 12.589156124237332
Ga 7.723558282675205 10.051126510442954 14.322808494261267
Ga 7.877783396936398 9.717745346015743 11.58367247874367
