37
Energy = -134.16212813 eV
Ga 5.432600311870243 11.524720622019611 5.857447045695326
Ga 3.7508412817966854 10.974672099075892 11.298234850386239
Ga 4.191751663229539 9.957295104866658 8.135545792239034
Ga 5.989742233978724 14.523901095962339 6.298981293875701
Ga 5.98064375096179 12.877123221734017 12.15088798275246
Ga 8.855940277197126 9.71592491622725 3.6850899490095914
Ga 4.772770549051363 8.130654389878298 11.532588057684835
Ga 6.854806656643053 11.228324436623629 14.55022220246145
Ga 10.476688445596254 7.345295287903872 4.6539515057695064
Ga 8.207095363121114 14.866369439156575 8.3382452005693
Ga 8.864176204125517 13.758565313970733 5.60180968537294
Ga 6.739153435137722 8.782883232567453 9.294496961269509
Ga 7.8564749800633145 12.109047257513282 9.579649573905249
Ga 7.377927147206225 6.246158814232835 7.676654560525748
Ga 6.762199773306608 8.280704183063488 13.813210029857988
Ga 8.312592647534734 10.854860852174642 6.503102349048021
Ga 10.193516702058618 7.457575401601079 7.74196986279492
Ga 11.854902882367451 9.941218065911706 3.809289834174221
Ga 10.740890564730016 11.253880948553379 10.09414660089302
Ga 9.215068740024833 8.522849630649883 12.022445850281064
Ga 11.957856248907872 10.232199552770476 6.838913499670511
Ga 12.256560689378516 13.035668054211966 8.095254812402906
Ga 8.759222759953555 4.206444207455475 9.516019256354666
Ga 9.634570585881347 5.473522666090555 12.14360570860438
Ga 12.749579204479359 8.480773793139383 11.081891846191532
Ga 11.091445333430213 4.553839417996896 7.580753431993119
Ga 12.184510005332585 12.71844113345032 12.35806613758257
Ga 10.452745630788785 8.563452432888596 14.822088799841145
Ga 12.109346355418147 11.096034847482338 14.950146512129564
Ga 12.657386124626608 5.378708182315625 12.019968716871421
Ga 13.408661340899581 8.435861824174234 14.13005072099247
Ga 14.574848600876091 11.002198325063423 11.68399207077998
Ga 14.883406682889227 9.372273080546213 7.127258419190873
Ga 15.030185652467049 11.958519245763396 8.806755191922582
Ga 15.053674254718986 7.3830935209964315 9.41504956805195
Ga 13.601888589800112 4.6243571929943945 9.256123662743263
Ga 3.953942956434364 11.922202835257355 14.325707082393922
