34
Energy = -87.30134914 eV
Ga 12.939214752794737 11.61266432126122 7.285386255620284
Ga 12.339502354707154 9.129858117046057 9.01348834003883
Ga 11.631012544884214 11.916031263789527 9.682053510056186
Ga 8.701198657721497 11.90366123080264 9.71750549587276
Ga 10.393684722519659 13.349331721654993 7.849629347725861
Ga 10.151377925030548 10.351161521917234 7.803655520710546
Ga 14.303763585373295 10.92688990344732 9.619396666382817
Ga 11.466850173638983 14.716549214026173 9.934189986151242
Ga 12.344593145735054 8.194577575186358 11.645432329575705
Ga 13.864562906269725 13.579046729357009 8.927316084965394
Ga 14.653758096810812 7.912216230735141 9.787205688981055
Ga 10.200672596180269 12.717820979222312 11.814444281338814
Ga 14.983701240338277 15.209844652459921 10.691912009460038
Ga 12.222030569068439 16.65158369498191 11.578301638760491
Ga 15.073931669627951 9.678046119100475 11.864170656062845
Ga 15.731794028374784 12.648335993434326 11.187664514948683
Ga 10.093821912667565 9.81480732974159 10.700546104004598
Ga 13.109307066700982 13.715043461136398 12.041461352970359
Ga 14.72100050137131 17.55260137375184 12.003362303244295
Ga 11.092915736041398 15.08420097323738 13.263972247215133
Ga 12.55125099523905 10.997232516152756 11.849723139166814
Ga 10.31783519570415 9.579294053642622 13.301918972529627
Ga 14.084399587423244 15.693011819759894 13.726452847347545
Ga 11.534132525316334 11.956710175154859 14.207333682877332
Ga 13.199899290619742 9.37260404589036 13.932349708681642
Ga 14.616907509840573 11.951957462087403 13.547299595187683
Ga 10.44611968792813 14.468051788209205 15.679489357320325
Ga 8.858743831337257 13.013365383143752 14.141668437506246
Ga 11.665093842385108 9.267838594011181 16.163247470389827
Ga 13.752943710358364 11.308235937181315 15.978351531210723
Ga 13.169643175466641 13.903479690770167 15.321469582274393
Ga 11.352597923955095 12.082496081748468 16.93512672213027
Ga 9.241701864011008 10.691021103275522 15.545928864758915
Ga 10.226694621839904 14.087086889962462 18.295203701813357
