39
Energy = -101.3253953 eV
Ga 14.337367904074153 12.362752291426988 11.630749789581817
Ga 12.526519136935903 11.706924253315622 14.402577165303724
Ga 13.857890053760464 9.936381634750797 12.728723110778384
Ga 12.272865630149019 13.837011923800837 12.38386312208286
Ga 15.396511755999224 8.129709532998335 10.947911960142605
Ga 9.877700320998624 14.881194575924779 12.090036723649249
Ga 10.04754627272418 12.354061807591192 13.25428824541003
Ga 13.98623187899836 10.177019878914708 9.821692562658455
Ga 11.005588620871562 9.63261390768712 13.142533837181135
Ga 12.633311565725121 7.97433369919577 11.4860797533036
Ga 13.44042958130208 12.786963103871171 9.05481584191918
Ga 11.651800657181298 11.315983155214694 10.929489103445675
Ga 11.376017837221335 14.1153277755009 9.731066804561712
Ga 13.756550285514221 6.344240712939427 9.445879677177222
Ga 9.165255510402858 10.458339272601098 15.064634271656644
Ga 14.137039632086541 8.506411287437338 7.747825893885441
Ga 11.57660517183915 8.565658030722886 9.028704460563997
Ga 7.384408933323634 12.063229236539685 13.214391305535434
Ga 8.970584725799723 14.944414468081105 9.2727380068828
Ga 8.090864634375176 9.37177769787089 12.8340773623839
Ga 11.996302840839823 6.165208149909327 7.376768107431645
Ga 9.105589005747177 12.379554469985656 10.739704700145984
Ga 7.289284460649378 14.396583370781494 11.88710955120067
Ga 11.991137489937854 8.647280933136967 6.0434593362794296
Ga 9.92844007786167 7.826638489810981 11.527288822470885
Ga 12.324113970825927 10.866769227894682 7.586672727738734
Ga 9.30004549414142 9.859712962064906 9.870142496614532
Ga 10.045062865739268 12.306539669693354 8.081283966772158
Ga 6.824956992232994 13.475751073766341 9.354521141969812
Ga 11.234120671279532 5.765451432286371 10.405864633900633
Ga 6.62458726170649 10.955046036039317 10.891676749377865
Ga 9.56431725464828 6.898434239693989 8.504356873635023
Ga 9.606302335746763 9.519129955095858 6.941896416320025
Ga 7.267804576480564 8.007082975994756 10.709302492643207
Ga 7.57051296597378 11.039109806301372 7.991389193788693
Ga 5.045223601512874 11.831675365110232 8.466328169713007
Ga 8.427670059738837 5.543882896875906 10.748848624393123
Ga 7.367013854866954 8.115079330344178 7.891322452167242
Ga 5.327023686919883 9.267320944961767 9.100584121464834
