39
Energy = -101.93489689 eV
Ga 9.330103841122732 6.966248262718744 7.377302029309116
Ga 11.769980613227846 7.640303217405268 8.366821078837011
Ga 10.513837288991935 11.548334250807555 5.547019842864053
Ga 9.91880307369674 9.023226470260518 5.942165498811059
Ga 12.24455697140365 12.92318351349112 7.079744837503759
Ga 14.233842843195287 11.488358545417372 8.534541211895112
Ga 16.13735612781574 10.058779391352598 10.155826396741315
Ga 14.085047660211833 8.612559748792629 9.056523027796025
Ga 11.990691559841808 10.14949992055323 7.485400991669542
Ga 9.923651323404576 6.3892849576048025 10.156933282271583
Ga 7.1541929731502405 8.488494805384736 8.174452952649206
Ga 8.01154304005277 10.760067382729064 7.241635212114621
Ga 8.659040223389729 13.363136755731537 6.538647064124767
Ga 10.431449744973989 14.649937768735624 8.199246988347038
Ga 12.302711282321301 7.265737151059086 11.182933590064698
Ga 9.661024405785797 9.180644242571926 9.315645889744085
Ga 12.481877656771458 13.32169514980312 9.774304558358013
Ga 10.108320496692263 11.824946355552836 8.698769400013324
Ga 14.302118999191292 8.953535101837975 11.920339700082211
Ga 7.294865933124996 10.646795815595329 9.9413088122014
Ga 9.918340428488476 13.902735390884027 10.74362595167296
Ga 9.814484899944723 8.29647102271708 12.06861242833965
Ga 14.270874937519721 11.807722104310946 11.255593651921023
Ga 9.787172355553762 11.161023259360727 11.629379942375271
Ga 7.448470271747657 5.787876649706853 9.001826910012767
Ga 11.857899151442986 9.516680268726898 12.937243582805355
Ga 12.132613263864982 10.303106675908223 10.284005190691516
Ga 7.5499994087447915 13.318128566589639 9.071881160278288
Ga 7.299075362438758 7.811663097510452 10.818132411249582
Ga 9.785681302339842 13.831399350353742 13.418582238223085
Ga 13.877657557693944 11.032089387975114 13.953539321335303
Ga 7.629079817133755 7.220179384324774 13.44715129865921
Ga 12.03808590599612 12.668801478309268 12.373084080457147
Ga 7.443970077345459 12.696710519426711 11.781217522357373
Ga 7.399157940295195 9.944568927174561 12.54599500371347
Ga 11.00549062251245 11.457977774365954 14.589994783051061
Ga 8.081116688159756 11.966245862910773 14.38462752945491
Ga 9.369332452111554 11.079414272906552 16.625460722253642
Ga 9.012697825702036 9.218653526534002 14.656700233151376
