33
Energy = -84.68034995 eV
Ga 15.539182344722986 13.199763183106034 15.986266042663864
Ga 13.571703469720244 10.546972406356295 11.765168875152353
Ga 15.280421657008521 10.321364617033124 14.234073717667224
Ga 16.414360235653646 14.817070351749043 13.809960044806392
Ga 17.972116737603564 9.76627620436954 14.085080836422025
Ga 10.200007666080772 11.615459402188339 14.779139231550275
Ga 15.72311543833329 13.644399639549787 10.745188035063206
Ga 12.042348775252664 12.845096952642049 12.811569926313028
Ga 18.86698297438891 11.438006732912754 12.078347185783242
Ga 9.457889070654497 13.125214192740927 12.541930396061133
Ga 12.707314759305298 12.797549834130196 15.998012710892805
Ga 10.925151570312018 13.989304337537291 10.41851130870403
Ga 8.021127883299531 13.063649843216314 15.103334102975044
Ga 18.149493246711714 13.994827074999955 11.831771646679933
Ga 16.984155881645556 10.82071512659677 16.48150629495443
Ga 13.682036600643885 15.327038488655313 11.579490708395186
Ga 16.477728346605904 16.32684654913632 11.46181272249883
Ga 14.585785677080347 12.825224400677447 13.264903649454284
Ga 17.43815780588855 12.478257011479174 14.254830460833523
Ga 12.213726058376102 16.130042557564817 16.559639966983312
Ga 13.110001990253295 14.926209863298457 14.260935522699896
Ga 12.441824688732545 17.719381846715077 13.807574803419092
Ga 16.20376903934496 11.069390942982595 11.702608106008553
Ga 14.924697379901087 17.008584580648677 13.677113153782637
Ga 12.615167225901033 10.429000410695211 14.20568653234887
Ga 8.930307660205642 15.740686588042717 11.013021286796215
Ga 8.500417301091826 15.384809043814421 13.695442360225083
Ga 11.147642442448003 15.738903670822642 12.566605743720293
Ga 14.182034525634247 10.783630303987076 16.798018953139874
Ga 10.11407690314915 17.07669089379305 15.097417368852433
Ga 10.583764576728315 14.281820903393646 15.340069176537181
Ga 14.84274993446718 15.840894457798857 16.204823238286313
Ga 13.35228892007367 12.747503023061647 10.150137956079384
