35
Energy = -90.52241905 eV
Ga 15.611027167301398 9.655821448432638 12.324910503287304
Ga 15.019821301818618 12.107806157724298 13.421018386344004
Ga 15.888778227791946 13.709407730048262 11.353093426415525
Ga 13.812138957235305 10.118194235059054 14.858996174601224
Ga 14.28061475783078 11.404198117701254 10.729533107591244
Ga 14.97032972415613 11.919470968289762 8.024536449551196
Ga 14.127557709362286 8.673919813372308 10.006175418961826
Ga 13.145393001698753 8.618437259897192 12.584991092250858
Ga 14.078402908291594 14.154599688722895 9.349891600014425
Ga 12.777282375213783 10.318563353645827 8.415192956141944
Ga 12.335200649408547 11.529252607985555 12.99366413704795
Ga 13.46963906199502 14.235349995460528 12.711831301835847
Ga 14.539977497464013 16.207314445666274 11.078904921633107
Ga 12.266622096936752 12.9240726954297 7.788898295053222
Ga 11.904849329867188 12.721636596265196 10.63369372359759
Ga 11.442603745599152 10.01732945158182 10.885748835733352
Ga 10.148066568787007 10.954151182159316 8.161523429299248
Ga 11.1744051273536 8.670757757446003 14.280838657359293
Ga 11.970779911434951 9.410262557375114 16.80555340527262
Ga 11.919565639111143 15.472906968478942 10.717976008296674
Ga 10.941090365047177 8.146706853100593 8.744251544507579
Ga 10.741835037009395 7.422252954588839 11.63033836884074
Ga 10.094259007316838 13.928995799300193 8.88027965051885
Ga 9.250406611659475 12.0412679702641 13.729433917164299
Ga 9.873435388917299 14.345717490240352 12.058957577895617
Ga 9.402835907676968 11.807375284692407 10.929831388615009
Ga 11.286405178527893 11.65939900978883 15.479375460911829
Ga 8.74511861250786 9.159571256542637 10.072145142111353
Ga 11.357735666054566 14.012802558204228 14.254613881129531
Ga 9.121879873794281 9.508353567993428 12.712364696637104
Ga 9.035580152278907 9.895542420346088 15.483005531728478
Ga 7.1806182563356495 13.383850565750581 12.650101631596309
Ga 7.768465883592164 13.833607278750755 10.076499109674018
Ga 7.552841925591625 11.40892546188312 8.79236352011818
Ga 6.931619111285658 10.825333507991656 11.637174792077555
