32
Energy = -81.80536089 eV
Ga 13.043876846080906 15.558847396224015 15.994043525834797
Ga 15.40424249913724 14.626769316840019 14.709222399615854
Ga 13.51077434031109 10.613705156261512 15.212241175595178
Ga 16.552221309397797 13.900668651657412 17.07891800310145
Ga 15.46499030071097 15.30350174404499 19.404439837111187
Ga 10.619861882625647 14.998791915775985 15.117828519103346
Ga 9.24010876067643 12.777671838201782 10.606925541997374
Ga 17.584170540281736 16.261043600858436 18.148073519470756
Ga 14.465225985341977 14.180094496907387 9.69891265351747
Ga 12.547724005054274 15.583117580104432 13.078055446046658
Ga 16.162150422500805 12.740511753557143 10.925312809687354
Ga 9.748379403672539 13.272804616315353 7.981670447608782
Ga 15.119541313152325 11.971099262465923 13.241499594748893
Ga 13.049342919513707 10.244174510552833 12.733392748463281
Ga 10.773948304950135 11.52468009186771 14.785120894863446
Ga 11.64687709860627 11.581067000070595 9.396590169446963
Ga 17.441828394260437 13.735263280795431 12.980350260364032
Ga 10.351002526713069 10.918833353769513 12.225229758278376
Ga 13.21171401344405 16.529141690742343 10.572924091730108
Ga 12.969382075829035 13.245050136131098 14.30205171132461
Ga 15.258465057252398 16.447121169777702 16.764155052565492
Ga 15.100649440934752 15.127444350492281 12.171631953494387
Ga 10.885936737910857 14.904526962032072 10.625467614824728
Ga 17.130814259025932 12.052513150768725 15.112757482508872
Ga 12.234425889868579 14.015345683636236 8.49732540614887
Ga 12.738360643171173 13.029518027540009 11.549421008893162
Ga 14.620587415334006 12.215821633963401 16.750854829137868
Ga 11.71274261446218 9.201501974227119 10.667943463809447
Ga 14.18104613569443 10.950133578608126 10.323880825596715
Ga 13.567854202700572 14.051731279845441 18.301590169087817
Ga 10.353073300868232 13.64512618872878 12.968095092924845
Ga 11.666513036868512 13.007792296978725 16.780090363544765
