38
Energy = -98.24441764 eV
Ga 17.10413171306301 14.26316956528713 20.552317220972963
Ga 14.147124210236468 15.230381806808676 16.879329265980456
Ga 15.348656303999233 16.09017350428593 -2.987956736132301
Ga 14.328726302621936 22.58179202433081 15.344430053625384
Ga 16.616211506499855 16.86455590046156 12.385736725129265
Ga 16.172272198982267 19.18917375297756 17.996795563259674
Ga 15.584638684978225 13.258263795415962 15.32077859853602
Ga 14.264083980594068 13.920549137929516 19.3374560394234
Ga 17.054818970081588 14.31314545839575 13.258619645508775
Ga 17.47202110683506 15.307875995459439 16.037915407837122
Ga 20.357542234400803 15.878476635946118 16.369379187208615
Ga 16.648388405052554 17.938061227765868 15.511289172318078
Ga 18.142922096659902 17.47624148217045 20.193621692226337
Ga 13.674638176398512 20.790174096135054 17.31648917092771
Ga 13.463864262859609 16.650459274016185 18.99323447254552
Ga 16.186503328856265 16.313208436190493 18.425839211148254
Ga 15.809637709620501 18.65931157682498 20.51956782359791
Ga 16.003188354459205 -3.630120444045473 15.693345836022614
Ga 15.076606881824295 15.841982184992428 14.527461084342592
Ga 13.264375746438859 17.828480972025556 -2.4917605995004544
Ga 14.703887014241568 20.780349157295717 13.188790673617738
Ga 18.705786209812754 15.340784867148265 18.647227544436948
Ga 13.401236156684128 19.40015088603544 19.450721360718397
Ga 20.67938988267655 17.43359302209667 18.87066789763644
Ga 18.57845730138534 17.800038267442503 17.224035772958405
Ga 18.955514271829276 17.088118473056568 14.313779457194721
Ga 19.513943718404672 14.212615135391317 14.191155469896767
Ga 21.277894392463203 14.597067068695742 18.647860564616405
Ga 13.865549970603116 18.000900118338265 16.522679307289273
Ga 18.993115962271254 12.679269756337428 19.506519097712907
Ga 12.787713603701055 19.92595416439849 14.933725441869282
Ga 16.54007425005725 13.382434662597399 17.92115474923818
Ga 21.467583199546997 11.870235454871054 18.419562879277347
Ga 17.35733034459218 19.410910970305917 13.40603362192646
Ga 18.98326888818444 13.040981562405566 16.850854836844015
Ga 14.456819720453813 18.170909593248897 13.712493167486668
Ga 21.429985557128152 13.283488300487758 15.897923782906332
Ga 15.643506313917229 19.128867986669558 11.179610305946662
