33
Energy = -85.31085191 eV
Ga 16.309615867016404 12.505466029714313 11.175569846534383
Ga 13.78863156230029 12.562391514349592 12.869269848809832
Ga 15.881410175444671 11.2200205344653 13.874377568619868
Ga 14.901579735447898 10.230944963583184 11.225060964271217
Ga 14.489701535778975 14.47390506496602 11.103561808110141
Ga 13.578060510689639 11.528758217404278 15.77049654355508
Ga 13.52701486129448 9.635936571799856 13.740723924874349
Ga 12.440746762567017 15.390996943115981 12.666523189989423
Ga 13.45716199445423 7.700717794726352 11.652390680719028
Ga 12.238933556068833 10.450373436254896 11.516017697898434
Ga 12.328604897404238 13.71792639281736 14.85768555480291
Ga 13.754482745835446 12.173206151709227 9.59799044792345
Ga 10.972365379238378 8.423292526315088 13.194155318454502
Ga 9.944376499119043 15.379576129699426 11.336802051895727
Ga 11.395400685215854 12.994302639535134 11.66581391589252
Ga 11.199199181311775 11.155229629101763 14.103688665754314
Ga 13.314695735829712 9.363923096992025 9.023057368721641
Ga 9.827102176026177 13.802854985636387 13.92548707470347
Ga 9.63037935087305 10.453594529420036 11.64892187546197
Ga 12.111259217823692 13.032146682110538 7.413135902312423
Ga 12.307209291392642 14.700841304067259 9.541398619710796
Ga 8.401234582125381 8.915563341049033 14.207497339824297
Ga 10.93722131852106 8.20796888151138 10.350875565161896
Ga 11.090128925892833 11.042852259850044 9.263409021537912
Ga 8.386196721502984 11.57699618186955 13.951879383589613
Ga 8.4676804149188 13.059627502093388 11.536924615216327
Ga 10.817992398113052 8.903108341773924 7.493107108651533
Ga 8.256461779619823 8.09768878113381 11.570182854819773
Ga 9.805443297591257 13.601890561943385 9.136656287457283
Ga 9.643363864977774 11.601610168744957 7.07443052081875
Ga 7.977282486245549 11.370070521263791 9.316175518946919
Ga 8.531194516966568 8.773517456159954 8.997896254808861
Ga 6.893539182041779 10.62357188277751 11.759774350263529
