38
Energy = -97.46623376 eV
Ga 19.468236864164204 17.610442474395594 12.634802526512063
Ga 15.724412905464025 19.193521771493202 21.13008940839925
Ga 18.04728375893612 17.546094733434384 16.61301443246603
Ga 13.887297561218162 17.45484329165113 19.50964812164791
Ga 14.36541375881758 14.939654247524508 19.617980742316714
Ga 15.861246201948731 12.538821656657102 20.023376935922087
Ga 16.791966127030104 14.95579455207938 15.520947940406781
Ga 14.01795555845391 16.70027273649281 14.846388516581147
Ga 21.549340108845495 17.92324682610519 19.30768202108663
Ga 16.64624274701904 14.109873370673276 11.003662182762385
Ga 15.242707191455674 19.461594490264645 14.532598126364636
Ga -5.984075013408348 14.485130920087814 20.08975152734044
Ga 20.62655819147166 19.635508563497876 17.343207774550084
Ga 20.77785602710447 15.313551717314784 19.474413605787618
Ga 18.857396048839586 17.528577009044415 19.219454370967014
Ga 20.388860955216007 18.61699913404515 14.884875641280201
Ga 18.257138019257443 20.601604646071998 17.637477416002895
Ga 16.34041980304423 14.029515361354072 17.9978493392743
Ga 16.252519349830553 14.69078013408476 -2.198087582925717
Ga 17.26279631463034 19.693041513686023 12.314660956578168
Ga 20.741537378205944 16.757418331894428 17.008934325850273
Ga 14.77789821278447 18.004803730317192 12.516634664767588
Ga 15.319341475813292 15.121015920962359 13.254738432466983
Ga 19.668186328607188 15.751402161966181 14.916933220288467
Ga 18.010920561775556 19.833836681629425 14.974972542784911
Ga 15.174005346318877 16.450272937095065 17.261929054348784
Ga 14.782782964586655 16.102203407470704 10.547511181592402
Ga 16.52980903100133 16.66667120388487 20.178165466655454
Ga 13.323926432702113 18.574546946526926 16.541333651892128
Ga 18.91312189516903 14.79189403316156 17.396044390534094
Ga 16.242821048422936 21.278874676460923 19.21592110199898
Ga 17.20581174029395 16.917025833801947 11.524426770359277
Ga 16.316756802327884 18.599210964146735 18.32940853587154
Ga 13.899906834845117 13.260276894396727 -2.348431544701116
Ga 18.23119297434342 14.802259842852491 13.076716088097648
Ga 15.583676247734331 20.794808884695744 16.67927550696013
Ga 13.779185282439242 20.03529396510419 18.8470900110458
Ga 17.00904661092939 17.349652587296585 14.220252957159069
