34
Energy = -87.43383795 eV
Ga 8.119173398573752 9.04419094096419 8.430599688228593
Ga 8.399539452041186 11.681687301960867 7.871829901333323
Ga 10.656287535341045 10.16919884820369 7.849835715606028
Ga 13.092352860639155 11.42513627039275 7.2420153690098665
Ga 10.166370623750478 8.626282281526882 10.029974054971406
Ga 8.727025502923981 14.171067485544922 8.669466799287413
Ga 11.028947645544704 13.024617566037877 8.070478611110035
Ga 13.167717344129917 13.527349209298428 9.493917767767286
Ga 8.64248872929345 11.04280020334357 10.516847706594879
Ga 12.192791487230577 10.648669275746 9.879345889761266
Ga 10.146179850736086 6.731394926911987 12.108941997814554
Ga 13.478532056670259 15.252313735475933 11.657090636117792
Ga 14.83752724895224 11.308802787213425 9.365635399873314
Ga 7.9639091984010735 13.664564319482954 11.080561702369216
Ga 15.578584700463718 13.530779155296532 10.809551602566914
Ga 12.24872362543921 8.44305685821554 11.652330296708241
Ga 8.89715865105354 8.996642915293783 12.702515406276598
Ga 17.11649137589944 10.942586238708309 10.906622028156857
Ga 17.017339507581998 14.014267578808035 12.961298560653214
Ga 14.407048444856555 13.956798066552379 13.847008577161995
Ga 14.433036389347485 9.782791541021878 11.541479904321656
Ga 10.745772165898668 13.248749574868636 10.77662015495404
Ga 13.250752692889481 12.247247069788818 11.914158265892821
Ga 6.8238983263914506 13.706945775596779 13.549801964483056
Ga 10.944281424314605 10.951153343013361 12.380289986233919
Ga 15.64788219360417 11.507030231143178 13.141980211915005
Ga 9.676458633931544 14.20738914084307 12.990505948548437
Ga 11.84371781670541 13.367927646625375 13.968564564308766
Ga 11.429773542216596 8.731147929802924 14.135448123525592
Ga 8.237467540522706 11.39127296136126 13.242301421830652
Ga 10.644356908131211 11.186273400153137 15.182866742952305
Ga 13.520418848989864 11.049170516560377 14.578203557675028
Ga 12.348686029097497 9.583908494453942 16.48527488125417
Ga 8.888389652210538 13.155867813562919 15.285717964509029
