33
Energy = -83.98180139 eV
Ga 8.358335134813862 12.23891159293115 9.783441994359707
Ga 7.55172218260579 12.905407461947949 12.65693043694968
Ga 10.500796384638969 13.770179886612423 8.734936068579383
Ga 9.094932462235695 14.77383331200227 14.025598407571318
Ga 10.030694943385944 13.717013106255335 11.597383507869818
Ga 9.29824350275178 10.801234864786892 11.968913219793079
Ga 9.366794841028454 9.614733908039202 9.356863697022343
Ga 11.580805182947906 7.265190584891365 12.839461634741943
Ga 10.625436915140456 9.560191534544298 14.032299813361638
Ga 9.59909550235016 12.01231337619064 14.42623154118894
Ga 10.902844212201567 16.344476517182375 15.296332781536915
Ga 11.011856648676908 11.313095432761829 7.714854874568228
Ga 12.333561823635243 11.26162776287153 15.425898565351403
Ga 11.326399976266384 11.693589660205625 10.305852525965506
Ga 9.075790657648755 8.024005481633754 11.961688180313496
Ga 12.013563633721846 11.702339715398027 12.753266176308053
Ga 13.200217504684264 10.107386530220083 8.838591562795996
Ga 11.734616935532141 13.80609995517688 14.333211641199401
Ga 11.737911436971162 15.661394813709896 9.99040310689179
Ga 11.540196584390516 9.036105585922657 10.854266349626586
Ga 13.537442840253012 9.685388322845576 13.32838181967658
Ga 12.88977721315632 16.06068226031557 13.481406006897386
Ga 14.28923842289072 11.493547654196702 11.086009681375831
Ga 13.506620791632626 13.08409138719602 8.869629209416596
Ga 10.449393082713236 16.328354416019334 12.218712829796699
Ga 14.145210043781905 6.95993804986149 13.146080824419808
Ga 13.06174981493921 13.882863990940493 11.701973765090187
Ga 12.19537757224994 18.219412851612667 11.437828608228363
Ga 15.863425796612699 8.69140321238311 14.165750014676686
Ga 14.12731537255245 16.239307130486523 11.1312600221833
Ga 14.02856091168931 8.181114584075802 10.654837822297234
Ga 16.045573016597913 9.685094010004184 11.710478514588258
Ga 16.309268577845398 6.926557103432735 11.336956661191094
