39
Energy = -81.56331628 eV
Ga 17.09865797948785 14.333439230736529 1.7269934568757297
Ga 16.065297815796875 18.166367193046984 19.829342927425873
Ga 17.726477508485463 9.387605290095259 14.059100000145728
Ga 23.971148800401682 20.49867269257539 18.233083734931505
Ga 17.643347659776378 16.748326101612754 16.059369363533154
Ga 0.40093143244225105 14.405691711065407 18.355901595331215
Ga 25.123499865722195 16.793474394949264 17.394418692858736
Ga 16.1271013421414 18.861627698377372 14.901164603860648
Ga 11.358455561244595 18.215897632258553 18.029457387738667
Ga 24.48664848127323 18.42203150383849 19.430395045681156
Ga 17.170646496690914 19.38087214026591 12.712579122338736
Ga 18.018776812203484 2.1505478454896387 17.979786205966217
Ga 15.225506946467869 9.369687418888853 14.980295456596512
Ga 14.833967410092532 15.421021103247849 19.99467100501998
Ga 25.0972604260716 16.0927319582468 20.23190273101755
Ga 15.923257854786572 0.5208665878542061 18.041228844138697
Ga 23.334721771363604 22.8816760711195 17.27126930569547
Ga 16.23417791213495 14.76239584906126 24.62065103623779
Ga 19.58319103989839 15.754621499700303 11.96845503839821
Ga 17.728164482869754 16.150816158615978 20.452605922902507
Ga 15.747908752367426 15.153583088499266 22.28654630290414
Ga 20.299196958349523 16.760387098033554 9.584138725288012
Ga 18.862445559353528 14.9259773949645 25.171816793180867
Ga 23.979973559323305 21.19391073947364 15.393317664574218
Ga 18.347005944143287 15.361213307987045 22.803831589982828
Ga 11.868333768136598 23.185196078052538 18.253002138249506
Ga 15.263876102358745 18.034410408877736 17.108391542229896
Ga 14.390688714375976 21.788049873362247 18.444685763453627
Ga 24.603511768874135 18.87152808393449 16.196522983195646
Ga 12.886965145613717 9.3769243974445 15.803909639030163
Ga 18.26501522307461 17.094699552932223 13.646254599748245
Ga 14.087458058513743 24.286143644168238 18.30361143825481
Ga 16.600610902299458 15.888775284350036 18.13531620763262
Ga 13.809323509758011 19.32137606036399 19.170760981025936
Ga 13.434241479463628 16.755422882106114 18.486102219095624
Ga 18.64971392234207 18.20301590188729 11.169646106188331
Ga 12.011795956827035 20.68788394831633 17.852647497097898
Ga 10.360449940972408 9.378600402828251 16.6726544579074
Ga 16.529244428325875 20.33181097631764 18.47413520644894
