37
Energy = -96.27687265 eV
Ga 5.925715675793913 9.382451347018945 7.366677776485329
Ga 5.344765359697111 8.461815595653848 12.333988344570823
Ga 6.05596832443925 8.364553843576543 9.752917082015916
Ga 5.795478113440192 11.67448694060046 8.79161869630441
Ga 6.6938060367576595 10.715520902757573 11.07539642740549
Ga 7.67012870769237 10.997808879054876 6.06848546027072
Ga 7.731554373431602 7.2432154165159774 11.760930008559988
Ga 9.769039144330405 10.485926675701494 14.384767570421523
Ga 10.041940122979748 9.818392370199359 5.900441832887006
Ga 8.184382397346662 12.759041774338119 9.698324244358446
Ga 7.184955070132026 13.489897845323 7.169680384550437
Ga 8.764422914545516 7.2529941040544665 9.29305812729488
Ga 8.664747126574758 12.173194375239483 12.399324415962129
Ga 8.142279471128022 8.085154625160099 6.584705697206511
Ga 9.108239959724298 7.60627228002615 14.289717074339665
Ga 8.411853444543063 10.120967997075214 8.751079538438978
Ga 10.917984866520365 8.744492786433867 8.356729846669849
Ga 9.833118078651246 12.448626807616403 7.437878033218121
Ga 11.238111233264956 11.294731973322728 12.038514369477639
Ga 9.390719262382817 9.428965655414931 11.371152696340806
Ga 11.054003375130694 11.051008623438497 9.475384779260153
Ga 10.656061422762253 13.60131885507497 10.507719684959945
Ga 11.359290724703598 6.2276772057090675 9.522907817919585
Ga 10.424147678607111 6.8340120124226855 11.892053681596028
Ga 12.458220663253446 8.61700747566661 10.701736203751581
Ga 10.392668097729567 6.417316382928091 6.873286992363902
Ga 13.023185588331613 13.423407427124186 12.156877797753637
Ga 11.657575669009171 8.769826098310961 13.257072542095479
Ga 12.327435538176156 11.187495751555335 14.592055586776185
Ga 13.498653070866402 7.110998650139991 8.224722875370716
Ga 13.962343455447748 10.28470733137784 12.624519898647735
Ga 13.794677607655695 11.62878901099309 10.285563915897852
Ga 12.229182553115463 11.065778928173689 6.766503139630434
Ga 12.577419260105211 13.28413878636736 8.298152740804555
Ga 13.80199557109199 9.77427133575539 8.466946208574358
Ga 12.398023991678617 8.360064844211479 6.027476242707621
Ga 7.439305317483849 9.73706835419219 13.42503153363631
