38
Energy = -99.35586836 eV
Ga 6.390984838156146 12.645655605551774 10.901560237726788
Ga 9.407437722890652 10.050040132284224 14.519002668054013
Ga 7.828119146962544 11.324233288133598 12.81770726858635
Ga 9.288180927433775 13.118051982392581 11.322936255383123
Ga 11.501290841094908 14.74294222864658 12.035579867471414
Ga 10.938782747891924 11.81859464505627 13.187496891985331
Ga 13.640042467410007 13.048901021540656 12.57598762300078
Ga 7.865961735126199 13.705979264872063 8.842636196259297
Ga 10.554627310118581 14.140897134419948 9.119087454857233
Ga 10.065159693554582 7.326090068745103 15.073158343547579
Ga 13.2662961163013 14.45637891167431 9.80201317602163
Ga 11.767801689074581 8.930236295932504 13.61578086245739
Ga 13.278415408212997 10.33955216940051 11.973354424583002
Ga 6.7416738812112715 9.195307209724255 11.407064673719063
Ga 7.9946008028819815 7.894573244698892 13.318578720655058
Ga 5.440829599857835 10.51208916332546 9.490356659335264
Ga 8.305047985462918 10.86988086869739 9.650541363720052
Ga 9.780595137006648 9.598144904131864 11.653942344643186
Ga 11.721697180626554 12.13482886134256 10.608600424042379
Ga 10.76871687363461 10.180456043455317 9.241097566428012
Ga 14.51326079063167 11.992195177274716 10.076006200303215
Ga 8.334242797738977 7.099798184743926 10.539677624458013
Ga 12.060575203237587 8.199029031522256 10.771825842721064
Ga 6.718873956984166 11.615838216346106 7.3708714558901045
Ga 9.727723212094794 12.116923306197146 7.422787646063076
Ga 12.53306377851267 12.421416039796926 7.934222681203928
Ga 13.482367198449165 9.804958967250233 8.99518067320024
Ga 6.974085095787272 8.447423991891489 8.551219687667688
Ga 9.68022072259952 7.983266947310548 8.384424935157384
Ga 10.39123669667365 6.74428293773421 12.392401833474846
Ga 8.312234850827574 5.2489691633398845 8.291049775827044
Ga 8.561677984474748 9.809005485518062 6.570810113818335
Ga 11.658532178635236 10.268132895329078 6.687232489298036
Ga 12.452141555103635 7.588439046531557 8.044752256894048
Ga 10.765435673387987 5.9413208615500315 9.820174108667064
Ga 10.61321424462703 8.044271255700224 5.746893219667567
Ga 8.075792284266125 7.00290316809998 6.173782864676133
Ga 10.772205395084917 5.612064558287952 6.985812059144354
