39
Energy = -101.32973835 eV
Ga 12.531568922410857 11.728638553513495 6.734013050610885
Ga 11.283822819876638 9.971232594657446 8.378023785255113
Ga 12.517230800398996 13.81233863884008 8.374151588169292
Ga 9.953507138226923 12.31967996438467 7.891417371177613
Ga 14.016444871463847 9.48852153109401 7.523918909576237
Ga 12.714075922785156 16.35207029874639 9.368547230034466
Ga 8.052137924854458 14.125989017130431 8.186762475910438
Ga 13.632109356005602 11.541165325210946 9.330172167588723
Ga 10.407415285712899 9.036800785083159 10.783381053441078
Ga 10.233212053663454 14.958629897608255 9.618310987931324
Ga 15.705518646101256 9.688059635855183 10.088264316014794
Ga 11.110935876676573 11.931039290197388 10.391957063146393
Ga 13.549333523047457 14.177509324990714 11.016969649149985
Ga 8.500028972135832 10.442231864161801 9.327600879143423
Ga 14.507764752477618 8.105121764483023 12.31802352706437
Ga 8.266951700465272 13.084077326650748 10.606662235946736
Ga 13.033340511632682 10.393582733308694 11.711304112761463
Ga 15.597535581698805 12.40979353821942 10.98371591886091
Ga 12.956432748527613 8.256725502544564 9.774514382050759
Ga 8.997633716976944 10.89715096330742 12.152603876993178
Ga 11.579381683242707 16.306801093557496 11.849838839131083
Ga 10.491930995217574 13.821280296572311 12.058456591433535
Ga 12.538934466936702 14.385509991434564 13.815868352283662
Ga 15.869326593316028 10.451363537385147 12.847555170642488
Ga 15.69701036993213 8.483731654180861 14.794872702951649
Ga 11.93261427348988 7.277377070264703 12.249722766723485
Ga 11.944940878237945 17.04887542951862 14.44488010001294
Ga 10.344497705362835 9.001011789187855 13.775396891436607
Ga 11.44148457830034 11.692996355422537 13.553732951181724
Ga 12.941551045971122 9.152488725152825 14.351857115930569
Ga 9.87636173427997 15.238659143206007 14.254805987869288
Ga 14.14466568785825 12.47873478496019 13.304843001714724
Ga 11.659193972203957 15.185412223154467 16.563386507752575
Ga 8.194419921478312 13.193134091375502 13.456356465793561
Ga 10.1705927785428 12.916446013435886 15.701829985000552
Ga 11.419849206786356 10.420136724708945 16.19833493865285
Ga 8.629265533946288 10.760459802867175 14.937524326138401
Ga 13.051255018653956 12.825916894933538 16.039868050722607
Ga 14.707678915346227 10.841262312937214 15.442511158043425
