39
Energy = -101.44840581 eV
Ga 7.9884372176616 8.976437911844627 3.143106774654194
Ga 8.49167708074537 5.851583188389924 3.164310596869015
Ga 5.625514943705714 7.085240544807973 4.195829392748607
Ga 10.787371687003883 7.462389547274633 4.2140173455411745
Ga 6.39715627252793 9.749343264578783 5.442712402563279
Ga 9.64528886248965 10.00451262195982 5.294675991518058
Ga 8.213677659599163 7.362094850976743 5.356348694725754
Ga 3.746690453361624 8.64421226649579 6.468667649523156
Ga 7.044541989645594 4.751752886800165 5.60685590694678
Ga 10.028735694596266 5.093008400546958 5.712753445553821
Ga 12.332923933769475 9.585696349369059 6.310543092218712
Ga 3.9802111391698234 5.5422782456435735 6.354595082898401
Ga 7.604399890377431 11.703224420128644 7.738639999782291
Ga 6.06448533879026 7.131029096036828 6.9778311033219245
Ga 10.477191767808689 7.68122823286884 7.006568790124816
Ga 12.73006684613509 6.446695561568359 6.255686438706276
Ga 8.21474826407657 9.042231538597388 7.436011882481765
Ga 4.80290487647641 11.622547587590276 6.976684447703864
Ga 8.395968193855687 5.951822521400576 7.790753674247566
Ga 5.7383683605405675 9.433256089372916 8.351921519530729
Ga 10.486333896315061 10.328526369004475 8.417421777742522
Ga 8.789690707994788 3.2672793448875863 7.77402419621371
Ga 5.9076092720232385 4.631318740960939 8.576895755519557
Ga 3.36356073468492 10.139098315654184 9.373999096680302
Ga 11.054608723054558 5.318883344383321 8.533748164093742
Ga 4.120270881949577 7.198277409349107 9.151541120958607
Ga 12.3679862512746 8.032553606300636 9.11222880629841
Ga 9.619002703266641 7.6381315170717645 9.568098582443193
Ga 6.91983794801816 7.189868679478593 9.577660583122638
Ga 5.863230960608441 11.587270716960502 10.166783233558355
Ga 9.153373493727225 12.25145491867002 10.134675234864021
Ga 8.000701979740743 9.759183894212459 9.995998186428196
Ga 8.618584346315773 5.020685289245076 10.557258487139686
Ga 5.480985064198023 8.908632028082918 11.221402422853947
Ga 10.491432202982532 9.614919467083038 11.37444869320691
Ga 11.095078138975781 6.560277101997167 11.546584386365653
Ga 5.62850815801597 5.917494827968026 11.597286728081082
Ga 8.130149601920765 7.776108709611092 12.071977873030232
Ga 7.6050094936388986 10.745765623869412 12.455767470781415
