35
Energy = -90.18999747 eV
Ga 11.102125344226808 12.281211781858033 10.054256192849042
Ga 10.061930310966854 15.346362252718276 14.560014900458418
Ga 10.50893085311779 8.483924897976877 15.509767487867773
Ga 16.292647616251973 11.08447306146979 12.184356455042503
Ga 13.037803396775846 16.019933260948967 11.133384300196496
Ga 10.822413102083447 13.006946002966073 15.592174527275
Ga 11.811671544439228 11.59253707006732 12.76393706978383
Ga 16.336749388812095 13.555033626055197 13.392467537783006
Ga 15.655196800526765 14.90239113993232 11.12946227590552
Ga 12.920993572702788 14.307598466933054 14.140976174348882
Ga 9.817510847379776 10.84185035082248 14.335420454794631
Ga 12.74400502631743 8.353733458259157 16.96930368454295
Ga 15.544021062108765 12.124024502791924 9.770885075508993
Ga 13.393852625173187 13.198833957670917 8.833767017813686
Ga 13.841057402337269 16.907629942724704 15.680478553493264
Ga 14.308742712621015 15.67106679133391 8.792749094767235
Ga 18.021948309760564 13.114554603086429 11.217366143093441
Ga 13.97390854054286 8.831714111661046 14.74158147592137
Ga 11.187348448311077 14.970403140045459 9.21844615453955
Ga 11.88709441713166 15.340496363829136 16.690984158543017
Ga 14.29689996006444 11.88245731109749 14.281390743725563
Ga 11.088135052192872 14.328983519528997 12.06360653416994
Ga 12.144192839924155 16.918350095797088 13.421030224249195
Ga 12.276835140632613 10.787811628646999 15.73910431631366
Ga 13.194340143656436 10.623347163494588 10.006084756767832
Ga 14.067543699873813 9.813021079662944 12.287293314762882
Ga 13.263062697734208 13.048160442375814 16.935912893310405
Ga 16.56494854814738 14.29187857278097 8.64805143801779
Ga 15.303914643068866 14.413210585184846 15.618138881269216
Ga 10.976097218992159 17.732380301597075 15.664095529297901
Ga 9.046864235709096 13.093135587259162 13.295530970277056
Ga 14.933039540594399 16.1658713908282 13.30914536904244
Ga 14.46791559738981 15.357794349810778 17.98824389039695
Ga 13.750193079681036 13.07952641002127 11.707462551145353
Ga 11.6816385574447 8.741569514070687 13.201265307861732
