35
Energy = -90.83066214 eV
Ga 12.330651214475933 8.861783687838425 9.512155179815833
Ga 10.409631418632056 10.419885241765842 8.406647755239035
Ga 15.49130657668964 9.984675056808422 12.662250555645308
Ga 10.709809148983757 10.954802416052477 14.197732928250172
Ga 13.998118001247324 12.248996199107523 12.339622823664687
Ga 13.150203322207025 13.801026455201104 7.587169441229976
Ga 9.10163160557782 8.68218103039613 13.078692690572638
Ga 12.664017598892093 13.457012384287403 14.276895303196401
Ga 11.940912637419691 15.261777323259858 9.3746250372634
Ga 9.878038267745 15.162289911809484 10.915224126625372
Ga 10.579383795309928 15.49840578222819 13.470146335052457
Ga 12.903244162171147 10.873434177974223 7.683946574287069
Ga 11.60712748400601 7.190712010595257 12.0804310075542
Ga 7.9273674186984735 14.045654857698754 12.685038180909926
Ga 12.726941859391905 9.749626970802264 12.366511695526937
Ga 11.720960530251068 12.151759708463022 16.523631870831995
Ga 8.179451275898133 10.056149859003922 10.13443496092002
Ga 14.626064082625891 13.57394595143918 10.10406205788778
Ga 14.081115582271329 7.796680375979373 13.942831691418611
Ga 14.24257964979543 7.76609500567712 11.05151626594608
Ga 10.731681648858094 12.953738031692485 12.280502708748216
Ga 11.322106029310435 15.024606898022792 16.075580015029562
Ga 15.342490580009018 12.184427780631998 7.739433662235067
Ga 14.462294347994819 10.639275752984135 10.116982940479042
Ga 9.473472617549437 13.25831389654714 14.82506937735711
Ga 11.524359469386132 8.530809928833104 14.584717077074139
Ga 12.146447800378215 12.329810219776032 10.027563088430078
Ga 13.617985038341107 10.811955113242727 14.805671608753773
Ga 8.189465365446942 11.27615876985008 12.95375257737258
Ga 8.679827422751321 12.75176720749917 10.319513556506342
Ga 12.969063944690403 14.816094316190512 11.935595165360068
Ga 8.01697648338988 11.70595509683238 7.833799491231795
Ga 10.551416180299762 10.53306483625347 11.329397796499908
Ga 9.823300798501826 8.014262807785697 10.249251862098737
Ga 10.379593901632207 13.152905772637165 8.031162458581182
