34
Energy = -120.5135815 eV
Ga 15.933224542244288 10.75876935483634 8.326995940665615
Ga 13.856748951303098 13.587557488429002 16.141623805748246
Ga 18.283658219184176 12.44441402419418 9.132604083820523
Ga 18.842916594993486 10.174972231206006 11.030210757071437
Ga 15.016508649755377 16.46412081986553 15.950746460511025
Ga 11.959375363180332 14.028721181021796 12.550616752431605
Ga 18.700237652116677 15.524460245702329 12.5107775953367
Ga 11.393721813679578 16.962520160314796 12.013286425237897
Ga 14.385223442937429 17.930529913954715 9.695325968577404
Ga 14.364216389979662 9.524686920155226 17.222988552390657
Ga 12.517397370391791 14.819768551846451 18.587668399091875
Ga 16.372492819154886 16.068049547146284 8.357140820162085
Ga 9.969874506339655 14.316698667529455 15.940207043164513
Ga 15.458499284121366 15.558074296456088 18.827932281633906
Ga 13.431512854958028 13.063749007959341 9.997934295500935
Ga 16.397831396741413 14.238855087376473 10.759436539144245
Ga 9.434606976163153 13.169719399254047 11.18510508591728
Ga 7.638770246140995 16.10401762060426 15.13039765987225
Ga 10.93738696167298 8.032731652912272 15.345624576635421
Ga 17.487334021300985 8.413072798599746 9.153614645942275
Ga 10.20381086599078 10.667063349134539 16.630365684014972
Ga 18.00705613752796 16.170188406635187 15.378916161546792
Ga 15.646227464570284 19.463297084451245 12.769681976200795
Ga 12.586785558350728 10.53513577865589 14.726084267877717
Ga 18.418118296869288 18.4198718356108 13.337969740488264
Ga 15.682517777398429 12.23666214654847 18.255495454721487
Ga 13.376127055191281 15.443044679275019 8.12091321615707
Ga 12.058164998725912 9.787083348524911 19.062608493996603
Ga 10.557146309128424 10.46289758307681 12.040910258028953
Ga 7.97235772219775 13.325963027369857 13.860796880452199
Ga 10.485337053517208 17.171986093886797 14.908401102712727
Ga 13.345325306409846 12.334466370194239 20.235145240699744
Ga 14.408784751577631 16.737338682317194 12.499090086782921
Ga 8.604625904910968 9.470684805683703 13.97512027797338
