35
Energy = -126.0823893 eV
Ga 15.456138341981397 9.503758944307078 16.850899826177965
Ga 15.23387171901398 12.102770109221128 18.39290896215053
Ga 12.176814448541018 9.558054375979646 7.98639895700198
Ga 15.735341995194062 13.20453848517586 15.619717821747965
Ga 11.338614764006213 15.766035191828664 16.308637496115654
Ga 14.240394984769097 10.037818985451338 14.06272426405692
Ga 9.047191572511025 17.014151542449568 14.681595817731736
Ga 10.830833131514323 17.08192581254248 12.261389054478343
Ga 16.25006567373249 15.787629646913834 11.428921753351105
Ga 11.557406626248193 12.424125549755466 8.70278130625274
Ga 13.359910042344733 15.478206342065487 14.021498154849967
Ga 15.012182018254782 10.004524993228928 9.43434876032261
Ga 14.911676647417593 12.694758724601545 11.512973607305604
Ga 11.565656083984297 7.967871166845267 17.409236554417163
Ga 10.412416438283604 10.741487783628768 16.95315031144098
Ga 17.55322233698396 17.07565150636232 13.887428157090843
Ga 9.045159118873991 19.478041081267154 11.545934532539375
Ga 8.535257843618925 11.083563589833185 12.135669371191378
Ga 12.420726730376925 12.255513112107774 15.118575520752263
Ga 15.590818648497525 12.854311591435014 8.523727518969007
Ga 10.623222063667026 13.197144320840687 12.751344438640059
Ga 12.203490824917525 10.406914963046452 10.884855052750588
Ga 15.523947426785192 16.26793013203227 16.017392199799602
Ga 9.363246813425958 15.425005209559874 10.060101859111057
Ga 18.47848051352203 12.30888194036833 9.334905066389027
Ga 19.05794134594627 15.129755753147851 10.48234887692914
Ga 17.36712851231696 10.961516505313325 11.857216712719705
Ga 18.13135786151256 14.099524479369578 13.168187056051966
Ga 7.187630210901707 13.3720710949832 10.620084322579862
Ga 17.83678549479814 11.381033983315767 17.0591288234311
Ga 7.271159048592972 17.602586303516937 10.33028789768749
Ga 9.581746997702703 8.450981749805248 15.174720739519179
Ga 8.770174047559228 11.231415151565862 9.09333335055937
Ga 9.068136514364227 13.999282086330426 15.222285774873354
Ga 12.434750754353294 7.617293123197043 14.519264740215792
