34
Energy = -122.64651503 eV
Ga 14.680121540821752 10.551796691273248 4.997571701329837
Ga 13.714914380920751 13.182538455983268 8.042416688749439
Ga 13.421600208356875 17.125819624083793 11.34635342618619
Ga 11.902656744621776 11.625684112829509 4.404049002147218
Ga 14.867643711583378 15.295792317361725 16.348199004007547
Ga 13.728905546839451 8.852003381620332 7.325058960966228
Ga 11.15293593828758 16.990720389601915 9.538407521245722
Ga 15.302292156020012 14.220720909276414 13.543172265043623
Ga 17.021056724686506 6.578024310024322 12.39618723577349
Ga 16.07771403809406 8.48394363372858 10.283993982011653
Ga 12.361152402269612 8.655515742767616 4.621366985834705
Ga 12.391977975047606 14.396648975019785 10.515589473212566
Ga 10.910848372636305 12.666563313867483 7.088902729328931
Ga 12.161574404685526 10.797589246345613 9.074908958332978
Ga 12.593638951681582 15.321448864008962 14.244069533810782
Ga 16.43224012669871 9.483350749141643 13.159395214223624
Ga 15.560115223172314 12.395718825386727 15.984639286531463
Ga 14.321478204159922 6.105105118229397 11.07237562917893
Ga 8.291870366354098 16.248404189751515 11.077003572882493
Ga 13.39569231390145 10.289734745494664 16.378887120375254
Ga 8.883648592748962 13.280913161015762 10.923356621354602
Ga 13.409822649099034 9.764591876688534 13.348991926309514
Ga 10.576143843816354 12.952271935310778 14.093019795291411
Ga 7.644319933410576 16.888355977530164 13.976165174944178
Ga 10.56620309641529 11.38940477966433 16.695333390838435
Ga 12.846083321038224 6.8318232779790735 13.641704143957032
Ga 10.30032169038449 6.844702327481786 11.814614390805332
Ga 6.135619370532455 14.313534987918585 9.996675362745675
Ga 8.905979423815271 14.789751035632245 15.805992242697988
Ga 10.278915848684015 8.82363768767899 14.973247266548999
Ga 9.564684880155516 9.776290130427585 12.177117726334757
Ga 6.328053327590487 12.554864481157901 12.420570540904915
Ga 6.060102531976944 14.486614699389856 14.764074653865414
Ga 7.879245844264805 7.630659366314549 13.468052907444724
