34
Energy = -87.97174862 eV
Ga 11.0204012531925 8.635555294861232 9.823920334393865
Ga 10.978234915211031 8.973252945191543 7.039691474119418
Ga 11.597679084152043 8.271781423558595 12.300210351320091
Ga 9.599203289341512 10.68579267862785 8.835225057755757
Ga 15.843418611758157 7.630118942938193 12.99639765923269
Ga 11.084757361073168 9.310455591395154 14.670276561883641
Ga 13.397690327047771 9.023802998277509 8.431893200871416
Ga 13.72108283456179 9.30755142640079 13.585593347683826
Ga 13.095488844478568 9.69193643016614 16.374540577686588
Ga 12.024168738518327 11.493755404173449 7.440657047399956
Ga 10.042848001049457 10.616258750289392 11.531111454387538
Ga 15.628459806643427 9.000630905160646 15.449236982927616
Ga 12.447046088093058 11.14869758234549 10.083316007366646
Ga 10.377330128735759 13.258991339600103 8.912803699912331
Ga 14.192693431483 9.05204859092183 10.994818107787433
Ga 12.250180568145124 12.107476790334918 15.556668153604212
Ga 13.215244283146738 13.632195087100065 8.428029380587
Ga 14.883247377722656 11.58995613479699 14.827741581205949
Ga 16.714688456725984 10.308366468096098 12.970533360564126
Ga 13.321914107121804 13.561592516801275 11.089351377202409
Ga 12.282343945803163 11.495970329312692 12.937807263657392
Ga 14.824164885063032 11.641274956388672 11.90815219445285
Ga 8.151502320017977 12.529892400079266 10.618563078566453
Ga 8.970121096262089 15.261410284942924 10.300428783599413
Ga 9.586714563040553 11.339042141035232 14.065163105085091
Ga 10.582001634237482 13.358840581713372 11.786670563166776
Ga 11.71125039129586 15.459137510368388 9.922474327190281
Ga 6.711074981438936 14.647999561074322 11.70830358405627
Ga 8.205559007744132 13.553965585892158 13.582654252024142
Ga 10.552632370371391 17.554995715466436 11.161541555688153
Ga 9.409382605101454 15.82418516845924 12.933972527839641
Ga 13.877418869868208 13.86731751308439 13.814765271489726
Ga 12.132421528086637 15.5942057419385 12.686177864381664
Ga 10.809321271448306 14.014866573279551 14.581320318048684
