37
Energy = -95.64471521 eV
Ga 14.656007771794485 11.599897934208737 10.29415081311041
Ga 14.87016343873764 12.674226806783969 12.862823812885445
Ga 16.4066859372295 10.541809593384636 12.246386887682453
Ga 13.716836865289316 14.21931335715794 10.059937976098341
Ga 12.74246516377393 12.979682770645347 14.840896812592497
Ga 11.771096265723333 10.537639812454705 15.817789176111246
Ga 12.957240508491147 14.502057152914078 12.617879755197146
Ga 12.414358267255299 11.996987730067614 8.868053609695961
Ga 10.379439792611668 14.434878145346838 12.529318768578301
Ga 14.16727996506149 9.092015643540273 11.727417091064504
Ga 11.393084869646728 9.370830733690116 12.972294918052189
Ga 9.532407764359428 7.341348503847783 13.808346663170457
Ga 13.589590239831567 9.441025215369004 9.063538085314814
Ga 12.218000384737614 11.935880244755475 11.878265657382883
Ga 12.293585485403751 7.297172730485667 11.341316724316586
Ga 11.0064618880458 14.33348038969838 9.736564734677815
Ga 10.187308655321008 12.54411793897255 14.41435910955095
Ga 9.49071727191645 12.11583186071891 8.949661448968753
Ga 11.026057582699446 9.843885690996164 10.229293529595063
Ga 9.460870598907881 9.911247212943803 14.746773736365862
Ga 8.317750422624687 14.123247828100169 10.387444994995839
Ga 7.682762227667725 14.291145529522 13.101940700881315
Ga 11.385334414221063 10.04804324818764 7.356277444742361
Ga 9.598973714783426 11.753545636584748 11.7355223612034
Ga 11.76495444491574 7.568243912626615 8.694662523025702
Ga 9.829218852370968 10.17023550921449 5.083714243228978
Ga 10.561932286039147 7.723507655061208 6.340162343779077
Ga 8.01053184398664 9.937744909491629 9.963762452059752
Ga 7.61660868219231 11.704048827815015 13.82145387557934
Ga 6.8312900627865805 11.9146333393578 11.201991754605185
Ga 9.524559785686511 7.597282848845656 11.111602948627224
Ga 7.754564007280404 9.266435067207775 12.571821498563121
Ga 10.763541034131075 12.696955015632307 6.576260510844784
Ga 8.303812979236296 10.454912773170358 7.319621936563951
Ga 7.7664150797991125 8.218541282780217 5.883526072832621
Ga 8.894836653076293 7.898006005406765 8.46693668631091
Ga 13.656070547742615 10.462956898392314 13.921044097122842
