36
Energy = -93.08033267 eV
Ga 9.291553293520883 12.860132117378136 15.624946242711534
Ga 7.881062456291977 13.317983694238544 12.398591585130825
Ga 8.992019617716482 11.328987907738345 11.0814049439434
Ga 8.766950676937963 8.53674825850367 10.307655212074087
Ga 11.370507085970583 8.235752827818377 9.289762315169357
Ga 8.662439452419404 15.207638189139708 14.28282146148777
Ga 13.33433892757314 16.67089987044079 12.557048013983927
Ga 16.181307896557055 7.848676034466945 11.602793934372771
Ga 12.54218903813426 15.015254900810355 10.570362309361181
Ga 14.359422427143961 12.702699952292994 11.072810363528177
Ga 10.779092286202959 10.904003033009449 14.970630237772417
Ga 6.654890736749256 13.294544271824147 14.911596096214149
Ga 12.062785135142478 10.041646516655641 11.359720113364812
Ga 14.981841520044293 9.61478511015488 13.256813877157061
Ga 13.326779372239965 11.623174175340921 13.436134879514423
Ga 8.72787928694359 12.953985283160556 8.64741794079118
Ga 15.16314814879549 10.256325788232383 10.585520990996194
Ga 11.07570288198594 14.602849312860188 8.47479030209293
Ga 15.261871748022713 15.224705273257827 11.376057764588683
Ga 11.007272705344977 15.487617683005954 12.965485105466813
Ga 11.583731477228076 9.555477966251548 6.732114708771357
Ga 11.672163532546959 13.882145858014928 15.118503447853291
Ga 11.647547219796008 12.268816653509088 7.223275874095473
Ga 10.811725815095224 12.59873426447296 12.787855897485484
Ga 13.604324214910982 7.087969928227822 12.919456975517532
Ga 12.257553418779846 9.132320111558508 13.937370057127682
Ga 13.887876875027187 8.300331490613239 7.706852600220284
Ga 13.749359715818043 7.825943654264067 10.361039922746489
Ga 10.090231345454226 10.60057817577998 8.790741299352964
Ga 13.217388124818385 10.658483288099838 8.887021655024782
Ga 7.939275347660984 10.981616456691215 13.941184085659785
Ga 13.662360615618338 14.173398186043903 13.47265817739596
Ga 11.063806993052728 7.344652365767476 11.859547629326231
Ga 11.636243076835642 12.465458072030755 10.211030028548318
Ga 9.634008872270208 9.350689567541478 12.876396380664021
Ga 9.659682607060946 14.493762573702815 10.85264630457121
