33
Energy = -118.00471236 eV
Ga 7.756200262423412 10.60670799912766 16.069117076195898
Ga 13.289180006885646 8.29744277784533 12.724580462512549
Ga 12.051541637872164 15.930359433316077 15.218545802190722
Ga 20.10362298544952 13.943919543341615 12.573118416131564
Ga 12.909936237849866 11.228651629886874 19.26774798466062
Ga 12.839530603008015 17.167328666527823 11.391845209244533
Ga 9.95841170477702 13.340612303044255 12.757534995110385
Ga 13.298524551796444 18.800666035848902 14.754479597676232
Ga 16.884612478950228 12.742485163701469 8.110765920386198
Ga 14.651914317672812 13.96005011229011 15.09383868426594
Ga 15.024457409365057 13.06503615033524 18.178824971046016
Ga 12.831779470275897 12.327413976463735 13.083999842063774
Ga 12.707779004928906 14.221999701091844 19.722602708665846
Ga 8.476759963356262 13.24890570661399 17.376537540591528
Ga 16.70466904624209 15.542959420258397 9.271363726961518
Ga 15.500523775184517 17.127602257276553 15.832376424254269
Ga 10.015771283782824 8.950003076944213 14.855053890006223
Ga 11.511194806724765 13.011116167240141 17.20703409845935
Ga 8.978688041950923 15.07533728079587 15.026847753710262
Ga 10.882015938563857 15.484149616254191 9.832397881209344
Ga 10.764824111958367 18.492452877599394 9.595358090712844
Ga 14.311353382624338 13.32012727307994 9.545069191479275
Ga 17.29076281248234 12.755399565903241 13.000593095007625
Ga 16.02831228095787 15.41859390599708 12.336753437597928
Ga 18.78744233049951 16.56359339344528 13.321635194491229
Ga 13.050543688117052 17.6049932221855 17.534531043885426
Ga 14.700079195925658 6.016625004351766 14.152654439281726
Ga 16.31099595833396 8.000828505251663 12.988177934192011
Ga 19.574642363518226 16.0051872171705 10.467549968909141
Ga 16.138767818796474 11.172341734315706 10.635597088062177
Ga 13.07290167292676 17.013101224350606 8.351950708834213
Ga 8.347495985732994 10.774112095830716 13.115652130400466
Ga 12.816138508006713 10.102395636607623 15.142575424384692
