38
Energy = -98.55533755 eV
Ga 19.32437610762182 16.308498971179073 18.065292466658548
Ga 12.211445969220023 16.230748181541234 14.427858959161332
Ga 16.330913455683525 18.822700683547346 16.771657829830538
Ga 12.528771912814602 13.515541879139873 14.572776544278597
Ga 12.19806433092164 16.707003263385154 11.701187809337751
Ga 17.230560604897885 12.620752838823474 17.026194710237526
Ga -2.2351471977206536 15.195512189995105 13.000907826019663
Ga 15.179047519644113 12.53082197435136 12.75834837827177
Ga 17.957863602635072 12.982533754532161 13.99335406341259
Ga 16.51152082923317 19.181330999050974 13.903588462048749
Ga -4.952096168940894 14.680487642267984 12.242254349702522
Ga 13.104422898493505 15.08313020940015 16.720336364025687
Ga 14.947814063928258 13.975244626392298 18.563945380253674
Ga 13.111488261294284 18.681660309975328 13.25560133112638
Ga 17.74021967296977 17.290118946368718 11.514128511136663
Ga 15.352972932984706 14.197076274309858 15.056613995891647
Ga 14.731553405090613 17.00135190082122 15.276258183612555
Ga 17.96604872453428 14.005381233225283 19.01425315702406
Ga -2.5194542884157185 18.262089661527657 13.65250731158973
Ga 16.16570080888945 11.350283503624471 15.15173307728601
Ga 14.096593344512678 12.368149680931872 16.805850791059108
Ga 18.8409039893203 18.123156382937434 16.264559050293997
Ga 15.215400010356895 17.21627784944644 12.430273165885087
Ga 17.182441859099352 16.353395976368486 14.413026112196398
Ga 13.346128763447656 11.010451535845519 14.602774629999493
Ga 14.291688082795243 17.01392400152177 18.173672609214773
Ga 15.287877487516935 9.858970559096488 12.997129824844887
Ga -2.714621714533252 14.861161966613786 15.848571043478852
Ga 18.538376181572417 15.90061391585056 -0.8395888461342057
Ga 13.891215323964788 14.827112108200522 12.484862738868049
Ga 12.309015911177715 17.97083671978345 16.586783157796724
Ga 15.050778787895327 18.456371950499413 -1.36897020060697
Ga 14.076640616953677 20.047815662739872 17.83323945720723
Ga 17.469846169911065 17.916557669148865 -2.5595354857908603
Ga 16.603557428766237 15.8221981182138 17.19334197680557
Ga 16.398512630951924 20.56476000449216 -2.459913681671718
Ga 15.791947418706336 15.807924038819076 20.135828042940034
Ga 14.156992889833287 19.85988911523491 15.23646756075352
