39
Energy = -100.91379382 eV
Ga 11.371404742586893 8.874885020044392 9.106877823964185
Ga 16.233760429116394 10.279943429352402 9.045160388780946
Ga 13.355090500410764 11.05759140460337 8.947559604737492
Ga 12.85933785048949 14.184445378142062 9.19131509435264
Ga 10.006209485501177 14.139132765808718 8.501512302763286
Ga 12.012804124437666 12.809382374601515 6.9701202827909725
Ga 15.277112802932718 12.919877662217036 8.975753278569915
Ga 14.082218999000968 8.232544875380299 9.327521365892581
Ga 8.054913081980255 12.387545340004165 10.184316346649222
Ga 9.2917243256776 9.839119339538474 10.594575256896734
Ga 10.426540855794995 13.874234381292554 11.084266144880633
Ga 14.917219423834766 10.036653828096004 11.49377804568263
Ga 13.69573456531197 12.614442757030499 11.248592913764622
Ga 12.698526223878122 15.159393186662077 11.943106016169645
Ga 11.214645812403825 16.342745413314066 9.785483195007286
Ga 10.778211459995799 11.651711022635668 9.396214524561746
Ga 15.260313046915158 15.192610749147834 10.551879095018881
Ga 16.570191046115177 12.201968564353457 11.463157325271338
Ga 8.92728990986747 12.457341055490364 12.830047019067669
Ga 12.118633214955722 10.2232414883868 11.420693788610365
Ga 7.418431194843484 10.25890936078716 12.397098666996618
Ga 13.994241711698916 16.041654271395796 14.174170752802745
Ga 15.387748385037051 14.03406600177723 13.017223213363827
Ga 13.378549463204992 7.793109618049313 11.918363370322606
Ga 10.671751363190717 7.778534661257204 11.812969310784656
Ga 12.427912497055893 13.836377295987768 14.90151380553561
Ga 11.795359337208861 12.263169714543208 12.997358962560732
Ga 10.393101410212516 14.993207286863969 13.502281086462112
Ga 14.704886675386927 11.490977345190318 13.694672844597914
Ga 13.160529843596288 11.330072452160474 15.84300177586221
Ga 12.797305897395571 9.183760999247035 14.086365292536764
Ga 10.145315469295959 9.957718193595827 13.489694850838271
Ga 11.642409464294118 16.553327033139386 15.5633066708191
Ga 10.0829958642909 12.080294339419456 15.219887086462665
Ga 15.044449512307326 13.590005972130959 15.767861662399127
Ga 9.769045823320663 14.69198780232587 16.209760985017784
Ga 13.168462113624576 15.015417678255083 17.31182646393464
Ga 11.016495898928254 9.518971870984732 16.23774228892131
Ga 11.491481890596903 12.751983783484109 17.43532681304531
