35
Energy = -89.25739891 eV
Ga 5.5976236071230705 13.869269336035734 11.54197791179232
Ga 9.295926782304914 12.031851332165592 12.505591509022443
Ga 10.26103243523992 14.624977920934057 12.93994580156109
Ga 10.279360403228809 13.775262386561414 10.190769061652974
Ga 8.135190757330381 14.956532993015342 11.221615281345876
Ga 15.657958886140538 13.620048683609259 11.700404130223742
Ga 15.858881347329515 13.184478791037378 14.749019329498577
Ga 7.596448922884964 12.28044590951661 10.506256138362819
Ga 16.32222363460519 9.35502864721726 10.79852272138082
Ga 14.485992037756919 16.176817976839253 11.131829283941661
Ga 14.054273897502469 8.598312034290627 9.709154863394872
Ga 12.677844326046403 13.988137316024623 11.645759035363081
Ga 17.900875943403317 8.94322444663786 12.854381736389923
Ga 11.153789117057883 12.010653724061719 14.379089573418502
Ga 14.888272168000071 6.979862469954004 11.865209913068034
Ga 16.257885234844334 11.23168309137496 12.785233033592165
Ga 13.6710278551117 9.605005461379914 12.264293296937277
Ga 7.537610730738098 14.225475276971423 13.712546805888474
Ga 14.688909600946488 11.453511909464456 10.23208214242696
Ga 12.481489847852844 12.665710854334796 9.005880080963957
Ga 9.349447328595337 13.735474614413603 15.511557660391173
Ga 6.667122582812718 11.68038277325479 13.16877767875125
Ga 12.004171654979203 10.036065052437191 9.275700384509657
Ga 14.28055033317059 15.169097674404755 16.36121261782526
Ga 11.936702833834302 15.113431381741995 14.854090685047149
Ga 14.885993462916067 10.674801154406785 15.36576376113573
Ga 11.735315141814448 11.335002041250554 11.629080314212624
Ga 15.419351024716097 8.575185741773204 13.925567388954256
Ga 8.487620002960849 11.169888842927515 15.04929528310465
Ga 14.354327049399329 15.109785482225881 13.56971024419936
Ga 13.174938297821027 12.684960658315093 15.864555672306482
Ga 14.836897572555678 14.046365277044796 9.154553609736679
Ga 13.678539662136426 12.11554200266957 13.231971263597432
Ga 12.329196342322842 15.522657215605854 9.327318604074401
Ga 9.668047956259292 11.02409205033505 9.549632697669086
