38
Energy = -97.83354006 eV
Ga 16.12308224815338 11.095289214415967 17.205413946980936
Ga 12.898935197822828 12.817039553813817 15.467279199609148
Ga 17.364193565893224 13.244311675702106 18.22399479779682
Ga 11.314211673868183 15.057373397157109 14.665127131023034
Ga 12.527257235006124 10.199705297891109 14.45551518559445
Ga 19.60305052428655 15.390183158137718 11.554513148398215
Ga 13.357571507305597 16.978587191049574 14.852225086657135
Ga 17.80702829654631 12.024949851374721 15.268903143466584
Ga 13.809687465758959 17.46680943184971 17.707177704730686
Ga 14.199834119296867 20.085218435168347 18.32820863193489
Ga 16.83042818204369 15.017481103921634 11.721344306057501
Ga 15.98625037732748 16.435845664967154 13.947426204459173
Ga 18.273697994184047 17.588537470812895 16.16394815190763
Ga 11.228858443058655 17.256000131608094 16.574595829736325
Ga 13.919410196160163 14.678794108097312 13.606094585425195
Ga 15.042444682415956 18.919601280529694 15.28492537322161
Ga 18.080506619391212 15.853554943989941 18.488096200223975
Ga 13.323470071964682 -3.8165346573750356 -1.8037663886711304
Ga 15.974182421775337 12.961303476950865 13.018548734153146
Ga 13.987522166248954 12.808455533016934 -3.8825441789669863
Ga 16.47622360135217 18.989775052113252 17.45641836999985
Ga 13.436407585751722 10.472260617414507 17.06821344867286
Ga 15.146956065470228 11.03912269808494 14.595097739663972
Ga 18.8997180632676 16.481144553717847 13.91137855883946
Ga 18.137092045662573 20.015625777924164 11.610593706661723
Ga 17.10145129189403 17.50250533860502 11.547983024600992
Ga 15.880170206238489 17.330591736343145 19.8409665598118
Ga 18.71775630095385 13.694127884148411 13.452722823402594
Ga 19.906105228336294 17.94834129822294 11.89009806322228
Ga 18.654778523574997 18.319211302729403 -2.931513488308203
Ga 18.147826047913696 14.751977216359734 15.981861710698201
Ga 12.810008468499463 14.98089811940969 17.075786510645553
Ga 16.587436316634243 19.93907860805397 -2.0246916105257737
Ga 13.31139634838847 12.21324645503388 12.656750954205906
Ga 15.510148618171884 13.712276583392248 15.833082816840177
Ga 17.386247343216343 19.080794373598163 13.997723303812426
Ga 15.100136029734424 15.01444226623104 18.87470898436505
Ga 15.869120455293343 16.26406956329905 16.592628320266535
