34
Energy = -86.62367567 eV
Ga 13.641359772418843 13.308022313257963 18.134705168087066
Ga 14.02749910804128 10.919153489916688 14.22931424099745
Ga 13.752793430592803 9.078213731537677 12.03767035291965
Ga 10.272733337775124 14.564567111321498 14.932172288667612
Ga 16.22358758613965 12.862159869599836 13.37179559340179
Ga 12.391485899229297 12.536403818399675 15.514675533371873
Ga 14.442115973619904 11.832754982632782 11.360757886539503
Ga 12.846219347308036 13.59359485164459 10.197167293273838
Ga 15.018144169204138 14.176324522154474 15.196637047640442
Ga 9.99471087630061 17.177183569103903 10.437964673588501
Ga 10.220057310076635 14.50561084549582 9.969273551514675
Ga 12.471265344058482 11.99376427849644 8.035207507911519
Ga 15.226206281194372 14.857737461533697 11.385410938926974
Ga 13.344193330277141 9.944048935236461 9.570995568247305
Ga 16.58853229109599 10.094125726929946 15.29112259520364
Ga 12.499396588397692 15.89755201261544 11.342505043998642
Ga 10.423588072346718 11.903660622951348 9.941014376879982
Ga 10.740918588653704 9.758507589898958 8.189350803226151
Ga 12.503680508301173 16.01861670759229 14.06944271749173
Ga 15.022303652822082 12.452430309018657 8.79793973429872
Ga 14.90880710309324 8.210646640763915 14.316370490627738
Ga 15.024800042451812 11.757097639873814 16.542324422974758
Ga 10.787162642721487 13.352371161447808 12.373771377193124
Ga 11.661686837524977 18.08035391178243 12.598808536692115
Ga 11.019795788178074 9.179703775622475 10.794738056128962
Ga 13.161374861515114 15.368916751933519 16.48676482196393
Ga 11.909343769007682 11.064932822354049 12.545561132067933
Ga 13.34103361651611 13.50353738133391 13.085408524355081
Ga 10.770552620512575 16.589185585372984 16.731697270142956
Ga 16.422699072730218 10.26856970581566 12.578478204501392
Ga 10.707790000339308 13.44316984360331 17.207509046051435
Ga 9.645457410662273 15.731820726651987 12.681436356200207
Ga 16.060275726846342 10.146460480828688 9.87457210326438
Ga 11.89376958382115 15.177162929688672 18.943116417836436
