36
Energy = -93.6843269 eV
Ga 11.791758199906823 10.286848473045291 5.997093172035814
Ga 12.124490632062562 12.379046129551222 7.642763143191708
Ga 9.529082175339793 11.085503234666808 7.444980985901883
Ga 7.227623172095807 11.663637778281858 9.152565891563363
Ga 13.694907387214103 10.042878437579727 8.204485770120847
Ga 14.267846425541887 12.483869680895905 9.50259746490546
Ga 9.821449630152376 12.795056447285505 9.493919381463117
Ga 14.954632888575416 14.864347863918631 10.80096105185079
Ga 11.122487804438432 8.944441609101961 8.350120810735488
Ga 11.843671360522007 11.038020461450873 10.269398600755848
Ga 9.301663166155905 9.92398348431223 10.054709564976655
Ga 12.14897435871343 14.225527643641742 9.50320677046821
Ga 14.393874666374366 10.283773074316922 11.35017496615322
Ga 7.939176043348227 12.883353309841246 11.69764039247818
Ga 16.087566018811394 12.349746364920431 11.698524206069202
Ga 9.750724322352587 8.684279516880178 12.509981652089591
Ga 10.352377574256266 7.097627252582779 10.192390751094742
Ga 10.18807559857354 11.44068674126447 12.412323327204408
Ga 12.984067105327268 8.357443954293974 10.297651628712202
Ga 12.161003448181928 7.193377790203656 12.486932520868548
Ga 10.232996837594516 14.14878932432021 11.744498441323426
Ga 7.479396311559823 10.156088940895083 11.888212867516788
Ga 12.978029704120742 12.900601364726631 11.989206173549189
Ga 14.50278540199392 11.332509042005142 13.977689426041223
Ga 12.315932767110954 15.816681666393457 11.587395748339581
Ga 14.853113047734729 13.956814450028704 13.631929495343073
Ga 9.438632431368218 13.373386455757725 14.362564330535701
Ga 12.23539877649417 9.834154132540524 12.899214832335073
Ga 10.022337725637193 16.17102512705407 13.540990194116757
Ga 10.244078248616617 10.003710696501475 15.059283688645554
Ga 11.292135278535936 7.479146377191761 15.002266429486578
Ga 12.153655315275707 14.50478143580057 14.097048760690804
Ga 11.943352661473257 12.009643821824048 14.830685485496632
Ga 7.856479792494428 11.054795758108725 14.477411220999835
Ga 14.326036797532502 16.54467685051044 13.277831378845438
Ga 13.240224132718462 9.489782516512236 15.371386682301232
