32
Energy = -115.00219866 eV
Ga 8.031125898839365 13.865692548563832 12.123480666173828
Ga 17.291582173221155 15.015042372360435 14.343545119405773
Ga 14.509341745464893 16.006861382884452 12.840740486811189
Ga 13.316922414997359 10.89560338395939 18.282069176141054
Ga 9.835599383321155 16.281429522089585 11.809225433160758
Ga 14.359148549289708 14.137381782331731 10.28017916898617
Ga 8.675746513238163 10.57339050234946 10.779499690205107
Ga 14.437414974220266 12.917246558208744 13.803256297782418
Ga 11.027987468044095 9.931181529709729 12.596458440081586
Ga 11.299108058366505 6.904134265762485 8.720025104761381
Ga 11.128773526146707 6.899264724442145 11.827924359358237
Ga 12.969826486098993 14.542678635752813 16.89195726015748
Ga 15.039816527685756 9.52038194514471 16.212226950561643
Ga 16.184567225550975 12.892719781176044 16.214619361308447
Ga 11.499709271422352 17.034662671609176 15.85551495345677
Ga 9.435327538121259 14.84871536570179 15.109016563975022
Ga 9.855054999351355 11.300493585151019 8.123508626913017
Ga 13.333305182195616 9.231079437598652 10.83580807097338
Ga 15.334779725824296 16.260933294905225 8.28421899459924
Ga 11.46706852987906 12.537696653773612 15.005867363684377
Ga 18.17015509661479 13.605527509210368 11.802720009173713
Ga 12.370250696500856 9.666840510965374 8.020664637148894
Ga 12.039279730095826 9.044610100548143 16.258522375734398
Ga 11.018422691005977 13.487713544652314 11.822903915975509
Ga 13.222854507249721 17.57508758741983 9.939885093822497
Ga 10.649576502410007 16.405860818725156 8.815769136984382
Ga 10.281542892365788 15.559754574036777 18.10030961807413
Ga 13.764200870608752 7.8933228149845895 18.461708430487203
Ga 15.875331808496806 11.63543418238202 11.361304635687791
Ga 16.922129513616806 16.32050496771293 10.938581037410323
Ga 8.712719195210562 7.4725427398595 10.089334847623766
Ga 11.807146241859165 13.644454645902611 8.436625852895592
