33
Energy = -83.82010607 eV
Ga 14.573274804991813 10.597136117167114 10.185867176630845
Ga 8.420369247077982 13.026422010845364 15.199352991204984
Ga 13.181504060478698 14.092038607471155 13.372102718738196
Ga 10.387171653795013 7.925638726981939 10.436310066634634
Ga 14.602010599009283 16.159624959758265 14.864422859007208
Ga 16.262576069789457 14.821167363670796 10.163934789442463
Ga 15.52276638743545 12.426805882431106 12.951815588315554
Ga 13.909266053828153 15.896460636199649 17.592851306147946
Ga 13.150547992255321 11.061816785914393 12.73879995306154
Ga 16.915156188383637 14.31243065741474 14.568255425753396
Ga 6.656962746876705 12.830908603013958 11.223197669098456
Ga 12.216816053882193 11.924388111644882 9.739314181552643
Ga 8.650665813372747 14.284262837200508 12.240983885112355
Ga 10.66317563215615 12.00642816419514 13.93369747052367
Ga 10.484918334666698 10.415412608874279 11.834815517647957
Ga 9.038485843551294 12.188445529838562 10.195844076127502
Ga 14.742056113696458 13.351494825659495 15.778575477759846
Ga 14.0085901418124 13.539653422558324 10.762444418691585
Ga 10.666020262060567 12.968093946361316 16.61804666845009
Ga 17.894048301857104 13.814639008119988 12.286948650645265
Ga 10.384480987426276 10.246705012044423 9.03666563824987
Ga 12.859049578707303 9.416273071788535 8.297143632809227
Ga 11.221562184548295 13.487362783998648 11.631149384213384
Ga 13.065644790185587 13.129802776740137 17.955321094159828
Ga 15.363041375963508 15.550381068536186 12.457385697536722
Ga 8.209679913826806 11.483876426468113 13.071894700629992
Ga 18.608448870695344 13.521123764837068 9.717245073199571
Ga 16.436733303629975 15.002350043619497 17.068087306322273
Ga 16.63032394629816 11.969844230702426 10.410409227347484
Ga 12.885569139341941 11.663953425863387 15.295305681640242
Ga 12.705450345575928 8.975421883047247 11.107612368977685
Ga 12.290790154724169 14.985132620411907 15.697526645850504
Ga 10.296780533401042 14.794987964133485 14.121927082025028
