34
Energy = -87.75858148 eV
Ga 15.55164209947522 9.4650171648875 11.496203796184348
Ga 16.05782614458262 13.492513128626568 9.532033274723954
Ga 14.40410836805401 11.352662087344884 9.6997753339054
Ga 16.390762131282067 12.002256963531371 11.714478374048563
Ga 14.581056681599696 11.908500995736809 13.784427205026583
Ga 13.242678463988655 8.49944853157616 10.138570347873781
Ga 14.082110607779978 13.5524691041934 11.66244740144714
Ga 14.055466638257823 9.129817302285856 13.610290118321709
Ga 12.062126466932021 13.069765774369799 9.81124979515696
Ga 11.903039852701301 13.438711763395254 13.065003210567363
Ga 12.684025844980063 10.817691931736398 11.848390540407703
Ga 11.762508981098552 15.559357967662116 11.322564273553128
Ga 14.032344339764276 15.129816183203742 9.510384527091725
Ga 10.10470809913791 12.013360969644372 7.750623997409711
Ga 10.873823486282872 8.746341821255895 11.542654681858483
Ga 12.251042933364364 10.509057051316313 8.546880116114417
Ga 10.26860024916618 8.688068231886275 8.86141090790513
Ga 12.139087994048431 11.460426071013043 14.817662299124661
Ga 9.872935710835911 10.471489754832113 15.63927222112337
Ga 12.751429463297814 12.779751604487238 7.015588867061782
Ga 7.774839225295488 10.236942669516102 8.765822453408367
Ga 9.847496763224576 7.529003798201835 15.895979762699985
Ga 11.62272387447943 8.720631566645798 14.282864192736731
Ga 9.859160585862304 14.791559460398501 9.055987499390703
Ga 10.062027038000227 11.109118134627249 10.320849674238632
Ga 8.036880837671045 9.450939305392241 11.358582449936273
Ga 7.87781502719485 13.022712376372965 9.16310887724362
Ga 12.072620399702267 15.34189111503801 7.879116259347303
Ga 10.02704740568337 11.186052536669175 12.960023478592404
Ga 7.533979332938863 10.861053612013704 13.93840391796724
Ga 7.539445135923358 9.002499030851835 15.838102732692159
Ga 9.745737867973709 13.595980484300176 11.511970575678767
Ga 8.941733986456635 8.257714398612913 13.461703254062932
Ga 7.503430833256896 12.218916064538602 11.671528138838958
