33
Energy = -84.74819723 eV
Ga 11.786450001952865 10.47484016992095 6.444363030685157
Ga 11.253145021880758 9.153869831467722 8.72369924164774
Ga 13.71367746998305 12.012891541991523 7.462556287965366
Ga 11.056669361045142 11.949482479077801 8.687297072862863
Ga 14.788606478603318 8.683174659468774 10.767456250909149
Ga 13.930948969306026 9.461996410323401 8.377569824056543
Ga 12.145161940454072 8.37049896883152 11.082825839123629
Ga 13.289305376640108 13.455021245407133 9.551327483413186
Ga 12.729263244015646 11.027359100641805 10.64898499699067
Ga 15.39310800316549 11.36834341639187 9.942830637806281
Ga 15.077764776517556 13.25807787336142 11.783609035177436
Ga 9.873872219771126 10.423934999045972 10.81344403756555
Ga 10.321471888859008 16.021773181679528 11.875994159034375
Ga 13.017003342746635 15.223717052359897 11.383769535044461
Ga 14.648630255721617 15.282408345339 13.475503046484988
Ga 14.168531269751417 16.031849770804296 16.129580278178242
Ga 14.434035463637969 10.584710205657462 12.731333954173724
Ga 12.485982844041036 17.33286662011365 12.949459859943651
Ga 10.642510495168496 13.625478322441763 10.807674577224931
Ga 11.627159870898074 10.006242464906306 13.165410282416747
Ga 11.806097555796725 15.233760191716204 14.4378986223977
Ga 9.739557618170194 12.136123386526766 12.942348934684434
Ga 15.77312661092727 12.283064441934302 14.256245466353139
Ga 12.544699837718666 12.909147630602636 13.002866073497618
Ga 13.768817141030093 13.33122423118473 15.627057220220781
Ga 13.227438071841823 10.800083534559926 15.184139450697392
Ga 10.294668278130409 10.197471045649104 15.483937344563449
Ga 9.567248583887544 15.164262662929813 16.448799288307118
Ga 9.205016357059877 14.486420740766741 13.87805659184255
Ga 16.426276765043355 14.547232777709356 15.537872882543768
Ga 10.91601793348438 12.779534589962237 15.321306576541419
Ga 12.05622899890862 11.633601839252082 17.548002262325717
Ga 12.038922341779445 14.496950655911471 17.27419424325839
