38
Energy = -98.93448233 eV
Ga 8.016274883940618 7.436084393360364 2.9751861517965605
Ga 9.429058098396206 5.203756194267861 4.561387922383753
Ga 10.467046750005201 8.065247698517375 4.352781877023573
Ga 6.420538708026836 5.581304481723753 4.623122242896548
Ga 8.280544206440963 10.037501388970806 4.401870780248137
Ga 5.917815471136847 8.551179225121524 4.41661080959253
Ga 8.181347210869172 7.528451438769014 5.718018599414871
Ga 11.667543392924626 10.449866641547912 5.198926200573858
Ga 5.744326743049494 11.38017653578988 4.659766133983611
Ga 3.7621673691257755 6.6365264753740645 5.110286256506961
Ga 10.48036659360468 6.514410610123447 6.89829455606751
Ga 7.917168369598768 5.109033523638273 7.012259221431303
Ga 12.300340943086 8.826870277543225 7.487610030466551
Ga 9.63831463189037 9.51022211438925 6.840728919974926
Ga 5.8469904486760305 7.278389011182554 6.876750651812138
Ga 6.691387740429733 10.27438978186978 6.928550746997881
Ga 5.0294010719145605 4.559410929938169 7.299410662289027
Ga 8.786411201845103 12.147540927164927 6.494855122462545
Ga 4.100310278662712 9.447599201057056 6.441543715610516
Ga 7.860924571958331 8.178714204193287 8.385296539772344
Ga 3.3125479893596506 6.935214089967891 7.828525338948308
Ga 10.809593719214075 11.021369726849128 8.931670675157715
Ga 5.322883653215878 9.212602621806694 9.121354096769132
Ga 8.007669888927543 11.003842026205183 9.108610625103163
Ga 6.375881427671195 6.215024641974215 9.26279303065557
Ga 12.063361140007803 6.012737103323509 9.134146458513143
Ga 10.277988296208955 8.22030909231056 9.189955214540285
Ga 7.5527365431389155 3.428733957047279 9.148410653783595
Ga 9.203092442999353 5.672365327787229 9.596888941314864
Ga 12.377655351683694 9.12735972278547 10.598044426447153
Ga 3.7693834785489213 6.36462736012337 10.329109645951075
Ga 8.040598703938898 7.859903335992373 11.202551138783505
Ga 6.749310048775933 10.33131086509217 11.434772693978003
Ga 5.45109961586802 7.755125360029276 11.741102650959238
Ga 9.636306721423416 10.004149314875965 11.337012258824654
Ga 10.563511642421656 7.008381179261107 11.640168525534564
Ga 7.129743981417372 5.24352480068564 11.70172851419619
Ga 4.934694273519907 3.9830820232638167 10.126235573158072
