33
Energy = -85.17247733 eV
Ga 11.39739432784458 9.629304106639154 14.225333584524362
Ga 10.660432041933165 12.198070692714866 14.531449031094725
Ga 11.604878963036857 6.852972044681116 13.511279686570473
Ga 13.84992470132599 8.511316886938358 13.888710335950481
Ga 13.421645973076027 11.34080196011976 14.249548278920576
Ga 12.799637817048975 13.9151681368794 14.14117856372569
Ga 8.934058455687904 8.396775780750506 10.776930661069695
Ga 9.648704221323614 10.742921422026603 12.354784382633037
Ga 11.86912770898923 8.704093873282936 11.462375219734483
Ga 9.22887899806845 8.123473460337856 13.369639797256946
Ga 14.472354211134979 10.08193429788722 11.842618559576843
Ga 12.167690842867986 12.122501211119772 11.830356296848668
Ga 14.16316783602652 14.68418627216464 11.870690971831028
Ga 15.503018486295206 12.583334623531684 12.990848481236736
Ga 10.203440979855008 14.487040783189306 12.944764464850753
Ga 12.251413534665373 16.338572439964786 12.921219330844256
Ga 8.663148414028287 10.423219007018197 15.045875358258305
Ga 6.946371868876446 9.815962141580085 12.692462595865639
Ga 11.676403066560615 14.801147739668094 10.65976132596021
Ga 7.959499257364343 12.726743135735052 13.205687211122266
Ga 13.293056859743116 9.959970940247935 9.463467489210572
Ga 7.627665224313526 11.04506594770364 10.292377383770754
Ga 14.516084513128236 12.321130957165883 10.342656770847613
Ga 10.599784682565955 10.585120419262838 9.960538495090034
Ga 9.480718755281373 13.08592650159605 10.684164865387682
Ga 13.841571157240853 14.625697296080983 8.89936227346182
Ga 11.168479514344147 8.028523417895153 8.757543995064404
Ga 11.849427303122074 12.78871397130457 8.921633156866623
Ga 11.739422026606542 10.528205747323243 7.248895879961217
Ga 14.326943007363273 11.7660910865019 7.651175205577218
Ga 8.628844842928448 9.330597934470156 8.273201787764917
Ga 9.160477394462728 12.169163598357013 8.181066219055314
Ga 9.366835337714228 10.48092333387259 5.937388763068828
