35
Energy = -90.04103617 eV
Ga 11.906395195812962 10.608745686953604 9.819899720731017
Ga 13.07484615556461 17.534867600693673 13.953007135911252
Ga 8.506891572029707 14.495557494328127 13.059096259898096
Ga 12.694043838773487 15.302685861747682 12.24944679877843
Ga 8.8311792626365 16.357522164173307 14.931998972139123
Ga 13.354750171767359 14.779730796887096 15.059477847438702
Ga 15.235671453471832 16.108232056479693 13.122370798167687
Ga 15.211317171020141 10.38213301581004 12.67558650142797
Ga 13.45392833423152 8.86201156269922 11.308434104979304
Ga 10.110349951138943 11.954857997580772 13.616965707258574
Ga 10.950322281737439 9.260926579746638 12.247447114130624
Ga 16.74461901422242 12.521582983107587 11.599078966231328
Ga 12.550886585000171 13.498690363859243 9.732856339710175
Ga 19.1464505171174 13.240519599444859 12.747228629496568
Ga 17.38844033254183 15.192508274382659 11.70723542680735
Ga 13.389794019667582 11.74881940771508 7.887326525592373
Ga 13.041497880129779 9.503907448921545 14.129712413737286
Ga 14.684190301830183 11.389228396451506 10.193129442520428
Ga 12.516488065386062 11.761289280325236 12.290823998642432
Ga 8.450644956743437 9.753579677827858 13.333738657875644
Ga 14.740611026455536 14.283722612106502 11.011923936354375
Ga 17.12671958328741 14.400543165219167 14.339725619171823
Ga 7.561589873237309 12.214565393725309 12.17825932057876
Ga 12.460916512760152 12.139184887261298 15.270687389272968
Ga 10.83871811074252 14.28901359072009 14.481667798052346
Ga 17.23062347107851 11.700374307041859 14.29070090566294
Ga 10.558444272998948 13.845127801878293 11.406160812065963
Ga 10.519814038103277 16.592748563818688 12.85124808830519
Ga 11.39462257281329 16.521271133863063 15.916223164658284
Ga 10.657378070287777 9.838175679183408 15.208402033137626
Ga 14.638910522652345 13.009441757422952 13.509618163208831
Ga 15.014288886554562 10.746589514539332 15.46422448324038
Ga 15.555258958145725 16.169432601461196 15.893016130828544
Ga 9.627263081533114 11.28647040071165 10.846594743303687
Ga 15.495891550485911 13.394498010756372 16.34064973448239
