33
Energy = -84.83056416 eV
Ga 12.08989647752622 8.495590409827253 13.907303303064934
Ga 13.417244234460567 10.780207872845827 14.604758388116904
Ga 14.88104964205097 8.646548030433095 13.794100379966604
Ga 10.591013750655923 11.836620281531404 14.613838294317414
Ga 9.570965841342243 9.510163893569215 14.019028186121703
Ga 15.637601265159958 12.495983677012601 14.267093334859494
Ga 13.325927087891959 8.779732765377268 11.37175394000451
Ga 13.688036016967425 13.178063246690588 12.047299742176053
Ga 12.871039228343149 13.282631442872015 14.853711738233462
Ga 11.879872119163066 11.05425771879582 12.32972739713654
Ga 10.018037080423449 13.424592239605026 12.429477251335584
Ga 9.947567460138124 6.782483146264198 13.306982404967712
Ga 14.994978827189943 10.864816327185606 12.072781372709764
Ga 8.990943110193257 11.013812705274287 12.02482906925429
Ga 12.85600421454745 8.882398683201487 8.726324880658504
Ga 15.442051785270241 9.535420308854206 9.667965059790701
Ga 10.763608785530245 14.90295177179714 14.7482364902047
Ga 13.720996412587978 11.609597507249745 9.683368308462148
Ga 11.8613811617875 15.397167943009805 12.179965644426
Ga 14.127386674028363 15.348560527671989 13.605302027611977
Ga 8.095617304600792 8.377732703641938 11.851717321921072
Ga 10.244421483610084 8.344522178776215 8.431923182724956
Ga 10.787822769200616 10.788757989150657 9.926350070498815
Ga 10.746198399747621 8.412702686647025 11.185217753342434
Ga 12.016894937345171 13.572829933330198 9.842364274534646
Ga 11.996731370669929 11.177632576807403 7.533695483641675
Ga 8.08688584364724 10.075322636633162 9.684126058661388
Ga 9.975484343827823 15.262255311414574 10.253184608872251
Ga 9.206503323366556 10.47795137582024 7.190426991417999
Ga 8.248450479601498 12.921104971200393 10.446210704059936
Ga 10.012689098357194 12.931932735747962 8.250138381782119
Ga 7.077728900381784 12.222909067674895 7.840002952763394
Ga 7.965478602447658 14.779737225417344 8.456312226433512
