33
Energy = -84.71324823 eV
Ga 12.235247581408624 10.306160096433588 15.418926351789002
Ga 17.138422541050126 11.777504540263925 13.976000138829745
Ga 12.107929030266664 14.873231898575472 14.236985924755206
Ga 11.044237949279717 13.044892005506062 8.950044827951611
Ga 12.617427643343369 16.816768689930907 11.093953065219651
Ga 15.734949183785238 13.011892922856212 16.499145303592815
Ga 17.80371742157973 14.270670256637814 14.959190995660704
Ga 11.094264791289381 14.431025444549526 11.318334500545891
Ga 13.574724352903726 12.645015564794763 14.981445607651303
Ga 15.029413617434647 14.891984848602931 14.772242798724255
Ga 10.572634630641637 8.985479934791446 13.653511467775013
Ga 14.001703794151199 16.82213038898358 13.331188541377172
Ga 12.967503314319295 11.960884590540795 10.529704445499986
Ga 11.154460659909494 10.094693123159544 11.161452010114763
Ga 13.738064407913724 14.084971311527303 12.173812932425745
Ga 17.364973474960102 10.831605619791562 16.450954732228322
Ga 9.706887273298403 10.290147827734312 16.291312706409716
Ga 10.692210616807392 12.808386725819767 15.662011787037276
Ga 11.137677301099645 16.016214231778495 8.986171725808697
Ga 9.393387692783735 12.293933055615133 11.171737740723536
Ga 16.857035446111325 16.541918217262577 13.399675848116235
Ga 13.491657203665984 14.607798692854603 9.22954185978655
Ga 15.056656944572843 11.502059043998717 12.337971652805509
Ga 9.369250780621586 14.146098173030145 13.389739524674999
Ga 16.531189339839475 13.85711916906088 12.445844356913812
Ga 15.438956369346162 15.798572547700395 10.888758320961113
Ga 11.696234586611412 12.105887705534059 13.051929646653935
Ga 10.440601276534288 16.62572751982382 12.948221273709894
Ga 8.48022374467742 9.675122634628417 11.75276798851568
Ga 13.288464369871818 9.631243264930818 12.769476620903916
Ga 14.920825102021416 10.290308757615099 15.164157692275916
Ga 9.162088039367086 11.43990252078479 13.79066114641198
Ga 15.581609675267218 12.99860433613889 10.019608914662795
