33
Energy = -85.01234221 eV
Ga 13.05702129011509 14.255700615380498 7.985440914949086
Ga 10.833223777375087 15.425767040040723 9.392855943280956
Ga 10.346831006122228 12.715491406640089 8.134531146455373
Ga 8.055045500586576 13.466228587469459 9.236724671508282
Ga 12.673217744393948 11.468332960541437 7.994602802040724
Ga 14.195413117274962 12.1627489844598 10.292370559379057
Ga 9.39039397750534 14.369597845776392 11.480902954306465
Ga 15.185093868927725 10.331454369982175 8.418286526506298
Ga 11.66438614595427 13.048620964933534 10.527717556880011
Ga 7.978792777498901 8.069238792576877 8.743454908594542
Ga 10.30341297287537 9.975318740499068 8.282733330598159
Ga 7.8283033546228316 10.83018551396123 8.696258148493405
Ga 13.797348136316371 14.849672819443882 10.752063203297995
Ga 9.119492051166102 11.704825304139922 11.017435295505145
Ga 15.894135472558002 10.929399522440226 12.54977779746199
Ga 11.685892479891121 10.443574584267354 10.701386495244888
Ga 12.018442508922329 14.775828837631746 12.722989008567025
Ga 9.681925494997524 14.189878235910294 14.12259708183843
Ga 14.374038076715069 9.370021818530708 10.971052374830407
Ga 14.067640876610387 12.951811598094306 12.898025352643337
Ga 10.560310956582905 7.5346288071922105 9.369050944745986
Ga 13.238251237136971 10.251987461935553 13.279532375933776
Ga 12.895192049453168 8.802066085804544 8.734411569376727
Ga 8.70256568019184 9.103800656501027 11.193315901241021
Ga 12.363995610976705 13.205588119132697 14.94102181185825
Ga 10.901316672433289 11.798768640379173 13.048635507247996
Ga 11.518474324152498 10.212448740126705 15.316846104643918
Ga 8.4843606979825 10.295680217935809 13.528177351972415
Ga 9.697336475687267 6.647999755982434 11.899081775999669
Ga 9.231742930779616 11.88778775026621 15.411895500059503
Ga 12.192467193985939 7.898547020404924 11.474836229536137
Ga 11.23110867815169 12.222027805070688 17.1607388956025
Ga 10.642826731974905 8.555854253242632 13.555611496373107
