34
Energy = -86.61704934 eV
Ga 14.794537647882239 10.539756672772551 15.773601385113416
Ga 11.294448367436763 12.808996937612116 14.783998278119128
Ga 12.28067201962805 8.4618078654512 15.21160422277094
Ga 13.164874763881134 10.723174491409303 13.488764554703089
Ga 16.55994075325991 12.713195573909498 16.031193572378744
Ga 10.366421320719155 14.748169409413714 13.24483605162824
Ga 18.150701110418883 10.740754343293316 11.877809030377126
Ga 8.267969124616798 10.148970975145252 12.257652520732442
Ga 12.748257137915033 17.952005217063 15.816639331622234
Ga 12.093826718997088 10.934436353102699 16.390537473328695
Ga 11.58058263183566 12.329952341895593 12.003397346318337
Ga 13.069356828708363 18.415176803713873 12.176474170047033
Ga 14.707166118447649 8.444284264703702 13.998494368228734
Ga 11.064760815031747 17.077616829481062 13.893434462860238
Ga 9.67190488853509 14.187622308675092 10.671023489753061
Ga 11.083521354310426 16.420528329683844 11.146545141759043
Ga 13.987521367833342 12.916055987879323 15.062777005049906
Ga 11.721154765873417 12.12985456285288 8.84622920010436
Ga 14.741852846891076 17.495047631911113 14.119383827690934
Ga 16.916524999516106 12.970078021420086 13.157424553425773
Ga 12.748195864660554 15.25302978927879 15.16002703459452
Ga 16.344124075446636 12.358994208057817 10.633386039807927
Ga 15.572907485542828 14.966086044063738 14.401359156074893
Ga 13.486047523589885 15.726029904281916 12.364078849387994
Ga 13.567898438627282 11.174118109839378 10.460450199261249
Ga 18.292797141472423 14.574038012868025 15.079248800979999
Ga 11.607498763481056 19.718237483716234 14.124887024356845
Ga 9.574068932203646 11.542245632004787 10.33380265374105
Ga 17.070506499572808 10.464709623359829 14.331866357655873
Ga 8.919806385732013 12.62530105269084 13.1587081220807
Ga 14.334043211064262 13.226762409712912 12.32292874622465
Ga 15.431917879405397 10.262127823642512 12.158936703732685
Ga 10.614349421393223 10.178124705082853 13.601834929100946
Ga 12.671437315914105 14.211054906704403 10.295311155552907
