33
Energy = -84.79013914 eV
Ga 16.147143778490328 14.702264285498735 8.61056102212459
Ga 11.028632399327044 16.13458010716476 8.591150783344274
Ga 14.460947237962024 12.564804540524744 8.312527283390963
Ga 12.009869022493294 13.596025656458576 8.022712605530803
Ga 13.65802899639288 15.428965103272219 9.519974831489787
Ga 13.651792471674346 10.475414106898238 9.739631601377397
Ga 12.72221817787282 12.97558234637575 10.585122786071501
Ga 15.421907771795057 13.034863194180172 10.848164812888932
Ga 11.41248338377763 10.681039299291916 11.278992893844215
Ga 8.945124595151189 9.357882197677934 11.697145713047922
Ga 10.089015989521148 13.768102545269077 9.922764099215442
Ga 8.902193299245539 12.000604919986282 11.326654625978282
Ga 11.59448819706957 15.696532534687709 11.227689563458238
Ga 15.99821259414943 15.74786035263758 11.125510440876818
Ga 15.081556032132516 10.724134540274875 12.110043555762298
Ga 9.05499756513258 14.864164219440212 12.467506538706298
Ga 10.779070304610729 9.18590811160106 13.662931232819378
Ga 13.87698530180282 14.812146786685625 12.455245612423893
Ga 13.187162932948983 8.743022369246429 12.215297546751295
Ga 15.456391515381904 10.089107382711514 14.704689466601435
Ga 11.241035123784098 13.232331572693363 12.72638196784876
Ga 14.908299617934508 7.5878356671844545 13.939519392093015
Ga 13.091973557489508 13.846266897630526 14.7390409066507
Ga 9.306392778965845 11.475758979479483 13.84670408461252
Ga 12.937238315168237 11.347866052902845 13.611452523688774
Ga 15.638405965996652 12.969153518214839 13.85489375814366
Ga 11.486524308727219 15.96830265457702 13.95478893392773
Ga 12.887235381819576 8.951520070020445 15.237522847169743
Ga 8.92540011725141 11.756569988244268 16.583813105298802
Ga 14.04569001159366 11.741693863835588 16.319359335884144
Ga 10.242794895334024 13.692036407394871 15.180100400981681
Ga 11.391670467420017 11.017599246831441 15.921589372832962
Ga 12.104550617382401 13.515493206906777 17.34594908096276
