36
Energy = -91.72804331 eV
Ga 16.593108866359398 15.860990567307995 10.77653378428208
Ga 19.025225779281104 14.66354501002779 11.05155981083672
Ga 18.954551234962146 13.783554049767694 13.620982807564683
Ga 14.528729652370554 16.993519696832006 11.873266436595417
Ga 18.60616043053825 17.047704480510003 12.409530533881725
Ga 16.838593178969965 15.40744505011197 13.604086864367765
Ga 17.066500267229426 13.041464601384128 11.264187013680928
Ga 14.780224989906047 16.872559418925103 14.474993606708873
Ga 14.191777037774274 14.492250879062606 13.094122115388302
Ga 14.67449947754389 14.14055687382175 10.364228304211599
Ga 15.031626651783192 11.525802587064538 11.829092279611352
Ga 13.560142444276119 12.10969820392006 9.336462221899367
Ga 13.548579150681872 15.039767333682784 15.97459720243219
Ga 12.838355525084678 12.76725592966507 17.059799545185374
Ga 10.97483344667697 12.885172764442421 9.632128437633927
Ga 12.557849165790916 12.746473158911192 11.903447309154691
Ga 11.68651607376657 10.557323555934504 8.14206026177986
Ga 14.082175404382635 12.307058231547028 14.752779955789176
Ga 16.546337227545504 12.685050608355136 13.944562094328846
Ga 11.547246891590087 13.360824555389845 14.279283286747622
Ga 12.854882632213045 9.88452816786891 10.790643324218001
Ga 15.985679674879929 10.010032917024914 14.191390235675655
Ga 10.14730096946053 10.148817675820858 10.297413182791088
Ga 13.387237867477715 9.96421948391005 13.36763306114452
Ga 10.809979757446662 15.179239694267197 16.184959628362936
Ga 8.375926343762973 12.366943493260177 9.431008000082791
Ga 9.784223510804159 13.362825531511291 11.874888608196661
Ga 10.872235583752 10.594665367811647 12.831522259791909
Ga 14.007193405979143 9.905659108005944 16.272039056504404
Ga 9.179575430978556 14.720201738168202 14.104481440514093
Ga 11.572312163413446 10.593851569739268 15.500696987828448
Ga 10.15620672692196 12.621624719522986 16.89267006495893
Ga 8.279112611692724 10.977701588045718 11.897081508323044
Ga 7.11723915607686 13.149519338073338 13.11872046305483
Ga 7.648526268531932 13.46772572819792 16.137828818208096
Ga 9.155208924012797 11.687765904511421 14.553233829559847
