32
Energy = -81.26843915 eV
Ga 8.04317827912094 15.421341647360054 11.654385789062317
Ga 13.683521426848253 7.3960199844801755 11.971737837231634
Ga 6.560992528400125 13.694793993779594 10.353823789656785
Ga 12.118836338315875 11.09665775893067 14.225538501912524
Ga 11.744433207501569 9.534148280775206 11.854134627899816
Ga 12.651620180370108 16.396979667490776 9.33222032896567
Ga 10.082473085638801 15.901981030844395 10.027117238526868
Ga 9.179936983413258 10.090008025913976 11.354928618027063
Ga 12.334853193675782 15.26486948620002 12.025138480256915
Ga 15.868498010834722 8.429548778899745 13.50547033237679
Ga 11.680413889677636 9.5317820740452 9.069127158035114
Ga 14.60676617206947 10.148633378997982 15.161378733772992
Ga 14.198139219874532 9.157467068879287 9.994358992996652
Ga 13.731251814165848 7.926591290653806 16.54178318010748
Ga 14.459648910790913 10.43720079174661 12.453664827927955
Ga 8.720474813017182 12.68150788446955 11.620318941845884
Ga 14.44358883579127 6.37518196063856 14.34383725828906
Ga 8.848049153301277 13.782112742116892 8.909808222673876
Ga 11.89925977323021 13.660288652940197 14.663476406683401
Ga 12.525829960111693 8.500591801879578 14.183112674437277
Ga 11.59906972959878 13.737725356017185 9.401787699513735
Ga 10.135682812801951 11.583891002247421 9.112549164086168
Ga 13.863325042748693 12.92952185395699 12.256281486347032
Ga 10.375285217967084 17.184149499379103 12.44714848772352
Ga 14.584055637273588 12.768525394885428 14.779590352406238
Ga 14.126061170777819 15.322496221157714 14.025264870668373
Ga 9.927046789983638 14.462510670623157 13.285995009934602
Ga 11.752493172310315 7.114239378179178 10.16170550088765
Ga 7.34309193962811 11.152188973107098 9.485750580890171
Ga 14.179449200810986 14.294715999994917 9.931277859023707
Ga 13.341757214215658 11.659973938391287 9.885990519138455
Ga 11.198523583633035 12.23469677389343 11.968836537298987
