42
Energy = -107.92533419 eV
Ga 20.444942284079875 15.539679034280843 19.05469057335008
Ga 16.08862488107173 15.681291280327397 21.742434841245483
Ga 15.519757695542618 21.17644715432433 21.45287547642411
Ga 17.086824849493496 17.75053256791717 19.75068600659655
Ga 17.121421464820713 18.802826730402245 13.61599225765411
Ga 20.814912059479074 17.992976153190046 17.302163827990256
Ga 15.000366261680416 17.86602609149902 17.873760347406694
Ga 16.29397246283142 20.432639555818167 18.618645589459657
Ga 14.31677222144384 15.817277237102168 19.54711685084003
Ga 19.860394295358727 19.16186305801559 22.346373141107637
Ga 13.06750962578308 15.82160947064405 16.973942294563397
Ga 18.191879224528552 16.868998740522755 17.61767295924449
Ga 17.221978447230637 21.63469384325584 16.19313448121258
Ga 15.523561821527391 20.753605937218182 14.108412511801445
Ga 19.206781729760884 17.40906621865764 14.149523072739273
Ga 19.229800619182623 19.859631203170622 16.106732078545786
Ga 13.288663088070363 19.085662376426733 13.837603770500264
Ga 14.90807952277754 17.25226349458497 15.002332358829086
Ga 18.087554389707574 15.161939612559554 19.95330895628736
Ga 12.534005808754213 18.587310352476212 16.624347753513625
Ga 15.837238308551301 13.499608597988034 19.546384923520446
Ga 16.651042262815942 18.43881312122498 22.372713925178395
Ga 11.96851223498603 16.864460250541004 14.591831367162053
Ga 16.836266986667496 18.781900609710846 16.2706991237192
Ga -2.3182120255578194 18.010538166245375 16.427884455038896
Ga 22.30007908691192 15.503771534596593 17.270859204556896
Ga 17.857785116431355 13.938675692085033 17.476241177384452
Ga 19.86298223484657 18.385743312601285 19.68856221419915
Ga 12.509396462911946 17.766075990450982 19.149123211623007
Ga 17.24837899367358 15.865445147203536 15.084298498570716
Ga 23.624458089791407 17.823227730085176 13.706729389462158
Ga 18.092208967965902 20.21514377215181 20.444833079068857
Ga -1.656281820788504 15.309262544768 14.833665978878074
Ga 21.48498172514118 16.338662157658213 14.597347447233487
Ga 18.81990783669953 16.790974249581495 22.029418247990627
Ga 14.643178824614578 18.771071456910114 20.552080950410474
Ga 17.795714078596713 20.794185297987784 23.10761375105187
Ga 14.469789559095258 20.329644807811206 16.587622193764993
Ga 15.563224338711219 15.173702630604314 17.02164164217066
Ga 19.767424018282586 15.158652721117017 16.17746863098085
Ga 21.325634889617053 19.252907848257976 14.599194520301893
Ga -0.48505739670842 16.14942279907202 17.101383384100664
