48
Energy = -127.33348788 eV
Ga 15.335904827614268 9.59481466898608 6.413630009942539
Ga 15.38202917547065 10.866959550832814 8.966354008805776
Ga 13.732746003118097 11.736877462686852 6.784954151539216
Ga 14.293548680476045 12.471842961627777 10.870036718546409
Ga 14.009097580885928 8.35696690594652 8.355663298174813
Ga 11.987653866364576 9.38948218682586 6.672307070834921
Ga 13.76058755103854 6.750286985028025 10.625926632775286
Ga 14.464252962106361 9.496084464651227 11.067620342203535
Ga 11.870297186354433 6.664181167928304 8.299249677811702
Ga 12.510422134198972 10.803210525483255 9.28103900968983
Ga 12.689276749323021 14.896770884775371 11.089902013753157
Ga 14.442604755367743 11.069159522800032 13.250453789465526
Ga 12.94882176544488 13.587449258121108 8.551432779029392
Ga 11.043834469759071 11.968407564604341 7.056754350491032
Ga 13.213418129024236 8.13893126600204 13.15461872996214
Ga 11.221772501764631 5.967506669756591 11.106205351141444
Ga 9.331094607034926 6.90295623804731 9.405964274187166
Ga 10.796878921176686 6.7970700377309345 13.66477481756577
Ga 9.799293729146529 7.641572591190188 6.745682153299923
Ga 11.632132086873765 8.599665657512102 10.47786807301341
Ga 11.288816795462385 12.558544085923739 10.817747445075161
Ga 12.618799348767798 13.110688122090629 13.310375561739402
Ga 10.57706847825749 14.711397788039303 7.554057170832671
Ga 9.90063255903354 9.699579162762701 8.712158655298124
Ga 8.510202106837756 5.998964551987697 12.050436983150098
Ga 8.502675348974915 12.85757888304357 6.701419336023905
Ga 9.19786215597792 10.168471924974645 5.97625718550688
Ga 10.175193386593765 9.218398884197175 14.712621583859436
Ga 12.616736030415852 10.310952099166446 15.09192921258651
Ga 11.693783850711494 10.436975383031628 12.385529531786117
Ga 10.047551634639893 15.006519036972863 10.247695634363678
Ga 7.390132303442458 8.347468304343183 7.84129126367435
Ga 10.247108505076515 14.45349376599959 12.938639626135998
Ga 9.312368803839156 8.70453115243735 11.932856226946155
Ga 7.644069282841638 14.604148984132003 8.69395302278203
Ga 6.7328138344162936 7.350852470657714 10.33399496264243
Ga 9.120464263207937 12.181101123925798 9.330469704440556
Ga 6.729032210263263 10.94605653817264 7.658173854634275
Ga 7.808688867817038 10.428423817639018 14.403437013439977
Ga 7.955759891785277 7.506771753332601 14.406070818292187
Ga 10.357361065976027 12.048945616205645 14.63334599624688
Ga 7.664141558800977 14.101939014075471 11.51358735650544
Ga 6.245801802646795 12.45590562602941 9.78605157898116
Ga 9.106630263708855 11.486894635404537 12.010875974349997
Ga 7.532965621986259 10.000062372166223 10.215571242331514
Ga 6.4516716138288075 8.868342479250746 12.497932708571575
Ga 7.875402022219574 13.091600815957538 14.003003489474882
Ga 6.150014649345752 11.564610976962294 12.319495547514006
