40
Energy = -104.1732094 eV
Ga 9.26299989645789 15.19268122824031 13.302376322832249
Ga 8.182646378785547 14.948253789050474 10.877662588529029
Ga 10.664753046311292 15.247495579547289 9.904112817259943
Ga 7.743271712114159 12.81387004417013 13.224098691458735
Ga 11.838473995841104 14.907005206243841 12.371324128955086
Ga 10.40353043684491 12.985955258252835 14.55343046740538
Ga 10.00412051187475 12.893382343452949 11.612849397465375
Ga 9.681828233106748 12.887145049349076 8.873597473690946
Ga 7.503296075028657 11.440064204216968 8.072050705569417
Ga 6.985595678667414 12.656473854832607 10.4073709823792
Ga 12.578201322155858 13.181970046758961 10.273287244021136
Ga 9.976430479976553 11.655162539488213 6.37310893592582
Ga 9.709905733125087 10.625103431973898 13.38390898234653
Ga 12.551892874390132 12.223678530157606 13.094776081595652
Ga 6.448937603011563 10.506140094585277 12.522456804341953
Ga 6.034102290248917 9.968967810321276 9.936694907964991
Ga 12.043837709336946 11.404141724240475 8.184744837437279
Ga 7.613426320943396 10.653718081647288 5.3487482903856325
Ga 11.186120237071087 10.595698436317058 10.984454333928728
Ga 9.413896810200283 9.440607634137416 8.188683058016009
Ga 8.629593171476465 10.353616682365946 10.64590120610224
Ga 8.008159821336683 8.255903164262572 12.358862215443494
Ga 10.648119092297854 8.17677148339275 13.261550541974016
Ga 7.118166087908779 7.435777784316557 9.977750076948666
Ga 12.915804885855502 9.588287834458278 12.724166208023625
Ga 6.606747451968366 8.902263909885432 7.467920567451171
Ga 13.950896540883308 10.880986302350346 10.23287150541466
Ga 11.686590143473197 9.3093668936006 6.396245785926833
Ga 9.196379730523786 8.36506878846037 5.579980464655472
Ga 12.054521100986832 8.70620259761171 9.31252255617844
Ga 9.870104431179568 7.638196255266965 10.247924431969421
Ga 9.804619379579682 5.826685051370488 12.371465036867367
Ga 8.590189576384004 5.029942223211669 9.700821093200368
Ga 8.317094786509504 6.674205385215515 7.532127596004248
Ga 14.075914391622282 9.389572169861728 7.757072272300662
Ga 14.757668382351795 8.230307266717299 10.61705661234424
Ga 10.979382910191196 6.863388338074386 7.3391182955446075
Ga 12.414396084423583 6.98417393459711 11.447658222626409
Ga 13.565113292280444 6.580856952577021 8.493610057106311
Ga 11.289748181216098 5.2205581761920525 9.649954824361354
