42
Energy = -109.85242501 eV
Ga 7.002876864254374 15.023201104685308 10.203341034570487
Ga 7.859934457420365 12.618415292079662 13.880274401147211
Ga 6.356975986199567 12.663552952100153 11.42255432488081
Ga 9.243437714931892 10.344092119511267 14.206148714903915
Ga 11.260603095112147 9.267890301964078 15.875157616702317
Ga 7.1016557718915205 10.246950819653291 12.369908762570407
Ga 5.362700082021351 10.443546864289814 9.996075341702404
Ga 8.274547739306982 7.884143478482963 12.532224586080375
Ga 8.60320130568631 14.721117474762277 12.372681755761635
Ga 8.603362109127753 14.485624484339937 7.961258368096906
Ga 11.573987916650012 15.213144986490871 12.871430148524455
Ga 12.001867007993726 11.488287730455458 14.460169312535845
Ga 6.560859823609286 7.937134952252049 10.463817465544043
Ga 10.526300538477392 12.657628531913517 12.497441408206507
Ga 8.861314607566761 12.614591434071375 10.351586958042258
Ga 6.638519980307285 12.469577988940317 8.48734939293959
Ga 10.746364231223854 8.116178221079721 13.457959501446004
Ga 9.767788602475981 10.095062552094653 11.368922009238185
Ga 7.979732231005531 10.13940085591071 9.403244610160135
Ga 9.132384272685108 7.536303657148171 9.567642215549984
Ga 13.490514606771828 13.185591314324022 13.04956958100975
Ga 12.359858828267658 10.688136885279274 11.809220246903243
Ga 10.466563522557248 14.903056156935897 10.337206159944479
Ga 9.40094285365124 11.924010140203219 7.581634566401663
Ga 10.119885542715544 5.946027367486165 11.577848505156858
Ga 12.92934876468935 6.334307289927607 12.37425031171753
Ga 12.966493966025842 13.901269002454272 10.57033067959322
Ga 11.578558864475456 11.813593207722326 9.513599893549365
Ga 13.312781285797842 8.853991894707876 13.925591907645213
Ga 10.296427664993834 9.336418528784042 7.986972002567589
Ga 15.048393220682595 10.82787025543634 13.083593972069057
Ga 11.364894714184212 14.121598487557529 7.886740454074484
Ga 11.532129982711691 8.189950949406102 10.745372665428574
Ga 14.264972599706214 8.614740973734486 11.398740808772137
Ga 13.83567017150171 13.308173434028818 8.1219295690403
Ga 11.93404190452745 11.256706989335107 6.828206327132031
Ga 14.462622935167168 11.497874130475468 10.218399929404269
Ga 12.854593760505384 9.33911276257159 8.727072811385737
Ga 16.58651001985926 9.825763429341942 10.921771889004242
Ga 13.62612088250981 6.718625443424896 9.548127893513678
Ga 14.675258693365356 10.903289660867737 7.357222143349833
Ga 15.521325703952606 8.659561527379111 8.643073837338939
