40
Energy = -103.5260433 eV
Ga 13.172269840646699 7.352395678242014 11.415745157476156
Ga 10.65009265815546 9.658185466482754 5.611728257648946
Ga 14.876126183735112 10.680417953886234 8.693468281245675
Ga 6.4318285957746655 11.753386276760438 13.421713842887296
Ga 8.306610425805397 6.976779029392475 12.071410379459147
Ga 10.85115531467803 6.683419966845282 10.377396637559684
Ga 7.911125628727412 14.480778412040214 10.746561288911675
Ga 12.738403870454231 13.379461051158458 13.488883075489273
Ga 15.36348585579522 13.751190119625978 13.055605368110113
Ga 9.639316999488305 13.326514384004895 9.012797276578482
Ga 14.586705100175042 12.390014774490393 10.849379760020215
Ga 8.45164378057837 6.346546888130518 6.24294937247685
Ga 7.884990193761262 8.781175579892212 7.378310808080375
Ga 6.295219020366564 12.249836399235353 10.702674343334172
Ga 7.137179506561232 9.685834684709343 11.94255503234772
Ga 14.196631976460266 9.837499814352746 11.25443144525569
Ga 10.551733148873108 13.819880395191717 11.710443407959149
Ga 6.482362140402657 7.996701296826055 10.04570756618282
Ga 7.171768398418451 10.690748821395896 8.968126521044024
Ga 14.734778757248352 8.078596913037726 9.206100820036708
Ga 12.86457622724145 8.730852499349487 7.451224455693232
Ga 10.451294356985674 7.7893361431144035 7.758388082546587
Ga 8.367348433661935 13.626674983209659 13.298095824386936
Ga 11.819882151223757 9.402074923719011 9.896735072190294
Ga 8.56083661967222 6.321423930777782 9.123392269739416
Ga 9.277941563327168 11.41527505554675 11.035376109823686
Ga 9.751563091240921 10.833652253519112 7.963793048400028
Ga 6.0705269395537 6.544023741726245 7.7650192696282305
Ga 9.130166556959217 8.911614492965215 10.050155238910927
Ga 10.462805863396456 12.87375604211746 14.60125720374074
Ga 14.530144362404545 11.110977324402237 13.599632887891802
Ga 11.944607147950313 12.090970118767734 10.033810652632598
Ga 12.3044547065894 11.363909801016353 7.3342818722336816
Ga 10.454345448482584 8.632752977318358 12.491581106948816
Ga 5.757028329977144 14.261779283881229 12.375989487025885
Ga 13.798218583722832 13.386370399382871 8.425194690014841
Ga 9.220818477449392 10.714377326517843 13.710814145134837
Ga 13.211301069042808 8.74951092735639 13.735786632142586
Ga 13.038312920777177 14.667692307405156 10.983367660598873
Ga 11.881316279661458 10.984528087632695 12.501032173638016
