45
Energy = -117.71971184 eV
Ga 8.10790371492064 4.970247692509748 11.188401263382563
Ga 5.004604034224704 5.417688933930373 7.142737631874377
Ga 9.725626898515296 9.062668526741477 9.548607179656603
Ga 7.581364851767501 7.621772247718435 10.30179311404292
Ga 6.535264818675955 10.165441272472815 7.004724582562102
Ga 6.319700210339186 7.9059828263166 4.1159851493941595
Ga 7.051182345206302 5.4718314383451565 5.126076297594434
Ga 8.256653479963704 9.806583082407904 4.590969881474124
Ga 4.98849600156505 11.397468835372457 9.504589626611127
Ga 13.085755555171772 8.416613525658727 6.746347006203704
Ga 7.469717183972094 7.73545068120838 6.7826404595630265
Ga 7.281810369237263 5.673481772344404 8.432988168942998
Ga 11.315590108519496 4.910875845265203 10.78005263867832
Ga 12.251989840122546 5.539189473944199 7.955644817557774
Ga 9.436457595848465 4.585824645296718 4.096373173622116
Ga 4.32939483152829 8.309383308978997 6.1481671713428465
Ga 9.274236941669159 10.720932379319978 7.295336860368512
Ga 9.701959632657937 11.994964233138036 12.696252015272304
Ga 8.383610458078625 9.639906015340094 12.272174701783992
Ga 7.129296020886308 12.165866273472398 11.324149658430287
Ga 5.333328064008192 12.641492771263172 6.445202952773371
Ga 10.297759701249406 8.013813765229822 7.092569239551436
Ga 5.351430375793119 6.05665699768017 10.856027008586997
Ga 4.348197066753127 6.0403643653885055 4.558809470226628
Ga 7.37344133127469 12.763572968652529 8.441940537263788
Ga 9.150389350161579 7.300360459963815 4.500678086218603
Ga 9.729308142972975 6.4210820897884835 9.093761921565589
Ga 5.328327009412628 8.145914545829964 8.756703962028908
Ga 7.99070326951316 12.303534653814596 5.442547308439174
Ga 12.125203021008288 7.772686063986577 9.744598925474369
Ga 7.276547145793822 7.085168974099444 12.98327669775164
Ga 11.707222577294527 6.445049520440844 5.17409162033221
Ga 5.965966376583675 3.591899053393773 9.484322361995094
Ga 9.689842895047265 11.826425254416645 9.916572925792401
Ga 3.687771938039598 10.598725768528395 7.274660378636214
Ga 7.3576701200468 10.108073077526583 9.531489489781784
Ga 9.970975574723012 7.25659229638652 11.851957362880386
Ga 11.051429955484712 9.674330093735591 5.050956074126765
Ga 9.30190783567369 3.6057409347158953 9.043909860863788
Ga 9.669768508828136 5.120962896431646 6.710957190085043
Ga 11.8998882756894 10.511505202304853 8.449419093147423
Ga 7.420694265522624 3.227582890928258 6.725106834895952
Ga 5.556750280743943 10.612262113726594 4.451317744554126
Ga 11.409803469869361 9.934863297156697 11.53743980535066
Ga 5.468098497808226 9.122206876994216 11.520711691487369
