42
Energy = -110.12324902 eV
Ga 10.813263012035199 13.006871221232384 5.658753082648172
Ga 12.942667133581736 14.989336413955339 12.851481663714988
Ga 12.047822228309558 14.3825236894254 10.42856174718157
Ga 7.591690509799834 13.308502691467748 11.795270996528666
Ga 8.46636969443374 12.811108346548512 7.1286713322216295
Ga 9.76682360236338 12.897578753447487 9.771971075558417
Ga 11.954750698390907 13.995236093029977 7.870626939051051
Ga 7.160950636327042 12.351523120966768 9.327770486547522
Ga 5.160999789524798 11.651916025475789 11.124819764973989
Ga 10.082753784978976 14.232244342857504 12.31695779773621
Ga 11.752725596633375 10.48167183218753 5.185477937281798
Ga 11.734060289929442 12.909694804831922 14.143249075993968
Ga 9.326224319286398 11.811413531724678 13.55640446486863
Ga 10.854204497937271 11.348277887419245 7.906765682666895
Ga 13.740151981694071 12.175539761918692 9.46842017388012
Ga 13.478450705831962 11.974458386723908 6.802773630734155
Ga 14.13518316018563 12.556163261055712 12.099932666697217
Ga 9.006418856232758 10.59352982424933 5.671316922577977
Ga 6.766280747011998 11.101351850684237 13.269962224393685
Ga 8.41231893917878 10.594997287363439 11.082667730982132
Ga 11.450109154784654 11.835918688915715 11.596006710766089
Ga 13.429986719073801 10.009687526671296 11.13915600678382
Ga 13.34115538816281 10.53127744533269 13.771305291403513
Ga 10.903505846939355 10.553907415233668 15.432732865121789
Ga 13.079838235400102 9.65246852985345 8.43183993869433
Ga 13.95676914461018 8.975277774615583 5.883534860710865
Ga 10.704477583444792 9.44438702437301 12.763326454364522
Ga 8.263588871476687 9.518155187024332 14.9016100823675
Ga 10.7522342269806 9.620405513604016 9.968339451437295
Ga 6.1925563030726 9.45973115241372 9.53957712149348
Ga 6.444915602389373 8.710589595464562 12.151355563206339
Ga 10.732465463145507 8.612159350968502 6.871826687045834
Ga 8.471299266443063 7.944406801370576 10.31446771088894
Ga 12.973041243576356 8.698573699581823 15.756942996776733
Ga 8.399546196750462 9.676291328707276 8.105516430587674
Ga 12.833774868046463 6.966879952838949 7.555376245398689
Ga 12.93601484544915 7.851270667452689 12.958081926980853
Ga 13.103529338923993 7.437417198748215 10.248769008580012
Ga 10.564213215164392 7.643266143176396 14.772413629372034
Ga 10.62120286180889 6.6642388706508 11.72709371855238
Ga 8.50414591049199 7.370078678285636 13.100679833743131
Ga 10.493108254959305 6.870011623361107 9.00923016367432
