44
Energy = -115.74571981 eV
Ga 13.42682382101155 8.744697333169379 9.600480493913773
Ga 11.040263459269696 13.145556181777227 7.791613021788039
Ga 6.735094661762176 11.884164628642058 9.913695122099117
Ga 13.140479667255496 16.009399513686315 11.11262974755964
Ga 13.432156788806191 11.331418986941532 14.289000757806935
Ga 8.97118672669869 8.627978444874838 9.699905698741459
Ga 6.795289832409719 9.264514621913131 11.301860407380232
Ga 8.944196859421897 15.900375928518446 11.211458148021729
Ga 11.191512348671228 7.838172618178136 8.31253552005266
Ga 11.024454066669028 15.223504582946852 9.539081493176939
Ga 8.886720762121719 13.571616447684262 12.773234462604352
Ga 13.178144980324427 8.887394426927537 6.668639698616859
Ga 11.282030642958928 11.203388206056637 16.304666481718897
Ga 11.123703039006369 12.930926008202901 11.201269467059287
Ga 9.071776316718337 8.479025924848251 12.690768288773038
Ga 8.836675225139862 11.21794980461605 8.23213339333575
Ga 6.508879585707654 14.289695667137858 11.30622477061815
Ga 11.191460446866287 12.948215474305309 14.148066888166149
Ga 15.635324591433445 9.494574255398176 11.104649313768348
Ga 13.262586156529258 13.641396605358816 9.573622570102007
Ga 15.534910987660322 12.023610565867374 12.588027160595196
Ga 11.239037989527196 10.137791595008844 13.162473994811073
Ga 9.191972315084595 11.021398304839293 11.405595040567912
Ga 13.15631701644888 11.12435012783078 11.31677206187042
Ga 11.097720562599624 15.313781186977167 12.804689439843859
Ga 11.251394193452763 7.9381501733357585 11.04804541646625
Ga 8.876283518857784 13.52432035607112 9.6746452834809
Ga 6.831887915643708 11.797890695896383 12.783609319796827
Ga 12.807008884763272 8.833370187996243 15.374005131246296
Ga 13.393004511270936 13.689757821447884 12.66977556616334
Ga 11.150228002321763 10.53955278685844 9.636828240610614
Ga 13.468431196723806 8.59576951397409 12.596579878414767
Ga 15.66065652745658 14.529233346944316 11.098316197246799
Ga 11.082164721491912 10.67780584546489 6.796572008252923
Ga 13.357084111671009 11.33531104831664 8.128729364601815
Ga 9.042154283968781 11.221499392115236 14.388974099964795
Ga 9.07932892458113 8.77980247061984 6.759898809326979
Ga 6.529827183233239 9.511874899538578 8.477552710923304
Ga 15.76130121494923 9.75357801704018 8.271061405666844
Ga 15.494403664269822 12.111534000464086 9.718758768658649
Ga 11.325822121101716 7.202087374707211 13.612872743147191
Ga 15.742021900683245 9.51392311013856 13.958465420504254
Ga 6.821960484771923 9.283388107416556 14.158399882508798
Ga 9.839279559001316 8.758033636718173 15.437841632207716
