43
Energy = -157.49247223 eV
Ga 12.743491348099779 5.546375849078819 5.26919975535973
Ga 11.474787766277275 13.631473252790657 8.407287520296729
Ga 5.584233172455097 11.488893555892325 6.304373794354197
Ga 5.474152232131899 6.592351003277807 2.6619409402395635
Ga 12.230326906361984 7.536359328599824 11.974235904402953
Ga 2.037898131833002 6.540761109467261 8.68069782305222
Ga 7.310096878219945 4.2081371063600415 2.8251408060782244
Ga 3.08768378573738 7.823299235114941 11.246719145332236
Ga 11.945961572981169 7.7370494689397535 8.881542756022895
Ga 13.586340923170955 5.256894632469771 8.209676106610289
Ga 7.654183310489704 2.6516897247456312 10.368043727773992
Ga 13.779673887044016 10.152503117863041 9.123571836523938
Ga 9.46390419671371 6.903025615197495 3.1552095606758064
Ga 12.71993504442741 11.484122888600337 6.587085412213806
Ga 3.978811489078732 8.000000406526215 6.743469168859865
Ga 4.112319534861714 9.910237576597915 9.147378889456759
Ga 2.5873426691846406 10.690987320938753 6.564396730523571
Ga 11.23752176226353 10.22443913374072 13.00909914085109
Ga 7.106900165874675 11.13626946853669 9.762026156998225
Ga 5.532401175912147 13.811036583917181 9.68056306208431
Ga 10.279026669737464 9.615664197478875 6.235204297396922
Ga 10.963761902278408 10.999287800759776 9.99558895350065
Ga 7.062336990470173 2.232966243146045 7.385094875833622
Ga 9.508211284093651 11.95474690053296 4.396767476160584
Ga 5.947468962888872 6.760300192813882 10.915522658189479
Ga 8.768405436686695 12.788026352547497 7.2459647146337955
Ga 4.963955806245404 3.9117963135789915 11.193896840966636
Ga 9.871927086763245 2.695063917393958 6.231955611930386
Ga 4.804688728682322 4.251129320872367 4.489720163804994
Ga 6.354933866780147 11.475052704016717 12.741846367166742
Ga 7.114343603952189 8.215600553509189 4.699780226594948
Ga 7.431118889323949 6.799722088714681 13.6308353140729
Ga 9.829834206890771 5.7246152266891075 5.989222339896472
Ga 6.269405733155424 14.490533656500931 6.805958424228484
Ga 8.119037665551081 13.546488276991905 11.360382143648513
Ga 8.454679418315177 9.286305855142473 12.260583116394361
Ga 10.012390535870212 5.458154279793816 12.548016208296596
Ga 9.10401669200899 5.232380607455123 9.66994773207618
Ga 11.320522097322357 3.276677742262441 8.89340072774476
Ga 12.089772413400565 8.33598604631046 4.144516817387764
Ga 6.151546071559075 5.115088749667887 7.078539624194066
Ga 6.71729838244316 10.980566911936654 3.493636181302235
Ga 3.6622864144112435 3.97687449517914 8.440895758817982
