41
Energy = -107.25986258 eV
Ga 10.200755242478607 8.315785140842028 14.217288961411581
Ga 10.315011802125298 13.054934071087796 13.908834642056
Ga 11.443242668336351 15.42109377853202 12.965188088281216
Ga 11.539604034915806 10.686796284211802 13.104830620849603
Ga 9.077007067135426 10.709353149497018 14.508634549285041
Ga 12.882383722015968 13.100268331724774 12.31616404329399
Ga 13.717052354960101 10.696315066663301 11.386054484562713
Ga 12.371432309312743 8.23727731888379 12.568893824224212
Ga 14.275481048329944 8.240294415644525 10.569674809284331
Ga 9.561654945770687 6.789215466388612 12.122592252407198
Ga 8.935000059895053 14.71291162797975 11.896675705456738
Ga 9.160882270940899 9.727745268893479 11.963907375611829
Ga 7.584556246250756 12.617679396303547 13.026390554690455
Ga 6.533750227414693 10.07440178170552 13.529888605476664
Ga 12.72977248147417 12.525714548232388 9.453111214034216
Ga 10.230227195612729 12.276693472709544 11.187410918469556
Ga 11.396661958238463 14.721337025842619 10.328918210839223
Ga 13.9005395697233 10.260772792615 8.390868583153571
Ga 11.530113128494484 9.660646810937541 10.08211008831452
Ga 11.745456001202166 6.865408164697906 10.387303109219708
Ga 13.712357704497645 6.975978858502601 8.340712786922714
Ga 9.349184278851936 7.990257624035941 9.571241424298863
Ga 11.410065566894632 11.266342354384987 7.514416354071972
Ga 9.466892942800566 5.080097131171244 9.98959491023585
Ga 11.113260867952384 5.711587425422369 8.027224446659051
Ga 11.731843144961116 8.669769136930912 7.508843785880473
Ga 7.066963413498449 8.141512708331442 11.605138137917898
Ga 10.011785980628774 13.505200677926943 8.417598737857473
Ga 9.007069631081025 10.807413378206094 9.285295063116168
Ga 6.843664362488916 5.890180973593103 10.211668572172913
Ga 6.691194234784143 10.91700033557393 10.995755155586917
Ga 12.681847656731563 6.548890047558605 5.8802184246529405
Ga 10.42751837380899 9.915408238610619 5.2348780443520155
Ga 7.992740178317175 6.464357604066775 7.653863820069084
Ga 7.703906314025535 13.26246798944676 10.044629919418362
Ga 10.016040588351009 7.234489886979696 5.900885896112635
Ga 6.565135724386264 8.818301909736293 8.884044642389325
Ga 8.817052826756814 11.759910232181142 6.458268862038045
Ga 8.60223884736525 9.17659458137179 7.17697003089389
Ga 6.425898800923215 11.434852587720533 8.228061351732464
Ga 7.4407887461923545 13.942776924779967 7.363983512623912
