47
Energy = -122.78850737 eV
Ga 8.079732920529954 7.144763980728087 4.411725237344552
Ga 11.01707954197077 7.610275544011681 4.936826907732744
Ga 10.949569301575869 10.244078876874795 5.296732250016079
Ga 9.803885859767348 4.9909934743634246 5.182472013614573
Ga 8.301474890260232 9.632386003537174 5.267197060920753
Ga 13.583760640802755 7.815243323776112 6.850889104444142
Ga 8.962051529992264 12.36752659756326 5.481977396214691
Ga 12.401603115943056 11.672903304079677 7.011790204309545
Ga 6.926077725378662 5.364751398160421 6.433943764697009
Ga 8.989378977215864 7.406703387602539 6.984660663068166
Ga 11.51066788489068 6.030835264553782 7.294071323060546
Ga 6.240742717212913 8.123400539180677 6.598659939979824
Ga 11.151131515467462 8.907038693622406 7.702814359121959
Ga 6.745766665230431 10.8308953991921 7.09860634898518
Ga 13.614117312544785 9.86289436400245 8.927851234039881
Ga 9.537593403971208 11.079502544178434 7.893581683906711
Ga 10.567381325373466 13.662891318467615 7.642676402042627
Ga 9.179623161132204 4.843586673631984 8.096367491817734
Ga 8.040019715346965 9.122820001933315 8.927457436048817
Ga 12.782986194821827 7.243198400960573 9.596291363970582
Ga 7.399116571771794 13.249189150539967 7.928611471126134
Ga 6.788873112789782 6.679634334417846 9.041275580319219
Ga 9.97793845392099 6.979651996222107 9.617993757040344
Ga 6.549092230026524 11.35609208949842 9.950394339057114
Ga 6.7559163515437675 13.882581266015485 10.473587692745067
Ga 6.682704405010844 3.9798210407563333 8.94870475799348
Ga 5.75674767881037 9.017225927944835 11.011636404107723
Ga 6.545682109840385 13.964066199154507 13.18331899150237
Ga 11.644584556859783 4.628904461461248 9.75621658055689
Ga 8.963353555967892 15.323518122757255 9.082885835664646
Ga 10.937327240533406 9.397023839749249 10.328605747316136
Ga 11.527394825706159 6.177712405809518 12.052607938948016
Ga 11.92984777020666 12.041516460116735 9.727905728926274
Ga 7.993017301652998 7.336163680918775 11.339323677517779
Ga 6.579832989123428 11.213176197053809 12.935941937281873
Ga 13.045376287960927 8.553596551998163 12.133608675507189
Ga 9.043119852814465 5.924320401935706 13.47607881405185
Ga 9.285676923149435 12.623680856990058 10.094589881776503
Ga 8.83099248105183 4.641178215220024 10.895667077795354
Ga 8.610237747059896 10.158691601934425 11.458597929996813
Ga 8.900632255178365 15.116762715962551 11.89506137623221
Ga 10.234021236375131 8.462232970749875 12.912695550898292
Ga 11.423580601558779 13.730220949150784 11.732381881701942
Ga 11.551165696479888 10.987684660673143 12.494228951541134
Ga 7.292973750031675 8.475684734789452 13.647453352201
Ga 9.052695860364214 12.569083872912987 12.782527019716923
Ga 9.260382293199118 10.520824743263471 14.408435401558265
