49
Energy = -128.58785723 eV
Ga 8.89275029132892 10.065365018775958 6.810386170502061
Ga 6.616987554878515 8.65010705780472 6.681045321836825
Ga 11.084479605719595 11.359484743137546 5.848357085993167
Ga 11.39864554137538 13.648990541207722 7.279996338704814
Ga 8.811075680217453 12.684853747532646 7.596697817701409
Ga 11.244633175177091 8.524383963389857 6.162757823718859
Ga 13.123509168701299 10.392402431400145 7.494669743864403
Ga 6.683937164494258 11.030005899742395 8.19450023252115
Ga 9.072342236424424 7.158202640414178 7.261144097635659
Ga 14.00404057560857 12.971636789373353 8.090666451306593
Ga 12.411349987737061 14.93197530285757 9.50512288478685
Ga 9.716537789089438 14.169771051375387 9.663498863005552
Ga 6.473867759232297 6.492271717787609 8.399895004205762
Ga 5.1589362748080765 8.836559984151693 9.35029312034612
Ga 10.671307803633745 9.470389147469373 8.860404029679021
Ga 13.182882105268327 8.374593674643243 9.606774485902724
Ga 8.050157486246517 8.79825956782185 9.408352657905057
Ga 7.148704293729416 13.185357039885574 9.84049385475034
Ga 11.514294759678052 11.89077352892548 9.407133401619946
Ga 11.233479638111453 6.710777960511385 8.805477354412494
Ga 16.405020082634902 11.63854261960265 11.636777920594028
Ga 4.499655887506826 11.634014545080845 9.820092861376335
Ga 8.778351616314193 6.187668556883529 10.035668807842017
Ga 15.214595431051025 13.889443536998037 10.296963371652064
Ga 14.311022534350423 10.869455594598438 9.983040810984996
Ga 6.3222979713930805 6.748941200731929 11.310489037480767
Ga 9.068219059482475 11.2883831243597 10.309764759349747
Ga 8.823575568459797 6.010388632241591 12.77847341337407
Ga 10.565554541311316 8.22841495713575 11.267195723611625
Ga 13.024898703108445 12.791501905903855 11.555983030535584
Ga 15.239026624609231 8.9647043092407 11.882259633302146
Ga 11.26499727888166 5.473253611697782 11.2717090816579
Ga 6.580363851911375 10.451366725059987 11.165706019672403
Ga 13.515927973892401 15.78238411034616 11.910851938424196
Ga 13.129101398943881 7.2529365086465845 12.157801276353128
Ga 15.14641773478644 13.771169641435373 13.162660363429133
Ga 5.769317534759387 12.95983305286377 12.290157524993257
Ga 10.859472857668964 14.84346399067209 12.018852697812802
Ga 8.324851600468934 14.068420680158374 12.331853257463546
Ga 12.436699670527856 10.070720300958708 12.017664531549002
Ga 8.044353066169535 11.333243308915044 13.26158749785284
Ga 14.570847622393515 11.085415187981193 13.692959608009255
Ga 8.08699029353537 8.634824614222618 12.393070356071044
Ga 11.118875865545029 7.019708870864245 14.012535952849628
Ga 12.451717179434253 14.002060203055413 14.076037268411994
Ga 13.38660805816557 8.77566597289049 14.52350279138922
Ga 10.512148512615052 12.141482078471359 12.462228397942635
Ga 10.277557384166654 9.624953097401749 13.77573241406923
Ga 12.120872324580525 11.454734373501255 14.673970031673516
