45
Energy = -118.21078303 eV
Ga 13.643874976915788 8.843624778945536 9.676816216915448
Ga 11.265949714897106 13.108781716251006 8.30936304416911
Ga 6.931053843328293 12.169381591133533 9.87553100283659
Ga 12.989342503698687 16.19622348457387 11.256482639078175
Ga 13.622927566917618 11.663963887252274 14.092188190240902
Ga 9.153020089896964 8.739361130431373 9.777690579692333
Ga 7.021413280729595 9.614956378610007 11.237695435699088
Ga 9.535742644527794 16.116412246309586 11.330893123735173
Ga 11.406729552068509 7.440159906920429 8.619489917469638
Ga 11.22263649623052 15.836297236158346 9.053926283100056
Ga 9.095068909496044 13.845933061039277 12.828353775388306
Ga 12.876825639543954 9.119281952823963 6.998690259345885
Ga 11.48874862513683 10.952986482841498 16.06337297144182
Ga 11.32267640987744 13.435897502223012 11.235739608569231
Ga 9.215625957372431 8.752277734171534 12.536734036846127
Ga 9.04264279500452 11.459555884469413 8.242967636552672
Ga 6.741567238505922 14.612796619608185 11.380162721425554
Ga 11.40946253153734 13.146488983760525 14.66419655814764
Ga 15.795841268971783 9.81915537870638 11.043277047353062
Ga 13.502991020934566 13.995916455828775 9.640695750478637
Ga 15.746972827788083 12.302820663624072 12.552285228659022
Ga 11.42385070859225 10.661918516659334 12.805191750799013
Ga 9.450286551012457 11.377794692963182 11.103694103128118
Ga 13.283756996599719 11.465244677596475 11.018415567967619
Ga 11.323229160389968 15.393789854469127 13.303728146598147
Ga 11.453396177562176 7.858897843650528 11.196630388878209
Ga 9.052529996617233 13.893786095696234 9.738307320630774
Ga 7.02135405423904 12.1008541638452 12.746325431158033
Ga 13.630490682241959 9.237223817136329 15.14375820277371
Ga 13.599220226922887 13.94677939387325 12.728274435295193
Ga 11.353620924806876 10.358714934936309 9.314050022620032
Ga 13.704595696135295 8.853695205301257 12.439137995908583
Ga 15.848071435267975 14.824011809686523 11.178347349200148
Ga 11.26024080720177 11.307431153222069 6.200077281530224
Ga 13.558711624388316 11.565824936481885 8.142188114920142
Ga 9.241384557563002 11.56478958300148 14.190231838580047
Ga 9.78766317110763 9.045696159008296 7.06752897022606
Ga 6.8070482279272495 9.646992404777261 8.409141616452466
Ga 15.882584949094904 9.859050758508992 8.207916500371027
Ga 15.706615505795817 12.373973352020268 9.680508299386927
Ga 11.509044357460294 7.9977741976723005 13.87909580479598
Ga 16.068558476725986 9.859967903987139 13.876841420086931
Ga 6.872664297459454 9.648141090394116 14.079845913101346
Ga 9.389402845657347 9.140716258592416 15.236623692829856
Ga 11.56592034238463 8.207690310322537 16.694027376312285
