48
Energy = -126.11826617 eV
Ga 7.303956702042246 9.186131973925358 4.6886018336151745
Ga 9.90481163125046 8.870924334262032 5.076363662714412
Ga 5.431230893942614 6.718926998908249 5.188571775593904
Ga 8.073767638085798 6.652548513482935 5.87648109149682
Ga 10.659336509834421 6.200844421939309 4.893364889957814
Ga 7.070073975202107 12.05713990988606 4.387107441957207
Ga 4.54814725887919 9.531787244001675 4.837669969040365
Ga 11.453668329969707 10.534421208347476 6.7996210015045255
Ga 12.635701676496824 8.386609202282415 5.564065757867781
Ga 9.886205363231422 11.851025611299749 5.029384780482462
Ga 8.361687515204535 10.343639933439745 6.958589700910013
Ga 9.78813463922254 4.59149126824045 7.680329963926051
Ga 6.426501958088504 8.599594087155655 7.300881787194435
Ga 10.379575476622442 7.349924801654988 7.340878539494895
Ga 3.684486161202735 7.993150641115793 7.238985875391361
Ga 5.621532047484921 5.904529529752484 7.862554454092691
Ga 12.689207749580344 5.897335767473194 6.9916172326031685
Ga 12.834247596281456 8.408636730547132 8.422618286970874
Ga 8.06014978154535 13.015438692032593 6.85640732018896
Ga 11.925185841053384 11.096679547037443 9.466131340216917
Ga 5.665117491852034 11.324665262412328 6.61559991117761
Ga 9.834831975295456 9.160074473092209 8.94358358625188
Ga 10.790276917048944 13.03871320953838 7.760678731288478
Ga 8.95978414461407 11.466871217757452 9.551839280445275
Ga 4.7271049892129025 10.217930027829256 8.917586166358436
Ga 8.064553099827473 6.7263251943818085 8.763222661693161
Ga 8.74875823981898 14.211209905671227 9.319005445651179
Ga 4.636288220560797 7.61895679269575 9.756954238308179
Ga 11.55472130899222 5.787814191613446 9.427860382751128
Ga 6.634450437285212 4.483589010288914 9.934461239218901
Ga 7.196510477170922 9.28700078883419 10.022691082519035
Ga 10.78336544063135 13.162430564034162 11.036996981613088
Ga 13.716413677717155 6.8224022358317535 10.802313126930652
Ga 4.878814612982915 9.459560066002586 11.820233167903373
Ga 13.913061633582544 9.905972127493277 10.856766762953184
Ga 11.475172752467724 8.542517254334422 10.855145619962077
Ga 6.545823248480928 11.757977528901208 11.59863343826164
Ga 6.469028470506535 12.487118788637616 8.980277617985081
Ga 9.046581167737152 7.578771347234021 11.058985890156796
Ga 6.3805123260435215 6.609434338840839 11.501411833836737
Ga 8.922324332270133 10.745117574317279 12.283753689830524
Ga 9.290220199376805 4.675426995335516 10.618910396151053
Ga 7.295682324392932 8.747513382742941 13.042025055083336
Ga 12.8876916569219 8.337786885170644 13.281512508785589
Ga 11.594723199367607 10.816987723182773 12.436145290306152
Ga 11.239873416794723 6.052948106442472 12.144939461785542
Ga 10.02372213331589 8.429082998115618 13.473867210879343
Ga 8.566908730138312 5.9349469621145765 13.314297886322066
