45
Energy = -118.21070778 eV
Ga 8.45385328499599 6.616520029366463 10.57457425479882
Ga 9.303099580383321 6.409369922572616 7.901949120656032
Ga 9.836196903010435 6.742549613679527 12.887967525307406
Ga 11.187950304442227 6.032282320273971 10.217061381569687
Ga 7.649542841184867 8.647077680436285 8.873138246525063
Ga 9.421675317363357 8.996826643222077 6.681574207484446
Ga 11.322714853125214 8.302525691546975 8.492566737922628
Ga 8.756804644048177 10.856612657338601 4.9276838472341895
Ga 7.452925131327722 8.894671419570592 11.652352166596666
Ga 7.375664452146232 11.067092494134743 7.384886161391212
Ga 9.699739749256926 10.635261218582727 9.033151926530516
Ga 7.065187241760962 11.122182071803465 10.077223355661578
Ga 10.134097911802732 7.39772163491949 15.559989929058188
Ga 11.759534432154743 10.651144332007723 6.924139889614404
Ga 11.670475320043996 12.286864099084848 9.29212677075513
Ga 13.126786488368023 8.083997412126934 10.514936195721235
Ga 11.642028512528379 8.862531646829755 13.542466289448036
Ga 6.940990188644186 11.266796483020439 12.865066384663825
Ga 10.25924735113277 8.825345038862396 11.007078085790052
Ga 8.077170175474588 13.292151656822526 8.830212344422323
Ga 9.7641183611701 12.54142556934874 6.771442275077701
Ga 8.360779534578725 15.84441873952208 9.747909287330403
Ga 12.558828743696333 6.317923398227637 12.660351142822018
Ga 14.375407253574352 12.741746142119476 8.289473804607155
Ga 12.36928034382238 10.6132034470229 11.389089707515339
Ga 9.66312175453839 11.56498335700072 11.717823270877993
Ga 13.65003675635102 10.171442429600512 8.82972240047981
Ga 10.48143471681682 14.932038533439428 8.101866469113716
Ga 8.985934345261912 11.864785485942816 14.805041492846826
Ga 12.926177438625588 14.739865192855722 9.555078302342807
Ga 6.9780749072180575 13.641766845971675 14.176711836330352
Ga 8.871525790828585 9.223061983820102 13.82375332992173
Ga 14.319188619879759 8.416107350317219 13.147421540993937
Ga 16.386244248487223 11.11235695948367 9.074261852298791
Ga 7.791084003038213 13.774775164233493 11.566870531415423
Ga 12.411113134906529 13.524988716065382 6.673244796917956
Ga 10.65194915778911 10.134218097367652 15.991936836013075
Ga 10.040051045485109 14.006723181463688 13.440809127376573
Ga 10.413262730335603 14.305319541692793 10.761361863042424
Ga 15.024723679009853 12.782910267473786 10.962026873334404
Ga 12.574355360488974 13.400232191960296 12.024542407137995
Ga 15.166762222515576 9.96697202458609 11.17633173139852
Ga 14.289150447694759 11.614307041077998 13.3122688504158
Ga 13.368030154867757 10.027661960395614 15.327611100010126
Ga 11.580928507386936 11.721589887956913 13.90672475040135
