43
Energy = -112.36275305 eV
Ga 10.341733551075794 3.7826279677297934 5.706256678935087
Ga 8.719156857417724 5.42386337855086 3.774357868995564
Ga 7.193608831810699 3.559987759544376 6.19958766270019
Ga 9.179031754469163 3.8043180678059345 8.387534597946381
Ga 10.966360757940508 6.743614203427957 4.880832963704069
Ga 8.754687522381479 5.833910343080977 6.495471806433601
Ga 11.579107282914777 5.661888175376949 7.373099718269508
Ga 5.932175725092678 6.1627529340044305 5.929235468264549
Ga 6.788146577112599 5.293440630324605 8.758057926863655
Ga 8.04389376177019 7.908602224542278 4.646683448701304
Ga 11.421631808291494 4.7803716454518295 10.037261865766895
Ga 12.92421960151779 8.109877394862176 6.42590811261963
Ga 9.429880749550318 6.544333580220525 9.284909793364587
Ga 10.223086276453923 8.234587810491803 7.080531434105348
Ga 8.58494233401222 4.609347595422051 11.235692955890412
Ga 10.418205793362148 9.720300489828245 4.533609470752422
Ga 7.523939653816571 7.766393157497914 7.6288219724719575
Ga 12.215717307746425 7.64756410633671 9.16475504053917
Ga 4.853137793306968 7.572558960550924 8.635835953025097
Ga 6.126350766662315 11.846980682946574 6.38363799278857
Ga 9.143797808476902 12.436630988368204 5.403664285324828
Ga 9.035845346641969 11.867073687545167 12.758309729166665
Ga 8.487734917858896 13.606950948170656 10.522885431545632
Ga 6.2176849117259 12.020117185414357 12.182105919340502
Ga 7.034503397767169 9.496728955866699 12.884316545543555
Ga 10.687221899880623 11.73672279739311 10.244073993900953
Ga 7.972052577072474 10.809467203876547 10.440785700864387
Ga 9.751185715562046 9.307849975725954 12.385499197925554
Ga 5.733849052042547 12.55590252986952 9.29758477892793
Ga 5.064418030236239 9.88860119548221 10.745150349860863
Ga 8.5631260922829 12.30013888939062 8.106808086941717
Ga 8.119864777980077 6.955324403119752 12.781232541811427
Ga 12.320997637493134 9.46398302160021 11.350464026979237
Ga 7.439989366068872 8.039782700402037 10.337135738261914
Ga 9.966431424678307 9.216827898560716 9.593818730226303
Ga 5.247517579163624 7.330155607613557 11.921846214219775
Ga 11.013746835486575 10.87930664627291 7.425851501848374
Ga 6.550576683765725 10.033093159115483 8.464685495399861
Ga 10.928694009704248 6.898659083913102 11.73952749542224
Ga 3.8534288271731727 10.184984223565975 7.954628946779181
Ga 5.6089022349150355 9.006549511568418 5.919301830743295
Ga 7.205431218135082 10.485076274118049 4.053769734773103
Ga 8.39690850908903 10.03567556495668 6.487394551962
