47
Energy = -122.74521668 eV
Ga 12.153245923819018 12.611055134767799 7.761673600314309
Ga 14.59666662256966 12.57517032342502 9.019749074291399
Ga 17.158852117296675 13.103155288338696 8.219098675000264
Ga 10.92452915195746 10.564327243068306 9.0336860192044
Ga 13.933419747203523 16.575836320213753 10.986179682086613
Ga 12.616668294195222 14.726498079392742 9.469695959514622
Ga 13.660110831606605 10.027324695049597 8.575999907324562
Ga 12.056456320441406 8.55572193599414 10.477831215480638
Ga 15.456431137275038 15.167580850266564 9.281406167599581
Ga 8.907612465060224 15.038194237203124 11.59416700940778
Ga 12.687871675944386 11.762308783679869 10.773434339937006
Ga 16.502100487880323 10.39359112105392 9.100823078352521
Ga 17.04558923587337 12.964272477638259 10.859252336037251
Ga 10.080615875260825 13.184732716605758 9.816358836952391
Ga 8.588839597963506 10.110411169962696 10.016551272844756
Ga 11.172313503414466 16.634925068089167 11.286295197724176
Ga 12.456574207353635 7.02313000819714 12.702180192673946
Ga 11.502059142376597 13.880972736513261 12.19340468658941
Ga 17.247566267947683 17.337295463364665 13.740451945658862
Ga 7.7308880985146295 9.617744909138462 12.460410845301132
Ga 7.853614739727248 12.375990550527046 11.414608377591149
Ga 9.955487287558078 8.204763907772126 12.121792932375392
Ga 14.29760426379364 13.735001451740926 11.61753002010867
Ga 6.31174722682038 9.410876229141898 14.92068634520141
Ga 16.42880621799268 15.57058291837836 11.848745805231383
Ga 17.552190674668957 14.803777090933737 14.694658163799339
Ga 13.129456184428616 9.689801451577598 12.782801035274542
Ga 10.439956190402143 10.96071697522276 12.03759976882045
Ga 12.462937859836076 16.357080723717075 13.666254123101549
Ga 9.226184771104654 13.089501973451103 13.769788723741733
Ga 13.531585327571651 13.55800168500515 14.126954460767228
Ga 15.250610302746141 10.813162586318763 11.493842399996135
Ga 11.160227412222552 8.87614019921675 14.565189371793128
Ga 6.78932492430864 11.865281095529873 13.819690178978425
Ga 8.650696798117801 7.909177173407507 14.512953302755607
Ga 15.013892531794232 15.74678496100333 14.476829220780328
Ga 9.023373063836383 10.608996545914387 15.1006120343876
Ga 16.266204651070467 12.839238386558689 13.38259584809881
Ga 14.63850491696536 18.077054473627896 13.079417560625178
Ga 14.757858924179997 10.977553119236186 14.530863401243298
Ga 11.6919141840053 11.638450205131322 14.320919367918883
Ga 15.61750903820211 13.401673682469044 16.170944936768347
Ga 10.960105883457054 14.528766584832404 15.04172392782649
Ga 13.134396027189696 15.316547976206383 16.410947136279248
Ga 10.246943613467117 12.396286610183415 16.661221986404755
Ga 13.02626050760752 9.784422568364084 16.173451673105145
Ga 12.996464431714724 12.502388971313604 16.78099651347368
