43
Energy = -113.0359275 eV
Ga 13.363649958836954 11.316739470918582 14.151678736641239
Ga 11.266255161875668 7.547337638837308 10.99227367367085
Ga 6.82779572069647 9.5486396463641 10.943846611675788
Ga 13.407278919463577 9.075907109724504 6.933822171200885
Ga 13.565753387067796 14.125831669205024 9.959515488026549
Ga 8.91542345786328 11.210964843538472 14.051494691688825
Ga 6.757669183447697 12.007874968974845 12.569953601352154
Ga 9.428677655889176 9.020542787919384 6.757881648809079
Ga 11.119460923038673 10.533318960002237 15.468985425807839
Ga 11.34403818976057 7.858122049056752 8.34297767022447
Ga 9.112837464164627 11.502973395450608 8.165722866779879
Ga 13.123590949787804 8.653909105404523 15.317286992945068
Ga 11.381320788498725 15.579711055383303 9.869316123098159
Ga 11.318392075354664 10.44906595068306 9.602129516408267
Ga 9.01143316858675 13.747729426956347 12.788587388765828
Ga 9.010013704476687 8.697459285540724 12.376434478259606
Ga 6.777640868763191 9.7347561418618 8.096920064841752
Ga 11.38636673333158 13.271265115879803 8.27876152413418
Ga 15.583170659621821 12.185889947949228 12.800995278880752
Ga 13.510010122636793 8.760319721929084 9.740708863671458
Ga 15.678138136470158 12.327769787492905 9.953380217581122
Ga 11.247517859900453 13.08355945764282 11.27043329302207
Ga 9.175612675796845 11.357320688535966 11.114979405104101
Ga 13.301211594330704 11.326994922131734 11.252757748572684
Ga 11.409721937675526 10.965333218892383 6.838892579917842
Ga 11.185845733143442 12.972971352684336 14.268303426548465
Ga 9.103228838097806 8.837786665602225 9.581311290707417
Ga 6.857897644858038 12.154052330704804 9.568812549794762
Ga 13.557481878741031 11.608671349816134 8.375302426433848
Ga 11.214947579622134 10.29214252471329 12.670434557604946
Ga 13.468468097981102 13.977789630549553 12.831389278106963
Ga 15.888781928549644 9.918068964590473 8.452340343336216
Ga 11.164108276182594 7.583635620514857 13.657691922773976
Ga 13.416216406292664 8.620847076082946 12.50800303198479
Ga 9.113179363917576 13.901120304163536 9.678449173534984
Ga 9.145194415808813 8.597489328019401 15.21780333534525
Ga 6.58737880706612 9.454644530674434 13.785769130566024
Ga 15.699819254052084 9.63665181413828 14.065052982769506
Ga 15.621181422396166 9.653179470802147 11.24702487371818
Ga 11.283208216675904 15.432473234943776 12.917696915022601
Ga 15.891198665984332 14.696334641575902 11.505591522713996
Ga 6.63370513362865 14.429302001646553 11.178882646032674
Ga 9.102659151104382 16.152740109267516 11.351023807547584
