45
Energy = -113.94697872 eV
Ga 16.550331221557474 22.034124825657997 18.89820898686124
Ga 17.07628045526965 15.884480085956806 21.69871003556699
Ga 21.140572139221536 10.071642004680491 13.77152814484219
Ga 18.4884100793756 16.469318774672555 13.490811033908066
Ga 19.164397183181045 17.233472829734684 16.17408623976668
Ga 14.554908853765804 15.29586776403225 14.37747631584642
Ga 15.40371252104653 17.765037314407262 16.867215938190483
Ga 12.947954187943653 17.908484631736965 20.856747580354416
Ga 16.915690291808534 15.845466870144538 15.648230409938387
Ga 17.715064959265387 15.97222523353697 18.21505620911449
Ga 20.773005289366107 18.56935677947756 21.065618267205167
Ga 20.182622540580148 21.97887814340661 16.552662759116814
Ga 19.024328227489658 22.79891178051767 18.74412186787204
Ga 14.48184834322802 15.592048882035492 22.070861260742515
Ga 12.970131511610376 19.640221613271905 16.512133867489084
Ga 21.732814706786836 -2.5969381420507243 18.897655721293642
Ga 11.815937498873849 15.456367255319744 20.950449951293656
Ga 19.43656246034576 17.996716072558122 18.741642400130612
Ga 22.739256672223696 10.735846090023342 11.885905948484943
Ga 15.361108342757491 16.646086366520404 19.532439125428414
Ga 19.294069301836313 20.83850977945706 14.411678871973516
Ga 21.27283580116883 12.653257553498225 12.402377215579163
Ga 16.0421969561816 17.187516331745837 13.156387908374946
Ga 19.63382477681844 11.895720090829252 14.408292798425233
Ga 13.030959907541751 16.916211169745754 15.8001451638118
Ga 14.508171822335134 19.11181472753635 14.254902237461472
Ga 22.793230255869243 -4.277845178682133 16.981823628300106
Ga 20.178492668448417 18.393712792373133 13.842461635867553
Ga 16.880155978955173 18.86374137020698 19.012363304215548
Ga 19.692176047090555 15.86332730607571 20.662017324714064
Ga 14.78298306932606 14.768278072588403 17.072704082859058
Ga 14.268339256771265 19.454798618733808 19.103355444010255
Ga 18.383221426842706 20.191397338338724 17.26634851527359
Ga 16.526061027226074 14.03571205596051 19.617663751316737
Ga 15.465377932554675 18.31374210355285 21.777424645796327
Ga 18.788220515919583 20.684604890536114 20.331705869632593
Ga 15.605830866936014 20.546829953910805 16.828239508984172
Ga 21.050234013146422 19.176939349467936 16.27967029395657
Ga 17.24749761618978 18.980818662662685 15.013728608990668
Ga 13.846815965395491 14.338447907135272 19.50035744795345
Ga 21.11581700663156 20.111699490535308 18.930094278551273
Ga 18.15003325241466 18.367456735210432 21.478665875420116
Ga 12.891638133187946 16.822692779995762 18.370678687471827
Ga 19.706675784052194 14.321240848158574 13.164555621224265
Ga 16.14209655358596 20.764788207715625 21.191617093801888
