47
Energy = -122.44315418 eV
Ga 14.353105346863446 13.48283968161119 7.603331918008509
Ga 12.280211837694408 11.913940112675576 8.508109390828558
Ga 16.222509944272083 12.584056181411713 9.437687278733742
Ga 14.624126744613415 10.51144750318056 7.744427349684383
Ga 12.520773423428063 9.193610156888695 9.329860823784273
Ga 12.089859388644932 14.89909429867704 8.287532303727422
Ga 10.33638127013165 13.32218380500556 9.669169226390297
Ga 15.061759928067959 15.637723159414728 9.179322822570036
Ga 16.302396684013136 14.336719112479383 11.455137201803177
Ga 9.70304380536778 15.972510022183803 9.979155994424026
Ga 11.080429139696927 9.080616883094299 11.639570582087446
Ga 9.42195715013233 10.932425256411396 10.531259781874512
Ga 12.095763001615774 11.653467430014503 11.199993569598654
Ga 10.858505644398933 14.79764965769266 12.332391336921546
Ga 13.691209582239171 13.566758790169105 10.507877674457575
Ga 14.51659263587815 10.689541464809592 10.575985267638217
Ga 17.91220194905982 13.345076836700517 13.622039593989221
Ga 14.845021348940453 17.289021802035624 11.360327173658353
Ga 12.437127817912932 16.392186092078415 10.530983790902486
Ga 16.290838999164052 11.55560247209695 12.362925317014653
Ga 13.539484466054411 11.156894979281418 13.345242431551663
Ga 8.43927271858961 13.594099158736698 11.67599384962535
Ga 8.662285395118365 10.088853224879783 13.03946551361457
Ga 13.489286387389699 15.052928883831404 12.741843482944018
Ga 7.31603501178856 12.27200562652065 13.799444210114478
Ga 15.736435048583408 9.307913197871155 13.625202728132695
Ga 10.569009939846257 12.034218289572816 13.152069384000875
Ga 7.82540436853537 12.991941522735232 16.409631425762925
Ga 14.532199977153159 17.369435513081203 13.933270141973173
Ga 9.281928520658237 14.176052234303251 14.435478305218945
Ga 11.930010817972448 17.504786282368503 12.942332057666114
Ga 14.833313440101522 6.882792677159047 14.528660110722015
Ga 16.443395761027176 15.617183829136241 13.941954407290432
Ga 10.459416716532175 8.814553902476073 14.443217723810578
Ga 13.096424556458325 8.576296980757107 13.236104121277439
Ga 9.729193810213625 11.253919303447738 15.669559143501864
Ga 14.89614761021011 13.3051435436964 13.923269391654841
Ga 14.444048667595712 9.094853302370652 16.233173149885612
Ga 10.438712552016229 13.854821274145388 17.023357412959637
Ga 13.990675492489444 15.203974471703782 15.820304264342193
Ga 12.298121804701365 10.414330477879261 15.706766665640407
Ga 11.327074961878365 15.729899055881033 15.085949965343898
Ga 12.339552277722916 7.274542120951474 15.618897147149996
Ga 16.377741027779237 13.932413023191206 16.23364777215636
Ga 12.697683808003388 17.920166209637678 15.844949651913447
Ga 15.46363792278984 11.424564139217843 15.741875436466913
Ga 12.25225040400341 13.047505163883732 15.04381081453077
