44
Energy = -115.3682114 eV
Ga 5.816686410514179 10.062651976859687 9.625625086437182
Ga 6.011076134219579 12.440043121857395 11.046906751007356
Ga 5.74115575179845 7.223310213739733 11.717781113131862
Ga 5.607178670831351 7.466721784658393 8.877349333028542
Ga 7.991164404906047 11.460383113356704 8.80386754935812
Ga 5.142828257830894 10.051199723767974 12.301817928424132
Ga 7.093549002354504 9.295433277844056 7.294145818539209
Ga 9.418581731899708 10.840455451316693 6.6231964260102485
Ga 8.940182702147885 8.246575573450029 5.48047349144316
Ga 7.107822144477404 5.308872962134034 10.10535678612214
Ga 8.600716220116768 6.156416674913613 12.331829241083323
Ga 7.006943099157836 11.307285144468322 13.838259991534612
Ga 8.013598404489118 8.315457131014638 10.252600804108056
Ga 8.438003143948476 13.504170413371698 10.582911755134253
Ga 10.469375951708953 6.060894700322827 6.957585656799551
Ga 8.215586939979548 10.75695847443252 11.416679262699684
Ga 9.433067183792208 13.562536093171275 7.740222690043708
Ga 7.650188827224723 8.593915513863461 13.09421640785486
Ga 7.966129110776329 6.649111899877833 7.787065207766182
Ga 9.88332883068432 8.662392335537133 8.269570656867064
Ga 10.900414986413246 12.049914263350399 9.531432636024007
Ga 11.653992862892304 9.1388786294888 6.13940288308308
Ga 9.818252670081813 10.063339603390393 13.624551759041703
Ga 9.90839215820511 6.354707047035243 9.958073102918044
Ga 12.264765963642738 7.025235983305812 8.867485656698511
Ga 11.827481247251562 12.122744453169373 6.788710002105189
Ga 10.645341183073803 9.531602627350237 10.845379471434809
Ga 12.306360173089 9.919444450444969 8.733720131555698
Ga 9.106090090967871 12.908782507977197 13.246479325374052
Ga 10.93830273987123 7.54148444883189 12.679890790247702
Ga 12.145781256376202 14.3491316302767 8.404564773807602
Ga 11.367096902256725 12.029570531805708 12.04141377609883
Ga 14.176201557924662 10.655104309478872 6.47057793091922
Ga 14.138135418686879 7.987421253518588 7.2630352579878386
Ga 11.2608463571028 12.083303620218986 14.847482271744598
Ga 10.740346887229467 14.705865528098943 10.884937959167626
Ga 12.60194837340652 9.695798582350925 13.384480143299982
Ga 13.3498164779119 8.292256103524327 10.968916257350491
Ga 13.854818691031673 10.965616254354746 11.2696909568316
Ga 14.103755907086281 12.297710461613349 8.788839137843942
Ga 11.963597768153214 14.614216778900662 13.37418192125226
Ga 15.013884512091163 9.73425907668401 9.237497323093825
Ga 13.434314678316818 13.721667264327369 11.030426801539848
Ga 13.763009754964653 12.416571089951562 13.564513209541591
