43
Energy = -111.97532213 eV
Ga 10.99463245551483 10.484196563662685 17.419652841072754
Ga 8.873210741597337 9.749708674434917 15.623702296324447
Ga 7.558498801974052 13.27516163587873 14.432288142366968
Ga 9.449417062045828 7.995597298562537 13.462860856668641
Ga 11.611253121464213 9.067092276257412 15.059309828148187
Ga 11.36458310963056 13.828702877586068 16.643508049482467
Ga 8.040504290338806 10.849228362927613 13.232423817089403
Ga 14.43599841456801 9.282682579137193 15.521235233544417
Ga 8.573819436114274 9.24163798136883 11.136273052115058
Ga 10.572393280367915 14.961734223992385 14.0936050806361
Ga 10.074908791603626 12.118481041673084 14.974442196715039
Ga 9.164801960323588 13.806217709744514 12.27662964853102
Ga 12.821795236517683 11.52018963030766 15.704450291857807
Ga 10.847124764333541 10.387777866900198 12.820929064971633
Ga 11.454712612963483 7.845766566055985 11.59187854305767
Ga 7.061918263624974 12.52061617410721 11.21545447412445
Ga 10.78593079970622 9.399764285426228 9.523276741195165
Ga 8.018073732847114 10.979907596854817 9.084080265436445
Ga 13.385268818961125 8.863067003932663 12.988209271926754
Ga 12.095603214225454 12.79000826845203 13.180662200614584
Ga 13.70952318433455 13.995221057933701 15.275916620417437
Ga 15.780737983166748 15.602002288013963 11.420429422854312
Ga 13.713307657583362 15.184922766876992 9.606622799890236
Ga 13.555185325958135 17.400132517527716 11.065896565916526
Ga 14.445938146470239 13.146133306751077 8.032875411278335
Ga 16.40800304807167 13.405715448473536 9.86078627999399
Ga 15.886114958321699 14.268855026846447 13.715921576105199
Ga 12.084924117614184 13.014443458477416 9.476108147315212
Ga 17.72865621398243 10.85611967764983 10.324914766317118
Ga 12.388064650993401 12.461907688573941 6.540056783349679
Ga 13.527649873421371 15.830615771663357 13.214383638918612
Ga 14.262849411480524 12.985377234384178 11.604783577276223
Ga 11.496860959107172 14.980867909299723 11.363272957479252
Ga 17.326373258169525 12.570953107588673 12.403698629830266
Ga 12.878318428797698 10.692684735316899 11.061803199540304
Ga 15.209242820164215 10.770423120801858 9.43761518326121
Ga 9.39155798210154 14.161802840590985 9.55817057803702
Ga 12.901754016750361 10.460931867409196 8.314393774870714
Ga 10.095730655132922 12.00040242000565 7.838780434766685
Ga 15.597605160764347 10.252810089482212 12.125406112798652
Ga 10.013547898760242 11.771501100630353 10.796607964537642
Ga 12.276115483118469 16.361502655166827 15.597297676899476
Ga 14.999832575999212 11.719478012259804 14.24172872145324
