49
Energy = -128.7050124 eV
Ga 6.705775179003485 9.825150996759392 4.991028758145899
Ga 9.309143846313857 8.728429713663418 5.673152916281117
Ga 8.803148937615962 11.467860585671351 5.515319429517143
Ga 6.907959183839862 7.612052959045517 6.935043822544644
Ga 11.424504119450498 10.993358044833673 5.483231961137043
Ga 11.452707291434775 8.626723647474924 7.408269935326256
Ga 4.984715466927229 9.855522510113211 7.110133040335719
Ga 9.603659307338104 6.190884255302348 6.8394891867907415
Ga 6.3965681501736995 12.702519703775419 6.639839177791751
Ga 13.42291410202547 10.456441446471864 7.130836603972784
Ga 7.666587497990149 10.186632316743154 7.855087019818955
Ga 9.15252620205204 13.652326209753273 7.161354597047761
Ga 6.391202187570416 5.538493511502418 8.669201143971833
Ga 11.816747608128791 13.19190089452673 7.228749191027221
Ga 10.159877805378558 10.936940311891922 8.082954291272847
Ga 5.699395072854225 8.311942458905927 9.324860505343379
Ga 13.624072792771917 8.4457102635633 9.207136808729594
Ga 14.25762267746595 13.10089800487609 8.470965358241928
Ga 9.078325194264371 4.78425824242841 9.35331897881761
Ga 11.38831918288121 6.450177999642667 9.000462386261685
Ga 5.3313163807741235 10.985990678593819 9.580507431264412
Ga 15.190587445365011 10.682212766543206 9.182718957853604
Ga 8.663746579051688 7.729580309720937 9.056417643896237
Ga 7.567576565437945 12.661052671733708 9.228522638706266
Ga 14.647935700539659 11.928122282250499 11.595074424740787
Ga 9.783041239679298 6.321265993717983 11.410283426473223
Ga 12.3548738422558 11.21759230922744 9.695538326238298
Ga 5.73439963035857 12.539914723536473 11.804275137019912
Ga 12.80971400708758 13.84359509650987 10.679950745275425
Ga 8.51961324860077 12.802471378070617 11.704172264762521
Ga 7.883019052419239 9.9857850959555 10.598752095291955
Ga 10.343708134292532 13.120392918415543 9.689360172556134
Ga 7.002315069337667 6.7086576981223045 11.089176525712931
Ga 10.70899202117997 8.978594101510094 10.263695006632405
Ga 10.667381171382598 14.298494934270316 12.296165336861831
Ga 9.987849178074622 10.521653558452398 12.296893338018196
Ga 15.499084552698534 8.873057468934848 11.459632640508001
Ga 12.749080274641832 6.901581851917066 11.323584222107064
Ga 12.826624125630735 9.689393161452417 11.83377270728349
Ga 5.468263174828176 9.226383907863667 11.964621877007184
Ga 12.296812122021517 12.177146349049561 12.992300065938037
Ga 7.253922977249137 10.906656674116194 13.45203767488532
Ga 8.105065540817797 8.230140989943253 12.987959624756508
Ga 9.828608063136016 12.383308678272352 14.404984497549878
Ga 10.791689019678754 7.862543812656505 13.325789400705837
Ga 14.658732408874748 10.388543887010922 13.947483496810039
Ga 13.450304262787315 7.771375435728307 13.904906245646137
Ga 9.233578300038062 9.689785760633683 14.998850827760725
Ga 11.920654864041992 10.040742186608293 14.676398893125343
