43
Energy = -155.59219917 eV
Ga 11.581053940996172 10.672385430841974 4.909406193337443
Ga 8.602615228239522 10.414842720727274 4.307287714581312
Ga 12.645764644708478 7.863647922120746 5.386556150283367
Ga 13.984197885201912 13.196108486996659 7.166359752448412
Ga 9.9077916297599 6.1035366793382675 5.5583400474376745
Ga 10.451368789468013 14.032919118121757 7.108859841254476
Ga 15.313073812678843 9.149958345136703 6.828867148576733
Ga 15.15292490319568 6.435841714315078 8.184689710239587
Ga 8.051635289298401 12.124716998174076 6.844986314897042
Ga 7.608179378160923 8.001489176158875 5.896390117886033
Ga 10.781034874136456 11.060809325075482 7.811973831891965
Ga 12.343062902560849 7.643716949439683 8.43043789137429
Ga 14.219730655757127 15.686988954937478 8.855730104576748
Ga 16.58300988508415 14.809237703859898 7.114984708168945
Ga 14.064136883296431 10.607345828830377 9.225941985524319
Ga 9.65611521499279 13.448751789112706 10.021670571039863
Ga 9.84383346917859 5.760402313748358 8.58121011633674
Ga 3.471341870750776 10.183099785712162 9.736984531975562
Ga 16.855195691545592 9.955695688382203 10.536216758620046
Ga 16.016698364767535 7.099102509994156 11.027436803723623
Ga 7.944943298440657 13.064843145326952 13.057877850635911
Ga 6.18678884216655 11.555857655212483 9.940098996609585
Ga 8.530865977029794 15.763536970000482 11.60482531737391
Ga 3.9843493490887822 7.707797515362079 11.540104290589035
Ga 8.133947169869435 5.560308043056464 12.371809206702483
Ga 8.309947372433376 8.41461817315588 8.915852641369128
Ga 16.039408342283252 10.309007154289585 13.484447405672942
Ga 16.017196404525937 13.425837891210193 9.717304510306134
Ga 6.298050434335172 6.346532173009066 10.004932770746276
Ga 10.516524801382761 7.376481303884197 11.737675698340391
Ga 11.530338062577249 15.025906986233409 11.840208798177834
Ga 13.66031391309612 8.822875922912813 12.28673922797777
Ga 3.9682568600108348 12.46684836634308 11.67958034864827
Ga 6.263197922291804 13.396848545314239 15.53948097686848
Ga 6.098971379072699 9.51115700175032 12.662416301563216
Ga 4.407868826397982 11.092257777227777 14.725050632671042
Ga 9.281647045714793 9.545951064173675 13.983792074840085
Ga 13.667257798130205 12.145459640279535 12.87550850982916
Ga 11.780211199718217 7.648213747464623 14.464718834637772
Ga 7.072398210396414 10.60156176131111 16.29190345316044
Ga 7.1750064581505155 7.386536529169976 14.638107977555018
Ga 10.518474496114617 13.859672438881448 14.499444941338892
Ga 12.034790516257848 11.274812746667333 15.157308933473757
