41
Energy = -107.22022538 eV
Ga 10.460385197444728 15.27470689418596 11.258891532372404
Ga 7.713374976387898 13.235954755443336 11.671416936984953
Ga 12.232901769322279 15.019063553250993 13.242944150823593
Ga 9.99832738625796 13.260208232294408 13.1290707926329
Ga 12.357405138130357 12.580791288849012 14.657088743074189
Ga 8.21772248248869 15.146765200068478 9.623783919801356
Ga 7.110854371969915 10.722680538435583 10.763458047298288
Ga 9.233297606650993 10.291107561232478 8.888383341771561
Ga 9.369703453654786 10.835533557959371 12.23382312319971
Ga 12.849923040226868 14.871783584596113 9.793341882645995
Ga 10.069840564620229 11.192988485752277 15.090613015004218
Ga 7.382269697960421 8.792767654901974 12.786046456182717
Ga 14.595732342345517 14.233424270587724 14.638304799688594
Ga 7.534617151014379 12.663772084961977 8.641705384025164
Ga 9.964889114753026 12.736780172106405 10.085690621838816
Ga 14.534083126238581 14.451696123404789 11.79063135228477
Ga 12.299961710259108 12.59395423020163 11.515906179599657
Ga 6.450553813140931 10.175503109710021 8.057811250982144
Ga 9.96401688967205 8.692363993274066 13.94168730832164
Ga 10.62833435432853 14.893353803999977 8.222273342326064
Ga 6.894079286604305 8.164908373403893 9.905482697406342
Ga 9.912530338529104 12.451691427957632 7.175672452399952
Ga 11.789864385791041 10.143742473084718 10.29675987219022
Ga 12.290757388983328 12.511355781221235 8.59488290791465
Ga 7.869801423764287 6.311439154605175 11.623409492713883
Ga 14.588888666148623 11.965766385463969 12.985293740030805
Ga 14.785101795067732 12.487734384706243 10.027015279797618
Ga 9.711740202419945 8.345693498536022 10.968628558324907
Ga 12.110515466928959 10.347343537657233 13.226960685969747
Ga 10.332287167636032 6.284164446620277 13.006341574803455
Ga 9.651485367150181 9.945826334813956 6.118426697117766
Ga 8.17715230527045 8.099913579326564 7.401202724661926
Ga 12.169176290510983 10.148647364267324 7.062955524195011
Ga 10.963414282752993 8.16679700164903 8.38997760194853
Ga 9.080547120519936 6.2373983093572365 9.10707901061984
Ga 14.179721594426335 10.34516148061527 8.689207754168061
Ga 13.60571511870541 7.8753857253697985 9.550954135376795
Ga 9.802202581444956 4.3489838610370795 11.09686098101529
Ga 14.41314172072699 9.654254131004262 11.61387125212437
Ga 11.68081672700492 6.158179560732569 10.27230145936535
Ga 12.436422857020355 7.941904299008763 12.233193462974384
