45
Energy = -117.81004679 eV
Ga 5.4415860240435725 11.742047689394708 7.830563767653415
Ga 7.253903494129637 9.46040544895325 6.639566187780299
Ga 7.478341450771631 11.825323998521114 12.996104380748685
Ga 9.072918338447371 5.2881201949996255 11.24676922682463
Ga 6.09085824215746 8.095411810504718 2.4320139937031575
Ga 6.470983467179104 13.955554218701987 9.092179166289906
Ga 9.516032004943366 10.828040068537938 5.624297502385861
Ga 10.443739506272056 11.697117706982278 12.461413451213085
Ga 10.9752006459823 11.69863811784467 9.704063664389421
Ga 8.574149138860614 10.498351541569729 10.662311126475789
Ga 11.185785131188291 9.187100851219821 11.675889644502604
Ga 8.605902851788372 7.127749919783389 6.14815719926499
Ga 11.967529403559436 8.89718576648455 9.07003411065791
Ga 6.894165804560568 11.969502588616429 5.530724648631497
Ga 9.150045983958499 3.4794626003261713 6.9073826182506055
Ga 10.402210728126144 7.004421701148218 13.198375885409114
Ga 12.727918368003655 6.346504438031595 8.24921344547264
Ga 9.91360539252412 6.922715053346859 8.544444211055687
Ga 5.771259567750417 7.234730966784237 5.079269825251905
Ga 6.843052210973832 4.908513112726762 6.145232025953683
Ga 6.449737846349808 4.586510706887769 11.497210516808229
Ga 11.730646120396498 6.515118921556501 10.78977909147776
Ga 9.343645773620178 9.501247659235105 8.270276303354569
Ga 6.04244666567063 7.076646136265639 10.528681226250391
Ga 10.715435939404173 4.306171942338983 9.12432902710047
Ga 7.83023835732767 6.365675476601235 3.464356237941923
Ga 6.387312313778245 9.430082014794625 9.205592853628866
Ga 5.233178177329748 4.7959234413017455 8.94673371256815
Ga 7.378834503604969 6.920751829923143 13.154266149516749
Ga 5.980446061726007 11.761375662662598 10.629924061546015
Ga 9.403320631088686 4.513840752068311 4.42029007108801
Ga 4.465398621727247 9.434419288000662 6.74875338347098
Ga 7.931549535350651 5.130080910971351 8.789870391523623
Ga 8.836066089537644 9.353860939417267 13.349714634469745
Ga 8.698093781732137 13.25475532577818 10.64445381062563
Ga 6.1820763925175655 9.378278044191745 11.995772119232909
Ga 11.770867671215068 10.959043788623918 7.22328852872208
Ga 8.772209727059403 7.918560642628716 10.743811432261259
Ga 10.962696856320246 5.7044131048973705 6.295422954234474
Ga 8.384493595762285 9.08651264953021 3.9832011323190524
Ga 8.377358947684307 12.050318660934726 8.097869520204341
Ga 5.956481190883709 7.1554807571169485 7.72681911356235
Ga 10.596143886757018 7.412084144368831 3.9315621728827486
Ga 5.680318176955798 10.031485359916402 4.230351446637341
Ga 11.394452664472357 8.473101329002208 6.252301310149654
