47
Energy = -122.81294293 eV
Ga 10.913819932924488 8.676560901429724 5.489619481040087
Ga 8.667050052701052 6.40382408564152 5.431730042186544
Ga 8.323378512957287 8.991558169861 4.753901174588513
Ga 9.94154898627887 4.198014183772719 6.806373225207494
Ga 5.690904995080437 9.696237160786204 4.843670978724512
Ga 11.255184323210472 5.867520243476968 4.764903221393844
Ga 8.414228450381284 11.52050304541637 8.448779389550513
Ga 10.67947930344787 11.201280035732248 6.608396997458916
Ga 6.905787325167426 4.334159260075432 6.355613714798012
Ga 12.733066216000097 9.205615306728802 7.675785627966318
Ga 7.328974677073102 11.60492400980498 5.868582081371406
Ga 8.704854618893268 8.942732700057862 7.475693730683777
Ga 6.362246330249886 13.397150516652426 8.127228031875218
Ga 13.215111472830351 6.980828839637161 6.415386445792097
Ga 8.360233558829744 5.920258319816067 8.15913866135401
Ga 12.619164155628743 4.4764954483097 7.680452410530867
Ga 6.213558737486307 7.209809364132195 6.23888194634948
Ga 5.884677835226535 10.007473254612723 7.701957008807147
Ga 4.209750833715813 7.645492143438357 8.248162641052023
Ga 8.207888280222752 3.1936451470719436 9.149125276488327
Ga 9.172808439055286 13.65771593890907 6.875073072283518
Ga 4.263918514156295 11.712605009983486 9.222300126910419
Ga 10.763831508839973 6.799353579364906 7.5142704847741175
Ga 6.778252846969403 7.6771539950386485 9.19000423523529
Ga 10.503543409926861 4.84184668413438 9.819799274255992
Ga 11.018099274797745 13.058520140624974 8.945324035737706
Ga 5.713878494565128 5.087242829918061 8.88368274831586
Ga 9.821774547083649 7.673763070316648 9.940922041148287
Ga 13.305377844586477 11.4213399636555 8.967063801600888
Ga 10.69549111602723 10.125820916324663 9.26506586273698
Ga 12.666576754069823 6.577138150660463 9.515375963034968
Ga 8.446447681622901 13.94379324048389 9.904397450402987
Ga 7.8095882570606525 9.72004504950749 10.312476253079366
Ga 6.4183072331146915 12.033559987289669 10.864871793747964
Ga 5.244474482394193 6.573111016762642 11.249836542383585
Ga 7.876076903993523 5.363521385771784 10.892174614282089
Ga 4.947052940179235 9.423098409483094 10.485328485496563
Ga 9.437338968508142 11.597467504164722 11.08866970029484
Ga 12.598411403258291 8.889616658596998 10.795785616395223
Ga 7.669940917594412 7.8064178121689 12.201616015244221
Ga 10.402006671220427 6.309188840164894 12.223978784306503
Ga 12.28597146457189 11.537181501517992 11.451368572247842
Ga 10.732841011904771 13.97580307149018 11.754277342746096
Ga 10.33670746995167 9.199752635301781 12.429013772926213
Ga 7.993716268123246 13.227525901411678 12.81302533711622
Ga 7.7481313107685885 10.4148689430431 13.12439211771467
Ga 10.458705065751202 11.618645025856866 13.766703266764589
