40
Energy = -104.75189132 eV
Ga 8.393740437110297 9.681896339295715 10.168449511336082
Ga 10.702510993062672 12.541321702296909 8.72807910487812
Ga 12.972160273751467 8.712061611264414 10.284651273492027
Ga 15.153397650825836 9.942629134082415 9.057791796938636
Ga 7.1949003907331885 14.517725081474065 11.78420368459069
Ga 13.165863112329824 12.822696794650918 12.691077589906294
Ga 15.316239923955022 12.844501244456895 8.73114007550626
Ga 15.685716759324567 11.759367807130841 11.34722978729684
Ga 10.793411018793515 9.621924903325763 8.66947066011786
Ga 12.814443157362648 7.435333420609589 12.77795318331077
Ga 8.536577066125371 10.162117177606087 13.070576378084965
Ga 12.865034356177322 11.219133442202887 7.522344893462369
Ga 10.52843147490981 8.093783527109519 11.075778170416342
Ga 8.23407741607505 7.577560401067347 12.468604139744693
Ga 10.589928680377625 10.943808874084642 11.31326511443535
Ga 14.68626063374054 8.616016497808443 14.26451420003586
Ga 8.387294050535486 12.417824458857664 10.030761658023431
Ga 13.137320717994296 12.19615943537409 15.294230803777396
Ga 13.09238609846815 11.52124379514822 10.300311108978853
Ga 12.929667699288194 14.00216949437788 8.996245205759944
Ga 8.99442348966225 15.068084387759196 9.773230634864152
Ga 15.545970459297532 13.695715792845924 13.912838159190699
Ga 12.802984109046074 10.20161378289183 12.866605362772582
Ga 15.349838757576373 8.997488735954423 11.707543578425232
Ga 11.079511955608552 13.89840213839192 14.344028368487582
Ga 10.679378493673681 11.23980976422922 14.462886135911347
Ga 11.046029570813184 13.642358476591392 11.297618011488005
Ga 15.58689468542821 11.094691128445163 13.991687532235607
Ga 6.613892805127733 11.714134143874224 11.948383679391902
Ga 10.563315499261634 8.471823412356857 13.931033069344691
Ga 12.398236564830528 9.218402300378669 15.784827132420158
Ga 14.776765146775793 10.476549965160746 16.620465511544197
Ga 9.003612739440758 12.796685479461713 12.969572209739095
Ga 14.152251225685347 16.429459185299418 9.756065257978387
Ga 11.385351004098096 16.051788066440782 9.805140252186488
Ga 14.962875483783964 14.3681630018593 11.279725103958395
Ga 9.554317519236983 15.803761109352894 12.693654000085147
Ga 11.40608897414121 16.62693464793707 14.475209285391292
Ga 13.566461790204315 15.179882055133891 14.888744140520824
Ga 12.649826290864558 15.692365758908746 12.211452572657484
