47
Energy = -123.09536423 eV
Ga 7.181579823064889 11.958305625093013 6.5072407533981
Ga 9.445571133253411 11.915904131922801 4.593301524822341
Ga 9.126813265226597 7.643207156619195 5.251864358140829
Ga 12.065438072583145 11.95791879661725 5.580781721788604
Ga 11.223299360743765 9.280241769064213 4.366816546044445
Ga 4.8694108452464295 10.732933320786554 7.031390514054484
Ga 11.637247722825597 7.654191354474858 6.673572781331157
Ga 8.485314700765686 14.235287456071566 5.718871373080989
Ga 7.328909093109377 6.328740985589884 6.687394155764054
Ga 11.299140273297052 14.53259265968302 6.171137056613057
Ga 7.190107885965974 9.271666277744247 7.1867816895522205
Ga 12.455707313963341 12.32288731592036 8.4676121916077
Ga 6.5500073620006045 7.474016991569421 9.361003198230557
Ga 5.54807797408332 4.992201269396426 8.29185500025954
Ga 9.884147381702931 9.965079923676239 6.680836737136122
Ga 8.086370759110697 3.6955678176739997 7.448696909839202
Ga 4.783056249534273 7.7082914119072985 7.174545798490082
Ga 10.229917677989244 5.529095156974891 7.426666375482772
Ga 13.142195414751798 9.825350324032811 6.858379047273757
Ga 9.96713589261394 12.52621366627038 7.332919136137425
Ga 7.377165771322468 3.0455583239496136 10.205953644732851
Ga 7.95639465717524 14.041541548897438 8.440907372480718
Ga 3.8280115095865925 6.854344146812152 9.824780097503304
Ga 9.161235895266342 10.9145561491673 9.14973279482832
Ga 5.981417376890946 5.349915811796184 11.20810856962424
Ga 9.179138216403055 7.917846529673208 8.549472320132459
Ga 8.299067387248098 5.561136626716097 9.540788006276651
Ga 11.453156290873398 9.304978125589905 8.992077920397046
Ga 13.333583512135194 7.077697294648122 8.83069797251559
Ga 10.335904537075072 3.713646295433696 9.53899026884735
Ga 10.217362546717629 13.487837766322505 9.984724622888686
Ga 13.989564479854323 10.30551611151078 9.550164642238313
Ga 4.819388581979672 9.681338534471415 9.551256365915783
Ga 7.4394082604822955 9.571840917833274 10.603155162359878
Ga 6.504673088441378 11.947063212883654 9.461469272480155
Ga 10.933791824733284 6.353331862646342 10.31262065161615
Ga 11.693876146453883 11.281201312389117 11.145013699819044
Ga 9.91799790287959 9.02175078010882 11.247136085984053
Ga 7.959307169005573 7.070553732419373 12.030684707533165
Ga 5.391379700796949 8.229877285266518 12.014942612955235
Ga 9.149938638708317 4.620692360024619 12.05563373535084
Ga 8.771399496535818 11.811526747266615 11.820199958842117
Ga 12.647614473404975 8.362634641299946 11.384486804880654
Ga 5.841848938198229 11.19484859895893 12.182475504755365
Ga 8.066984597722454 9.529337404275386 13.419220753789567
Ga 10.578467481927735 6.993042686600161 13.094416806565803
Ga 11.234113556781594 9.768332022381808 13.610863016070844
