45
Energy = -119.26203459 eV
Ga 6.849693764347219 7.878665099770953 13.064251434176468
Ga 9.343243467128516 8.47219318364576 13.943767051086834
Ga 5.558790256516585 9.668423390190705 11.4255918548343
Ga 7.531614360565205 10.533638452553392 13.509513769945922
Ga 10.048384929171354 11.164602630033931 14.282545160446949
Ga 6.358556196747126 6.786261171700166 10.532217413517207
Ga 8.336182821749402 13.270659042789317 13.27065683952346
Ga 6.341237728263143 12.252735196933239 11.644193239334841
Ga 5.314147843648401 11.78847409746193 9.012676502641424
Ga 11.491101824280666 6.81180320632446 12.700026703661143
Ga 8.82768846812268 6.089890504556543 12.240095429206969
Ga 5.661355948808394 8.923340925472269 8.852504339298036
Ga 8.557680944208224 8.720430401654768 11.037053735939333
Ga 11.23988723173954 9.574960833649445 11.648470641397191
Ga 7.745315646252675 13.810148298235795 9.924678213611124
Ga 9.357104406602751 11.48155976475143 11.463214808546974
Ga 11.119237712512167 13.345375794107749 12.957851117604605
Ga 8.733411958594498 5.6448466734930625 9.499845806144679
Ga 10.298399957203277 14.431011558830168 10.65883417611503
Ga 7.720434964556163 10.720848963429075 9.56051122169536
Ga 11.948585674307731 9.131795693532807 14.306042304965617
Ga 13.049816521067621 6.421669035840571 10.41495506977991
Ga 13.0502954101666 11.410746165287712 13.175156609541242
Ga 11.340478898110515 5.198520399151476 8.66914704476281
Ga 10.670406951349241 7.651108099763333 9.818900798373088
Ga 7.2585175262306585 7.067746066191678 7.708651958793109
Ga 11.911051153696578 12.057072754819414 10.601274098557694
Ga 9.271602936993292 9.208483324958783 8.093930370369753
Ga 11.934076110577779 14.00840097074147 8.540643699220785
Ga 11.82457464679799 9.930471260164932 8.841939967580805
Ga 6.7137557256484595 10.195868641049714 6.737564555349861
Ga 7.485505527873776 12.77683019519764 7.416383492301077
Ga 13.747099902837816 8.492206587339435 12.29981282958249
Ga 9.943744012062602 11.90236178781465 8.668205354003234
Ga 9.904344722254674 6.676144242676729 6.880024522042806
Ga 14.389560723727774 10.867668729232841 10.905926077653074
Ga 12.668684621918937 7.323262561236912 7.452579829483907
Ga 9.949461457785661 13.777286499446019 6.633989746499597
Ga 11.255234038601628 9.171136049389915 5.921231176928968
Ga 8.575677281791743 8.589172129981817 5.424466155923148
Ga 13.970205061249874 12.131685020013332 8.5537196982139
Ga 9.336900632287895 11.222573521029144 5.750822938566969
Ga 14.278638073042625 8.643965800104485 9.36166949630269
Ga 13.811170499011832 9.862647299918601 6.893152747210045
Ga 11.89196260234681 11.799740122941698 6.481617054179724
