47
Energy = -124.41676452 eV
Ga 5.838123998154666 11.71974407810722 9.458732535016493
Ga 10.017352046660411 14.711345285435366 11.173945690079863
Ga 6.673030757631938 11.778676958641283 12.613191802215805
Ga 11.123715054946533 12.441244602900609 14.051744219510587
Ga 7.037788077058592 13.05235285717119 7.464687248767722
Ga 7.738532479131358 13.374706957622175 10.46488056689645
Ga 8.729945717736257 13.402284098213155 13.2289907032813
Ga 9.355722643407429 14.590825565064055 8.49104899322593
Ga 8.200899128586821 15.189554380352886 6.154184652604553
Ga 12.409133929728934 13.980987199843275 12.154762377284449
Ga 6.095691247230621 9.113826585578158 8.72315893652879
Ga 11.542247122415882 9.856980815241052 14.70107703859585
Ga 11.886069349941883 13.938204570354687 9.1646550942599
Ga 5.184138102719301 9.813763243211437 11.323013449483083
Ga 9.33530561968309 8.259515057393628 14.688630364708931
Ga 10.565140514138356 11.991173788463255 11.11320791451867
Ga 7.498039856946993 10.43072477644809 6.743167035729288
Ga 13.634746864502516 11.447291774274836 13.089019768045185
Ga 9.202111170138176 10.578375169780502 13.209309047573615
Ga 7.028109862112291 8.71857848947117 13.276143590330781
Ga 8.053638813548895 10.368827192617449 10.595862951886653
Ga 9.430627247632298 11.744600298944201 8.612167116159656
Ga 9.60403884343189 12.896255985207647 6.002948677757526
Ga 7.170919045475682 6.887967925078875 7.787502610441592
Ga 9.375400626583742 8.26920174323562 11.527011029970204
Ga 11.675729535913122 9.722511476208677 11.846050613002284
Ga 8.819344798342149 8.164950781780211 5.937527025969622
Ga 6.696122363189653 7.471259066079318 10.85236222087724
Ga 10.411774711755317 10.42217581258712 6.193618114617071
Ga 13.626862703675256 12.354234120120298 10.407855753540185
Ga 12.30324422180632 12.440100259073454 6.9783332866086445
Ga 11.844069357563795 10.503989043323442 9.014258047850266
Ga 9.11476384243626 8.838306474910349 8.643136948865642
Ga 11.298325601954136 8.042367893560959 9.725554929334985
Ga 8.438195350872048 6.084216745703536 12.884675584932658
Ga 14.462537413345641 9.682173808793408 11.076200612593738
Ga 13.642174129943605 8.568790793415879 13.534709914167424
Ga 11.293634921274421 7.079158370365101 13.238702750691264
Ga 8.446664227003916 5.721726808094153 10.0292092768854
Ga 9.88010864146426 5.935134638968716 7.643701494376434
Ga 13.514945992691004 6.8923835537852 11.249243807836127
Ga 11.461850639830207 7.89147235344031 6.473042989610954
Ga 13.152664895227337 9.870515648053765 6.539401010357332
Ga 14.745601947481408 10.902334435067903 8.484735958052331
Ga 13.900517079528582 8.214668978665598 8.717462454072948
Ga 12.477220820010686 5.845494581732021 8.744257783442876
Ga 10.911251882706527 5.491126295978517 11.027955358327224
