41
Energy = -107.03484249 eV
Ga 6.884561143825365 7.173316925573658 3.1708427534854517
Ga 9.063571337721845 9.08385225156883 4.132679220201435
Ga 6.19360923460816 9.972766128751845 3.9180111552013304
Ga 8.905036565380682 6.175005042605221 5.0226123027301295
Ga 7.670246473101105 3.5614177221898267 4.537643983645103
Ga 4.294423432664863 7.767562310219237 4.643103622635874
Ga 11.302403015600136 4.882124981302474 5.916118109247531
Ga 11.569675818309475 7.843475528903177 5.9225218036707545
Ga 5.697286251301746 5.452353102764549 5.313943490202479
Ga 6.766659231765307 8.0272545660029 5.770056500616905
Ga 5.508093013772744 12.394274511111808 5.780586501316513
Ga 9.084005023224893 8.524366020338238 6.80163907239608
Ga 7.967848396601918 11.076550885565622 5.994294152008748
Ga 8.908879811724383 3.791649551504412 7.086007553779092
Ga 10.834840036339857 10.707842978739205 6.469157580045619
Ga 4.592536242235101 9.906050682606406 6.442882487207253
Ga 9.949355688320383 6.26850309538271 7.8564970740285265
Ga 12.681080574945218 6.336795345780506 8.263776875141058
Ga 4.45019559365512 7.136053148018929 7.5286191204079795
Ga 6.160828696162271 3.072702694603143 6.804596598054276
Ga 9.27668123368459 13.058634711260062 8.150510089042749
Ga 7.257371719625196 5.9722313928802455 7.469965562108951
Ga 10.995538552377312 3.968689806505567 8.989851522904916
Ga 6.599391434756016 9.195649636596851 8.10142922176326
Ga 6.518339758688553 11.932932396590662 8.402911623793674
Ga 5.500714346703838 4.483939942898835 8.977617893526048
Ga 11.487172676794193 8.855676841387869 8.766910422548946
Ga 8.890573193127757 10.404591384474362 8.677323304418161
Ga 11.274032825189513 11.471659429584616 9.531354541935046
Ga 4.326572423615614 9.330272916647818 9.656031074178207
Ga 8.692733016892317 7.897753009783414 9.459286615817948
Ga 3.6942164923030876 6.340698135062155 10.181122461701307
Ga 6.247367391456489 7.13636913848365 9.77071593217006
Ga 8.43551110840147 5.035814702520866 10.016671212508522
Ga 8.518726536983362 12.197811966781794 10.8031892121433
Ga 6.870963051429349 9.998179880250836 10.936598108197249
Ga 10.840081795544995 6.59263251023298 10.612064133230175
Ga 9.845147407720418 9.550103627416958 11.29139139821805
Ga 6.155805548624341 5.140210194767555 11.679724085911541
Ga 5.202424959687998 7.951791393945263 12.232349945440708
Ga 8.00593203034419 7.45087259360698 12.037824767630207
