42
Energy = -109.87304813 eV
Ga 9.911493211540275 9.37858740171662 3.82613906241614
Ga 7.316135415716915 10.424388097141458 4.541299329964356
Ga 6.118119909947339 5.49241133855399 3.9870393279931924
Ga 8.055713477938738 7.49956585203967 4.4068579524179725
Ga 5.136993938470673 8.147253390331775 4.720479101125547
Ga 9.756657317591717 11.969727188244484 5.550625985868322
Ga 10.826548794429085 6.990752309446973 5.495640402782769
Ga 12.061280783419885 9.583702841639798 5.538926814971633
Ga 8.635170224674935 4.871217414681122 5.545742399013194
Ga 9.513995539363894 9.509777534827819 6.725237845416109
Ga 4.684275804995996 10.683406760673858 6.314729922128718
Ga 3.7710563614560217 5.6940154617324845 6.041781072782277
Ga 6.859845572080901 8.899532588903382 6.822793797543664
Ga 6.13421195685416 3.613043261942115 6.567285651291915
Ga 7.338012910519458 11.5194614710662 7.159961064364689
Ga 6.44511785502929 6.29897306772861 6.586598264182059
Ga 8.848131253546358 7.0278335999030626 7.365299775921881
Ga 4.200216800349208 7.947555292701473 7.532726999028263
Ga 10.704674723243954 4.890248241171655 7.626803284034202
Ga 11.56443373978892 7.684486873077656 8.09298080532203
Ga 12.083136940700864 10.955761078785109 7.90133016395273
Ga 4.853423713978688 5.1861438360747405 8.669214958419047
Ga 9.534062222842545 11.856618510653265 8.506907848081761
Ga 7.9180060345999035 4.525988613883591 8.586869183088575
Ga 7.842182070955302 9.669206650606169 9.532991506989342
Ga 10.462793103218521 4.573023192714189 10.600441386667589
Ga 9.031925218480048 6.898860153850869 9.994923636088918
Ga 6.678159131316087 12.469811665037678 9.7352482362087
Ga 10.404667954325937 9.452391924092694 9.745590561079277
Ga 5.194013082247569 9.963362814843094 9.19209948981557
Ga 13.105188084868326 9.284025675942075 9.887906213455091
Ga 11.54290813224693 12.109335517103037 10.390109640044898
Ga 6.579585999641675 7.332462140951756 9.085888868484163
Ga 4.114489442748569 7.446526637540543 10.51399412229097
Ga 11.644511142951655 7.087805082665157 10.951632191756932
Ga 6.475795906401941 5.210103884093924 11.017172998854805
Ga 9.01151992510923 11.435895382281952 11.299394421104118
Ga 8.848017711506854 6.022577571798146 12.531372740406798
Ga 6.185610219577076 10.619767571011248 11.941709068763858
Ga 9.149319419793054 8.829745472768842 12.282091170211652
Ga 11.616145800847704 9.863487196582875 12.27494871960331
Ga 6.68870725859388 7.92741354710509 11.75546812397272
