49
Energy = -129.74880051 eV
Ga 8.185053925879366 8.585675437513277 4.717129409056493
Ga 10.357065662274065 10.39952383969455 4.1292251929140775
Ga 11.356942821344214 12.194707909882176 6.318604182113814
Ga 10.765058996671806 7.483087698068121 5.234202614888029
Ga 6.375694829782122 10.471699144388008 5.964791799368083
Ga 12.582187957200503 9.509530985652662 5.715610223423622
Ga 8.644238200692557 11.998005975597419 5.667953670302635
Ga 10.959541133581004 5.522903631861502 7.060952595843787
Ga 8.15769782255891 5.867396242015108 5.683643953610734
Ga 5.78706220070826 7.69797741665991 6.036542944254354
Ga 6.853545972951751 13.330572750785167 7.307856131661183
Ga 5.992387337128967 8.964234520750718 8.528712077954872
Ga 9.8171707385861 9.73522000388162 6.741528589912263
Ga 8.62891026927035 4.668178734263355 8.21068876085595
Ga 13.660016269753644 10.45319433660609 8.12317403458543
Ga 12.65023066841561 13.055920538720471 8.734624229829908
Ga 11.550837965399895 8.252860775038759 8.036015308904227
Ga 3.864509977895089 9.90047560811686 7.013909081472734
Ga 14.185635930354149 7.614996495061067 7.46678712909411
Ga 8.030673642479464 10.867081732551005 8.331012584400035
Ga 9.546171551231113 13.611757138618616 8.075846555777533
Ga 6.237545592912321 5.9596670388129125 8.11463429976034
Ga 3.6342711844770963 7.25271209393323 8.091285430031224
Ga 8.306779076237262 7.804178010674233 7.62349749242379
Ga 10.844791488755853 10.883760179251986 8.87173565538505
Ga 7.895495642154118 8.370238592421344 10.314467331570468
Ga 5.326974000077027 11.593298413675395 8.86305157012404
Ga 12.519375451393287 5.85439091317362 9.177190240237394
Ga 5.317241843179788 7.131218862481144 10.49669495601972
Ga 3.8152016038760377 9.602052461385494 10.196246999126217
Ga 9.82416062278589 6.77909393148593 9.555731588216405
Ga 7.3530300955875525 5.208609843613808 10.712235245507161
Ga 7.487853228663163 13.095904201577566 10.066115531911153
Ga 13.583802162733525 8.466479940727272 10.042232170660569
Ga 10.320252732008498 4.24203536642317 10.565217059393877
Ga 10.52519350782051 13.212896534990687 10.695270504950741
Ga 12.860980125612937 11.178732349635744 10.853665730928554
Ga 8.973647223123843 10.722319005605083 10.783518108974832
Ga 10.908037040806226 8.902526696951849 10.75527529484057
Ga 6.721271758175773 7.669951749000487 12.650996752491707
Ga 6.092907339044926 10.607203740762962 11.401213092554904
Ga 12.029793491791466 6.460093450967449 11.851715197616679
Ga 9.27478422279006 6.355570528472461 12.28997301478834
Ga 8.42782966135377 12.71863937134013 12.611486161958654
Ga 13.011989916243627 9.036972331699031 12.72421785760264
Ga 10.850284574160135 11.288235093015915 12.863075942628011
Ga 8.007507926467493 10.077873200133341 13.315844038524794
Ga 10.40218426073793 8.61492053040541 13.436053243887764
Ga 8.340818716867355 7.570063015652652 14.823186781655629
