45
Energy = -118.2327303 eV
Ga 6.940270850675137 8.574411977276327 12.453034228467844
Ga 7.438356669599108 6.200744959542095 11.063168056428129
Ga 8.62439606783162 9.954554642456285 14.196203908957681
Ga 6.564450079463354 11.617316863409048 11.985962886742447
Ga 6.34577757956529 9.549178909641224 10.010297553207996
Ga 9.560938119456583 7.74090278563789 12.445102445085865
Ga 10.160959859694298 5.5305959013108215 10.912701911147613
Ga 10.626674468327026 10.76216398256296 15.768477409641154
Ga 6.801075774415098 7.296665493034197 8.534031127139443
Ga 8.382369996955665 12.752666278802575 13.83984142343984
Ga 8.899659350506944 13.347351085075465 11.110794095727865
Ga 11.392292309066887 8.897691488023773 13.871985218551744
Ga 9.030791650661131 10.483521437385457 11.433252783946521
Ga 7.2942548073567925 12.016789795899163 9.32535367726781
Ga 12.313341592534433 6.968378890759969 12.02871614218232
Ga 9.247184682047987 5.9723954001746895 8.29708374189519
Ga 9.049463168055444 8.33760513019351 9.796318569818334
Ga 12.595125721300478 12.4629879692363 16.76803564207414
Ga 10.586343369509759 13.513871156434792 15.140731992308373
Ga 10.799523092724623 14.440615961670566 12.637537325973145
Ga 7.611634286245039 9.653192992840582 7.325797773559979
Ga 11.106304111564128 11.593366224413222 12.968545542421694
Ga 13.153007070143163 13.490456094894048 14.137707552298526
Ga 9.801063155195942 10.809347864803799 8.699738129800197
Ga 11.32477265762244 15.266276313946863 10.19748456710581
Ga 11.637246039568138 9.571646136529461 10.924650313369545
Ga 9.880193884282736 8.170423197656499 6.840743098499955
Ga 13.287733250194718 10.74281775748026 14.74047631373691
Ga 9.596879319344902 13.643761269790446 8.498347306894063
Ga 11.597001599326477 7.104232662866904 9.108109247024464
Ga 13.941758546456825 8.952769781990444 12.71168355388353
Ga 13.862288910241412 11.682983832233251 12.194304027610332
Ga 13.56651305288028 14.427281677987832 11.631198515582428
Ga 8.050030825576789 12.213033089112677 6.742884955641926
Ga 13.843801746880382 8.286099141892155 9.731698492154578
Ga 11.604416697809222 12.431081576545845 10.30904974735536
Ga 15.896579116554593 12.686263943321485 10.54539085093719
Ga 10.375223968014168 10.58352629511265 5.791646940165722
Ga 11.96449931788262 15.132923365861807 7.531876723759641
Ga 12.182282546965086 9.525829944480586 7.862228355999215
Ga 13.89722102763712 13.776078968817464 8.956106549170975
Ga 15.831445005798425 9.845867561791893 11.008941118234064
Ga 10.258607829090408 13.42452281153017 5.688957126247923
Ga 13.879019946314195 11.060688400422288 9.39033514670465
Ga 11.994020776359232 12.235309419533351 7.539704827625662
