48
Energy = -126.07408303 eV
Ga 10.961106451696738 12.669141951156748 5.2954337986559965
Ga 11.148723866701204 9.903713000156667 4.844088411742416
Ga 13.60745345088359 13.073598691202827 5.569276681039269
Ga 9.015613590363783 11.074305930748999 6.55859059519551
Ga 13.934933833959693 10.351502345082732 5.846173221172815
Ga 12.570553655715653 8.317933007640912 6.9501798235597425
Ga 9.324226305066933 13.779736419206642 7.364267539087227
Ga 6.776230138297433 12.315589792890757 7.513686527687981
Ga 12.101757052975596 14.179535682513576 7.710081113292033
Ga 9.783623251087214 8.414175894305599 6.717792537614229
Ga 11.748438727802345 11.053439575693343 7.507759399613644
Ga 6.945259754094385 9.351052109526014 7.587525395244687
Ga 14.208752553978764 12.405210668842292 8.279318693089648
Ga 14.65655041001552 9.691678766392364 8.506927580208579
Ga 9.400814477544415 10.000435059773498 9.101140525326665
Ga 11.134282854368209 6.945050447308211 8.75664703277026
Ga 8.411488170851246 7.164147582602199 8.736855762496939
Ga 10.28950241357099 15.152845274155002 9.676082142838188
Ga 12.141730358973808 9.315355152917387 9.71217202861126
Ga 8.135090857466476 13.261455421491542 9.698074639196612
Ga 13.978950252955045 6.951451532943409 9.226279731621899
Ga 6.606517168611295 11.000705128994392 10.030756249424803
Ga 13.126388792330284 14.119072569206326 10.358594385177001
Ga 10.90677420417376 12.3867157296427 9.686025054556096
Ga 10.104862865873155 8.223517225881265 11.111294340216208
Ga 10.974031182369274 5.149999087040308 10.921676053499665
Ga 9.167045734409186 11.170900892157208 11.514658134994045
Ga 9.153408123646646 13.951121627632915 12.089159694723739
Ga 14.613462928887099 9.056255904553238 11.221619727805013
Ga 7.279131569264963 8.526515346383853 10.773383775253404
Ga 13.651249981458037 11.458838059360389 10.771049245653748
Ga 8.348636288982291 5.9354088733472095 11.14716968448783
Ga 6.592288275976428 12.906456247471068 12.135839151292041
Ga 12.682399469190461 7.144388175251642 11.797919138582255
Ga 12.15435368665925 9.782182305805048 12.570778917858908
Ga 11.697657221466029 12.455564324742356 12.319345788043874
Ga 11.582036330234677 15.41218550223157 12.14223489832182
Ga 6.753545748978005 10.301541299822091 12.899176348812794
Ga 9.479539232402335 9.437713492361187 13.551902469468821
Ga 10.417699532509113 6.533809131381462 13.32301294321148
Ga 10.678999680244656 13.963943872641126 14.40754265887644
Ga 7.552919307414798 7.392435763732084 13.251855846459337
Ga 11.428184608305386 11.268976580001759 14.967932884868526
Ga 11.77959780085125 8.489544288239419 14.982012828862805
Ga 8.536797334387542 12.101462362452837 14.167688224393741
Ga 6.7243620612965715 8.98692956098536 15.316381316419573
Ga 9.159863649233264 7.547915646246071 15.698519066186483
Ga 9.072810886351736 10.424192789759845 16.18376408636028
