46
Energy = -120.63994858 eV
Ga 14.438059112744314 7.444412035457091 13.261998337353265
Ga 11.934692994284026 6.890242056264397 14.58770691360392
Ga 13.063435445050423 5.320849259689839 12.02413560343193
Ga 14.372542452659998 7.150234818422314 10.160072910281942
Ga 12.7328653252663 9.521015044856163 14.373746137957223
Ga 10.36806916338381 6.1492093881570975 12.351050823688082
Ga 14.70070938131079 9.820841293128376 12.174580027620348
Ga 9.932704529077418 8.564850358053864 13.84539079694379
Ga 12.16647734438466 8.360938823332907 11.794422191501406
Ga 11.700418528016053 6.183796605101033 9.704246908301945
Ga 12.141170384975945 8.738967308012613 8.896028177728535
Ga 12.389639329095289 11.537452139903404 9.826713154968571
Ga 14.600542079572824 9.72041040353469 9.471029256935266
Ga 12.751184431308795 11.609137121682231 12.64345449707888
Ga 7.968417300345513 7.242810252648654 12.259323825909933
Ga 8.966934726716191 5.567949158322552 9.798735206562549
Ga 10.328754705212837 11.265299651814077 14.326216623215487
Ga 9.742321352529814 7.469920793236168 7.682644096521889
Ga 7.518980849576592 9.687678470114289 13.745826125819097
Ga 13.067494860961807 10.750058927379794 7.117413403954479
Ga 9.78166584912931 8.264683745945241 10.354672320940512
Ga 15.125501165227632 12.161908727231499 11.082832590213606
Ga 10.720431547007657 13.477573423733268 12.868302074811407
Ga 10.365716758796625 10.526747668381985 11.69344609551307
Ga 7.658236672223064 9.948697935162405 10.931847025691951
Ga 5.534317300897566 8.265015576868773 11.814066372112682
Ga 13.154148525674115 13.987336966711839 11.362439724931248
Ga 10.392379399960735 10.159422640736162 7.486201414874272
Ga 8.152718126250669 12.162736496576958 12.57614265150006
Ga 9.240565347441512 11.851994121153615 9.63678734273057
Ga 7.830553049395083 9.714304818384008 8.215777280006087
Ga 7.05550269676152 7.480894456498186 9.481982220377432
Ga 5.568507982904274 11.154321679067442 12.524946748364062
Ga 13.133993064767926 13.56489558677061 7.959078811295628
Ga 15.279556047263549 12.060647103214977 8.351155558862734
Ga 10.870568103600636 13.858053726351388 9.76158039408394
Ga 6.431035298267164 12.449857588869055 9.804994955000689
Ga 5.271257903833114 9.649440000277021 9.238164980695291
Ga 11.153262443653341 15.882529168293846 11.829578834942822
Ga 8.101264800104383 11.963353847612355 6.917883903732921
Ga 12.764980131879113 15.970579913094475 9.354257599931254
Ga 10.710644844917828 12.69808335578997 6.962724462436817
Ga 8.602085901713753 14.385669420182893 11.25015706294937
Ga 10.98297339498159 15.27950869285084 7.316449466633525
Ga 8.274154609164514 14.197545407540456 8.444343304374557
Ga 9.568648609569317 16.54329000740481 9.516757223018796
