40
Energy = -103.98186527 eV
Ga 11.480302984950796 13.600625198082872 7.976794139063249
Ga 13.96593520083941 11.907557735946057 8.271524000901655
Ga 11.82357549774001 10.673058748953984 7.416701892879372
Ga 16.490957227122617 11.574649290626969 9.104466900059453
Ga 16.077036084581252 13.795795921686782 7.387169875930584
Ga 14.190297110365519 14.49791268949949 9.263689522332577
Ga 9.474059718696852 11.15857143087758 8.576885748932673
Ga 14.032555831774685 9.656954048970997 10.503756387318704
Ga 11.908572036195498 14.331480784943917 10.622217754951794
Ga 11.80460518436546 8.747884975878812 9.324373867569756
Ga 11.815050338013531 11.607888907691521 10.143943858904676
Ga 9.456219472350776 13.48867654432202 9.9851980962295
Ga 16.820678827109337 14.172557278889474 10.105024733578666
Ga 14.640015926560183 12.364526953532291 11.029357762684443
Ga 15.283488399539046 14.962460042391067 12.034537316373129
Ga 9.357740529905534 9.198767234384713 10.42951867184217
Ga 11.598005742159799 9.469120865087131 12.000166069544544
Ga 8.053525150240798 13.97079624705276 12.12076340603946
Ga 12.712857075913586 12.452248704056618 12.792370112961468
Ga 6.979306529400084 9.20119827501158 11.756580733158003
Ga 16.619199208921447 9.911847343255634 11.183742586792254
Ga 9.29767085848214 11.525688723356037 11.907251787600588
Ga 9.02848490141278 9.063550556559344 13.471283720217228
Ga 17.22760442344796 12.491961157718999 12.3519747306046
Ga 10.456733476813222 14.194749403065972 13.127833000232705
Ga 12.726597065177598 15.678838174953793 12.697883633457609
Ga 5.968574950442139 13.764326465169754 13.811398075839486
Ga 7.05677116288026 11.363759116600773 13.384167118346884
Ga 15.069408675515223 10.75488303129768 13.25133369898918
Ga 15.242159061752595 13.356319336742525 14.275102697403753
Ga 13.080598882743823 9.431098590876424 14.223824775134336
Ga 14.824778326310014 16.2259636025676 14.388273485051421
Ga 10.888188321451599 11.1391575702826 14.03374087011849
Ga 10.76374506556771 13.151120890508867 15.87398959320926
Ga 12.83863053402954 14.43824210187489 15.07173742462753
Ga 8.285656471162579 13.570285250161078 15.066649637517033
Ga 13.551630204385026 11.73466852684418 15.625897749063826
Ga 8.805778930923044 10.80549148918773 15.724441538734661
Ga 11.505967811926267 10.503866034377515 16.631873939495154
Ga 10.907037238500799 8.17145119638243 15.162559525978903
