44
Energy = -116.17571877 eV
Ga 5.175267658430703 10.522601388178655 10.693494375061071
Ga 5.840484968793523 8.42388561350835 8.996458019362075
Ga 6.376056716298333 12.973718564334689 10.928005956318016
Ga 6.8713120691455405 10.901303624641086 12.888439029839379
Ga 8.268054439732241 13.425307272485263 12.849115759035204
Ga 6.550504845917496 8.343482299095024 11.806548748441731
Ga 8.969208394345802 11.318123605355042 14.701187383325564
Ga 8.443464135069448 8.771660124601267 13.908988329312367
Ga 8.48355734618412 6.35533697496858 12.603181179950047
Ga 11.3185878387411 9.875869257862051 14.159548942457262
Ga 5.791462057838517 11.459380322837745 8.216329032016294
Ga 10.936920868579193 7.347036597330932 13.42573290082762
Ga 7.4154575426018345 6.210217134435811 9.995205957892956
Ga 13.869064671496048 8.635611703778915 13.153152124833955
Ga 7.873291737662266 10.556449719608585 10.131560590155331
Ga 7.329556178137671 13.75474650855211 8.543055495702234
Ga 9.66221118864125 12.525552148658797 9.693037094480047
Ga 10.621258165612259 14.376710015107028 11.732021284640199
Ga 9.845295120010118 11.156186382847553 11.99950460975922
Ga 6.838244792642218 9.504462184959637 6.549864304949294
Ga 11.026767976056027 12.898814649060627 13.968584527603708
Ga 9.35419074733484 8.516781589492712 11.11321551081146
Ga 13.306913935243829 11.569661316997472 13.107789784520856
Ga 8.517313150191297 11.476073793348691 7.418574585532916
Ga 8.766567908177443 8.694292948264115 8.334107132915872
Ga 10.306340759602122 5.631851551440911 10.756925117774761
Ga 11.635170332268842 14.655664473686295 9.320989962736556
Ga 11.078647277462155 10.584861569415503 8.266298592406038
Ga 11.924013644533662 9.587214235456845 11.350835487251873
Ga 12.262842768206019 12.068189455491265 10.370825231674457
Ga 9.70694611790803 14.154637158428265 7.398353802826686
Ga 14.769352776895946 10.685687007714698 11.021562850098716
Ga 9.487553381416989 9.642656619998393 5.528865385903687
Ga 9.660162416091387 6.008554660501756 8.131653965632369
Ga 11.233816625887659 8.164733504658233 9.27623692380369
Ga 12.649706922055763 12.884021437746881 7.553393847580335
Ga 14.09050637302969 10.819063090812083 8.414970141624051
Ga 10.602310100816702 12.138737460718934 5.791619536386595
Ga 12.663827892028033 6.722195471692606 11.529919778982691
Ga 11.00997019541996 7.60563924768594 6.409938584352764
Ga 14.302034188887776 8.157039237869691 10.047380102648011
Ga 12.627783174878122 10.411369222958191 5.994688768192387
Ga 12.565710769298361 5.849047868655511 8.812020429167276
Ga 13.392236104753435 8.320413607342863 7.4987704271787505
