44
Energy = -115.32006756 eV
Ga 13.10432533460848 10.504019794502415 5.60734514625568
Ga 14.641672176758364 9.685625911489197 8.287331047622871
Ga 14.403425864330721 12.361686057579417 8.141865034899928
Ga 12.45512317629278 8.258029568563364 7.590856401269336
Ga 10.254849605128888 11.623343953898985 5.847520680228371
Ga 10.720730557302456 9.010128743806781 5.758001375562792
Ga 12.443710418538304 13.213033471119516 6.426574536015023
Ga 10.135431843181594 6.6622907528080795 7.333042456501653
Ga 8.01352292485421 9.39260440505831 6.1319177767828785
Ga 11.83511783574129 10.935850529140392 8.065404714014972
Ga 7.181899506477523 6.302612313835524 7.55535880801748
Ga 13.357229544138288 10.921181375870276 10.538541932251078
Ga 13.303905977006336 6.081236441926209 8.921746399132704
Ga 14.002240634603654 8.225302768911595 10.560863247561828
Ga 11.05677913469381 7.518748228499938 10.031055931444971
Ga 12.395480376366153 13.288585579660834 9.663321487460669
Ga 8.994500554840224 11.171777008039928 8.277060981017664
Ga 7.818081606272591 12.82831061881734 6.216540602004336
Ga 10.898778743159077 4.780058051480479 9.29655133221504
Ga 10.307468145970827 13.85106726346829 7.973684901852152
Ga 12.614220288472294 6.182297877588496 11.95897721401204
Ga 8.738221107699657 8.504854170139268 8.810225892266125
Ga 8.45515573011185 5.784120794354638 9.841473055313987
Ga 10.616239141184872 10.175205322573202 10.184267052912935
Ga 6.185369429413787 11.337029978529412 7.764088198315116
Ga 6.000603840801909 8.739760911224359 8.087115494305872
Ga 9.919396913444672 5.543321705493736 12.114587769889015
Ga 7.820756862995474 13.771493712008937 8.851660945945266
Ga 8.76228560725665 8.195068599416757 11.585452603053222
Ga 10.116614943755577 14.365766785732903 10.796905814414547
Ga 6.801445453207795 9.994553179199304 10.470759808766331
Ga 8.741657180450225 11.924770864296223 10.884335733056616
Ga 12.050831729178395 9.004016027949792 12.364657079785184
Ga 11.44855011130874 12.120304222904426 12.047518615382726
Ga 6.3029344061842 7.331145426977337 10.404590753826978
Ga 5.8911437142105 12.487203007547818 10.458691205899772
Ga 7.274259836450973 6.047084932925426 12.742986075914866
Ga 5.584974055058372 8.662192302607362 12.851336292531736
Ga 10.449256678238804 7.467313675494997 13.95068300194457
Ga 7.518976145738537 14.46122840039845 11.722745504778512
Ga 9.692528729021433 10.284778038926357 13.22504760748184
Ga 7.9818797016259 8.459481300584317 14.191942015685095
Ga 9.349438979782093 13.045616587348231 13.528190388563223
Ga 6.9800333772592875 11.227073991332242 13.03213318567989
