44
Energy = -115.38910784 eV
Ga 6.806660280972681 9.946695931238832 6.660528412354825
Ga 7.1042193820481625 11.192045581135478 10.704028049171153
Ga 8.984285061258172 8.215726307962035 7.096670204679667
Ga 7.14513586135985 8.976794194842972 9.20371487964382
Ga 5.929738211874377 12.137102898257972 13.012886530137239
Ga 8.76075279266621 9.538344443550663 4.657107663739969
Ga 6.705739615795465 12.18427237936979 8.171512937572528
Ga 7.882927492750585 10.21145942956619 13.380889371357794
Ga 9.108515873686406 6.8734884715887326 9.402299611281267
Ga 9.147980365502331 10.707677772237286 8.472281670288698
Ga 7.5065684071343455 13.958976349752989 11.067193159174527
Ga 7.418451659599426 8.130285521743772 11.704315906838596
Ga 11.203551761580671 8.949440869614884 8.632245413893099
Ga 8.57704878899802 12.852237002232473 13.38153626718854
Ga 9.392812769936485 11.064346428960423 15.53469585352638
Ga 11.021734860881605 9.878840523910464 6.069205676369471
Ga 8.789842294937184 11.957577366615022 6.093919440898771
Ga 9.354237348984203 6.123817425429193 11.982399943244765
Ga 9.799965872459241 12.28437643620118 10.81564182838649
Ga 10.037372153220609 15.037232875507284 12.095519395863827
Ga 9.759077271168346 9.465239903199928 10.978520083789864
Ga 9.907631918808784 8.490097741984018 13.835392918638656
Ga 8.929068091305258 13.741435149768007 8.516639026526711
Ga 11.132985995140835 12.569688626910411 7.136574803865577
Ga 10.800146550482596 11.024286815361934 12.933247331327665
Ga 11.558268271532585 7.354007852848855 10.70071423284931
Ga 11.564474540974718 6.329751740777529 13.400842588477346
Ga 11.005967718718054 13.226397000783598 14.546276025936487
Ga 12.074142547436779 11.528394996909249 9.604644043672886
Ga 12.347654509916177 13.498273112291239 12.108697715428658
Ga 12.483155720149423 8.955931258549704 12.605676972262184
Ga 11.970353276384424 10.06763209642721 15.399808305915432
Ga 11.483596191510518 14.261293163024355 9.55887770281081
Ga 13.300281348061551 10.557395088027215 7.312893471443445
Ga 13.672550157746254 11.092042442213494 11.60693636470937
Ga 13.62086488135598 13.370512162107302 7.736147981490773
Ga 13.623884156806813 9.03770360948979 9.876590725298191
Ga 13.261183119795055 7.728781792655581 14.998432089237047
Ga 13.426207187185081 12.063781325347028 14.394054620100134
Ga 14.82261072936893 9.675923270133445 13.760310457038585
Ga 16.530013882663074 10.91148881673544 11.629657762736326
Ga 14.399695775305405 13.577151896629845 10.311448686459201
Ga 15.279937683216973 13.058934712452382 12.824607634690368
Ga 15.389767932254925 11.214177528588278 9.105476552616924
