48
Energy = -126.3720856 eV
Ga 10.468179443238613 5.683039351423264 9.978992791555052
Ga 11.88270619660241 7.6138044755812855 8.612386923375768
Ga 13.9584753964521 7.9831774641144 6.930504958254951
Ga 9.391874352742102 7.047495928510909 7.747438313561342
Ga 8.692982476526108 8.245785371860611 5.4030301841590465
Ga 11.28447429314311 8.97239471965477 6.152452957310255
Ga 7.456279404334604 7.20420478930072 9.600048888235778
Ga 6.602883436749597 8.754798369057175 7.365134891576582
Ga 13.339349774773906 10.550452205809234 7.389195440667027
Ga 14.247177909512642 8.847698522779128 9.605197853555657
Ga 8.707436333498281 6.316706294904981 11.898740143988336
Ga 12.04895374003324 7.593676685149871 11.485780963868024
Ga 10.964503052210782 11.664779856130764 6.955830146818039
Ga 9.677363071460258 8.679056077025116 10.572752361847808
Ga 8.632891094496566 11.046918030508188 5.636493244878209
Ga 11.598633765990071 10.296198253423688 9.5460332032117
Ga 9.231102548122594 9.737635482305832 8.020212763604338
Ga 10.261738800507802 8.021246852150608 13.518147327255145
Ga 14.618049606259932 7.875902684092577 12.28260457079252
Ga 16.012587878354513 10.319841273867478 11.159450389875447
Ga 7.189430114957751 8.640616339229307 12.238217531805894
Ga 14.150119064460021 11.939252132853971 9.563113100562042
Ga 7.061133899769279 9.93083719094048 10.008288726133156
Ga 7.781732035059667 7.075828914090988 14.335892713599675
Ga 15.15100540107753 10.262571384717825 13.942680162428962
Ga 12.679178997016548 8.945952813358247 14.306834394540257
Ga 13.161726999793919 10.224072934040915 11.801322954859483
Ga 9.437196249150329 11.818698526546541 10.152376610314152
Ga 8.229394802044663 9.797071210449005 14.576327556071309
Ga 11.550425232675176 13.494298849230796 8.825219939101189
Ga 7.007620692995471 11.547695911229667 7.797851409144884
Ga 8.940364513588756 13.502699953789863 7.300463701588018
Ga 10.358039786310426 10.589179329444896 12.665715930004415
Ga 7.637705744248627 11.390060391859446 12.30772704832429
Ga 6.865526376728546 12.936136522443082 10.141178670464312
Ga 14.669662731907383 12.594512030878109 12.31275301719261
Ga 10.73137912264841 10.475413867481587 15.685853648538126
Ga 11.725181124137144 12.533704497708952 11.513031889669035
Ga 12.78643269487949 11.74813567587925 14.264281215212604
Ga 9.04508202140004 14.518389394448144 9.836327743416655
Ga 8.062982850043678 12.525641560650852 15.032756016236329
Ga 13.615196530628523 14.396799204052117 10.401912376422715
Ga 8.254514185814003 14.02733778752929 12.555747841901152
Ga 11.638483703014431 16.289912428551503 9.351312157251012
Ga 10.525670320469487 13.121247768186723 14.085231115524541
Ga 12.866965232123468 14.40750257807187 13.416095262623843
Ga 10.718337631099912 15.134055336403646 11.795460120611706
Ga 13.032350121255712 16.625848224582953 11.799106660755346
