44
Energy = -115.35591996 eV
Ga 15.56755206401683 10.619308515612092 9.642908285579207
Ga 15.0640924644398 9.052818805583746 7.219981908131914
Ga 13.555268513625096 11.517566192307099 7.645952292179912
Ga 14.959730743176765 7.484017945512153 9.801217690875047
Ga 13.304171732166282 11.918312565795993 10.514819285444679
Ga 14.046756232197488 9.398820547797605 11.762110715428097
Ga 12.227131666409935 13.788007941127342 8.492383185413615
Ga 12.461558997034768 9.09450149025194 6.398683898548979
Ga 12.910691790670157 9.292587175802135 9.144786791856356
Ga 11.090071346633813 11.46593389953077 6.369960659238244
Ga 12.8178703346634 6.699957295428456 8.013197022172802
Ga 11.766116125371315 11.019926740648112 12.53593030600666
Ga 12.456019445161004 7.217956697186744 10.90276799179233
Ga 10.985801155722367 11.114711203742194 9.161650749573775
Ga 9.699092643943874 13.401862305338609 7.417177044669936
Ga 11.942823673445409 8.362337170302323 13.288292949557901
Ga 11.077357875090717 13.351754895478747 11.067658209268231
Ga 10.806461688249666 6.86872708768118 6.10087023626565
Ga 10.305582925621971 8.33843221364521 8.470488288147422
Ga 9.751199518449202 9.265273106649273 5.595990712559391
Ga 10.23284305443238 9.0769616575558 11.173595298683315
Ga 10.908635883294101 5.401771896848339 9.627671209140598
Ga 8.377453141541352 10.784516830331743 7.548824597794486
Ga 10.153120892199686 6.4191209264151 12.137765537913543
Ga 10.48644503771553 12.89578241810817 14.073087999711113
Ga 9.633158293899903 10.136834521718285 14.158472134375891
Ga 8.782952859591317 12.437145176309594 9.789148542105766
Ga 9.477837237504497 15.264612765880782 9.574220060772962
Ga 7.733653998979492 8.037561432875064 7.031131128918369
Ga 8.986473450183489 5.748374247787805 7.7638512495233
Ga 7.662504122977187 9.160594239983022 9.770779260585785
Ga 8.183468747585744 6.504163948726901 10.193469128624614
Ga 7.046913934636938 13.427069739830065 7.6303585671095595
Ga 8.387389705013984 10.97909100321297 11.860662547600814
Ga 8.71870495310882 14.040514667390859 12.235770288558758
Ga 9.672594500862278 7.494451714751295 14.6789786716763
Ga 7.955300659642448 8.171157920806706 12.591715667411586
Ga 6.207406928120709 11.504421128115936 9.301290425587473
Ga 7.729107608079602 12.333978413151675 14.306362297021106
Ga 6.770145431971845 14.361919508608981 10.24815413443909
Ga 5.73730431535565 7.372020907642126 10.964379110264016
Ga 5.358067647677672 9.989831239321827 11.307121252300453
Ga 6.357355950484962 10.030141588004101 13.82620773660833
Ga 6.069159424817505 12.511808646314803 12.035383697236735
