40
Energy = -104.48239949 eV
Ga 5.687522423399636 11.232388425985675 12.019232146810532
Ga 7.422570280929561 8.654171354721353 7.838437911939046
Ga 9.690116330021738 13.070762903806916 9.057059154244746
Ga 6.716453489385477 10.314995830410687 5.384213992958114
Ga 5.966113640185617 8.128449444705817 12.04323179625496
Ga 9.989742093834892 8.037933551443087 8.052745873161207
Ga 10.79252443815271 5.804501548007893 9.977530636789428
Ga 4.791915487506363 9.653209300871032 7.084830598342395
Ga 9.368013060209941 10.704354489841814 7.669714175067609
Ga 13.025734271500976 9.453542049224886 9.85298100656552
Ga 10.614874434091535 8.490668901127055 10.988088750829139
Ga 8.161942224438143 9.576700529626208 10.852970343604701
Ga 10.76558805280979 5.75868182159018 12.65479545508245
Ga 6.654911300395028 11.576430333601628 7.984682099102201
Ga 10.187628568653603 10.231347116216472 13.75537281233832
Ga 11.858364477786212 8.134217469431595 13.553401257797331
Ga 6.113977285602531 6.91343289363787 9.72115661525288
Ga 7.563125016698214 12.368207348595721 10.356440833811089
Ga 10.971248716815882 5.106673481361817 7.260022649505962
Ga 9.007686518159133 11.623302464125967 4.9987620427156365
Ga 8.366377555976124 12.161056562461278 12.991010444212117
Ga 8.841866422538104 6.2712687270792955 5.905678925437322
Ga 11.267549418127745 12.756815893598697 6.518667321227776
Ga 11.934620711812952 9.835928646531135 7.396194131022203
Ga 8.374516819028457 5.8399473386872645 8.597084343220203
Ga 10.306642121514004 11.212114374346504 11.015845402219188
Ga 9.08350968462962 7.653600772663191 13.662189392428504
Ga 8.20610530368402 13.457277184945083 6.8595023866506315
Ga 9.094497900770602 8.85381827331063 5.2107494844714894
Ga 6.61893405616915 7.6051327262251265 5.210338352999546
Ga 11.328845643745307 10.178443827825312 4.873965447311789
Ga 5.147209881789059 6.88725431464659 7.282260434464831
Ga 8.410129414402233 6.685833645626463 11.20927680566684
Ga 13.140248965283538 6.92843641930715 11.209255738374901
Ga 5.553324679188781 9.74933585053957 9.711149299726417
Ga 11.588149369637764 7.427474238035715 5.569425660276325
Ga 7.4119134169495275 9.679819555773665 13.610046403903738
Ga 12.168156416069015 11.928744547340441 9.097758498954004
Ga 12.809187387885427 10.40927548296011 12.275344202613129
Ga 12.605521826879215 7.251809466420382 8.295946279302834
