41
Energy = -107.34271753 eV
Ga 11.642713910364213 5.396936749458063 12.732484505163633
Ga 11.20836896958305 6.934591409982256 10.304978586525351
Ga 8.49145925128081 7.552460405924664 10.405313693956137
Ga 9.11994492178915 6.350194191865655 12.64940481389198
Ga 11.202493629523032 8.676008920604808 7.988145567793022
Ga 10.973704251312979 7.742858038393996 14.253812530652427
Ga 13.037893537731353 7.628732997974669 12.242163132863352
Ga 12.566940602627229 9.445557073030098 10.091927967451264
Ga 12.309048123197657 9.573027127864014 5.219749968937092
Ga 9.726874374444554 9.83115303551344 5.972592566516784
Ga 10.356109317298602 9.098351020638889 11.8222522359926
Ga 7.882432760022048 10.144949000877936 10.770838210304824
Ga 8.427638428885093 9.123858044702557 8.319132927273042
Ga 13.566479916468033 10.061196544830791 7.554232863446808
Ga 7.889612707033023 8.546512457437313 13.544474574051884
Ga 9.575962056522021 6.416570374613287 8.098172920067354
Ga 6.995357033355821 10.137129568835068 6.0806889208018555
Ga 9.898768416427618 10.225782791521086 14.46455318833917
Ga 12.553224153187074 9.913817416125397 13.806555000607965
Ga 14.53539089304185 9.80869089879697 11.923842502157113
Ga 10.346236915986747 11.034036276222016 9.363679296224046
Ga 12.24412522094478 11.677427625015076 11.580702702610507
Ga 8.615184350631068 12.81536277504188 14.848712969793237
Ga 8.674220011794615 12.029313698659728 7.268701161408965
Ga 9.61912446667608 11.84141720385493 12.130096255677365
Ga 7.157294367591757 11.200283152288618 13.15093907302491
Ga 11.62478790509305 11.825969466095588 6.592816220675892
Ga 15.300958638836017 10.72147127430641 9.42993370696236
Ga 6.410026724298464 11.157491675267972 8.534767703962428
Ga 11.664628584624502 12.503063932648713 14.266750803880864
Ga 14.417615114598606 12.08582625637816 13.540112971822905
Ga 10.518689842423504 13.675179329149355 8.110071779280462
Ga 16.662679862579708 11.533645770775966 11.797095817875961
Ga 12.839971209956595 12.425252935107805 8.992747685754571
Ga 8.246069143136676 12.989824535254826 9.842646162351897
Ga 10.716557634462744 13.963590247307282 10.670749173384634
Ga 10.174225444965666 14.600109619532416 13.190680582211234
Ga 14.606716532614724 13.10197338275842 10.837064882748631
Ga 5.715226322089939 12.124783971958733 10.933723408577276
Ga 7.529359503742372 14.022377337235898 12.3241183090201
Ga 12.874500963261614 14.34983849721826 12.446933017942241
