41
Energy = -148.33039559 eV
Ga 16.19811494436762 9.37360413458177 8.775037174014496
Ga 14.703672966028224 11.876765017370678 9.965897302471785
Ga 14.379349577323872 10.920489831012809 12.957106945683977
Ga 16.184373606349222 8.641823730178492 13.87725357316375
Ga 14.833498376483275 8.24666336262028 11.19699446152039
Ga 13.629003705572421 8.578726897638523 7.314858578201624
Ga 12.106779879407451 11.888618120499192 6.239322659507785
Ga 14.883871718973854 14.944510138778854 9.814551426264105
Ga 12.104863952535768 13.73009993618457 10.270674032939823
Ga 11.298650581997139 10.113609626796473 8.647413353909315
Ga 13.114705005121701 5.90136762704164 8.66122372190663
Ga 12.113592651782318 14.922578793708013 6.798016438097444
Ga 13.147981038858768 7.689025152740202 14.523018142958751
Ga 11.245893085068673 9.940719798674516 13.12433509087949
Ga 11.738287728134734 12.044327131144927 15.424912955527963
Ga 10.660863398673188 5.7488058022605175 6.849292807112134
Ga 13.891159300628603 14.359082122027672 12.574691435866992
Ga 11.418002768017953 7.066246539664103 10.953380451085627
Ga 8.129279691752423 9.192572614688897 11.017025406205098
Ga 9.840028464456429 8.678107420384174 6.328672903256135
Ga 9.3838696178277 12.250915457012221 4.9478951730621965
Ga 7.245247779782348 11.17326444837712 13.369596619508087
Ga 12.299317556283333 7.924394876474799 17.384659343330295
Ga 10.42643136634905 10.397722179105862 17.564423410339312
Ga 9.686826648127463 16.19092250696766 8.082163580055044
Ga 5.610358928284252 10.831802936211732 7.115534353146315
Ga 9.680657113524259 4.73214850014732 11.824445891387892
Ga 9.636083195150817 12.994160386635844 13.081802851150647
Ga 9.891130105774863 15.19997380459019 4.680097658579
Ga 6.815243697394722 8.07439935668411 6.795709207828721
Ga 6.789749312942656 13.32224119696417 10.479381932555487
Ga 10.796409137171537 5.865555955849019 15.725828217361839
Ga 8.891134774455026 6.2863482650296865 9.315175627493696
Ga 5.503921774185667 8.869154065284974 9.439689120010872
Ga 8.642564135013558 15.650259795237654 10.981158914364702
Ga 8.61430827347083 12.351562109593145 15.95403675423874
Ga 8.2648550896915 12.075332378649465 7.9023074520062195
Ga 9.18399059907974 8.268133201498733 14.923573656660965
Ga 6.0075535095275745 16.01069441115537 9.448675147437012
Ga 7.339026470266167 14.839310857755079 6.784708098688735
Ga 7.576519590831047 6.74113062944729 12.792629246887651
