43
Energy = -111.76162643 eV
Ga 9.642525009659028 11.921145774774725 7.434569262724448
Ga 12.252640540258252 11.595065449819877 8.546244395986347
Ga 11.277975929376888 9.394439964739863 7.135500064611521
Ga 13.966475613622942 13.734433417673872 8.819392721270772
Ga 9.078481368785615 10.211425746144972 9.309713058094845
Ga 12.892713856664965 16.060149049425323 8.440319807914038
Ga 11.087177080094456 8.408309880027739 9.60942991650079
Ga 8.041358659721237 13.856762266065067 8.40539902290229
Ga 16.21259300094455 9.176662054979618 9.040442976212248
Ga 15.42486179478815 11.67082893426563 9.522201064428325
Ga 9.04817760063758 15.185407627508983 10.590633658026299
Ga 13.578031269471156 9.28691285088492 9.176520313058266
Ga 12.897345239247853 11.843537676010548 11.139275670275966
Ga 10.887414513212876 14.281488379485742 8.090800601241108
Ga 12.626729878742621 9.163018589587445 11.846982917100632
Ga 11.829293185646437 14.484832900809673 10.634160201236616
Ga 13.99288677382367 16.15176666402732 10.92705298925808
Ga 7.8422362358706 9.052524834940963 11.218886456109868
Ga 10.374535449543194 7.724917213145391 11.961838691005022
Ga 15.578137124830237 14.000114987999645 11.142805036895048
Ga 10.06123627827149 12.552519336452356 10.216929445585421
Ga 10.195148994159755 10.646520468834623 12.006216421671029
Ga 13.23083251721166 16.676643988927918 13.526664794946974
Ga 15.123522170903042 12.04491080844892 12.902631236388018
Ga 7.840517882601767 6.897941267369405 12.791256524017728
Ga 15.60957263819069 14.793957622603818 13.782331183515577
Ga 15.400441283288579 9.575619592723099 11.530374717015103
Ga 13.063237694781606 14.010062236462844 12.89985426969361
Ga 9.131406954133674 13.40589353564376 12.60858586235605
Ga 7.391403853496555 11.410329106477716 12.4464882364168
Ga 8.616665838184364 9.258915286016382 14.015664948486872
Ga 9.995613582624923 6.790807418546457 14.51403345048828
Ga 10.655401961520548 16.088831680959977 12.608441393149938
Ga 11.983851659550274 11.72727042503216 13.783448794402076
Ga 14.123029715582414 12.923861970499837 15.412019943855833
Ga 12.848924520609192 15.213906188070892 15.752878597813227
Ga 10.703640284953499 14.206546855754462 14.510716222602726
Ga 14.29144964403553 9.496562713357664 13.93337220426487
Ga 11.352909439285924 9.135397075404962 14.512366009697795
Ga 9.288828073147819 11.674857657504019 14.81641413997734
Ga 13.074425415813725 10.501628018888317 16.064724260917135
Ga 16.03327046198161 10.935197934252693 15.442373613076418
Ga 11.199627746024422 12.574623284744279 16.676593640103142
