43
Energy = -112.02776798 eV
Ga 15.826771378404278 9.457424193929121 8.264514184600777
Ga 14.969880452333681 9.123054124082497 10.680249752928315
Ga 14.582767001180441 8.670834310944816 6.0515781739091254
Ga 14.847616327316626 11.729729423454296 9.731427548318
Ga 13.110673242802166 8.701574273522823 8.510955363823404
Ga 13.940585046637933 11.195142284879738 6.951218588597832
Ga 14.376767095295182 9.38413562946719 13.201271967567559
Ga 14.617576368259614 11.963750239259515 12.582034629367243
Ga 13.39015585326323 6.9220435306812025 11.35482711157396
Ga 13.827948369540293 13.689478770720795 8.383666855620374
Ga 11.834797106079495 11.160850336350585 13.045479318254507
Ga 12.157423650672149 11.269503385881219 9.053529556442703
Ga 12.086971333457319 8.43258783109818 13.933887314730352
Ga 12.092272757785537 9.423631795936378 11.078696568998646
Ga 10.533736134336522 10.139043987876867 15.309382775074278
Ga 10.632368115908468 6.929858161936692 12.300280332082586
Ga 11.284513413367842 7.032096284220684 9.449332812889033
Ga 12.884198958200361 13.56086132799391 13.826520931177207
Ga 12.771651836985537 13.324923994803392 11.00855753097455
Ga 9.533585712157437 5.178785940958804 10.56279808696672
Ga 12.24924857268745 15.795474891245407 8.125994451509866
Ga 10.44644511090664 12.932839668850155 15.150625605892978
Ga 10.597151468367624 14.21202165304481 12.468138766853217
Ga 8.627553173968318 7.2078433769576415 8.834771760457814
Ga 9.020939496863631 8.626804775509209 13.707394888880481
Ga 10.60127308646373 14.150314329939016 9.630739926858817
Ga 10.209273497918726 11.625453025196549 10.7919650699571
Ga 9.408976320762578 8.982831368482284 10.818610932669548
Ga 11.97862752496555 12.831737993130192 6.583444202061826
Ga 10.274795191834263 9.249566377719457 8.049194154184875
Ga 9.669490434593929 11.775906571790244 7.957205807665005
Ga 9.013721870577887 11.414629054605395 13.223397185415081
Ga 7.723989119109587 6.8898783431934 11.759611799572388
Ga 8.139793816576884 13.949102385391386 13.783836599694844
Ga 9.96024335471485 14.387715599824352 7.05513253221355
Ga 8.283722577399246 13.88236262127255 11.020775031395663
Ga 6.692920377659442 8.69883808625513 9.733066550098888
Ga 7.721906532006373 13.80343041820946 8.429168195455183
Ga 7.082225800161538 9.749444251028873 12.403225010912717
Ga 7.635863252632568 11.235479692895668 9.668381490059796
Ga 6.40288057643017 12.387266840309303 12.330175291852797
Ga 5.101866912066464 7.882036716373418 11.906372076273982
Ga 5.030186087126626 10.681515733607545 10.71428517743527
