46
Energy = -120.65616779 eV
Ga 9.736102122800393 5.4568609217669914 9.183414958633753
Ga 11.689912348319162 6.475734999268889 6.885105740358031
Ga 9.514588345429797 7.766015621512172 7.9335128080304855
Ga 12.410046734876675 6.910121600854772 12.087572638345158
Ga 7.230513538514775 6.458518526536347 9.855965253893439
Ga 10.892425811032274 9.155425810384454 5.930243406305547
Ga 9.91851434683009 7.58233611211802 10.863280785222564
Ga 6.978358610519446 8.552825378963115 8.1245742017877
Ga 12.281532672290538 6.339723226328224 9.535153685539065
Ga 13.127269761430693 10.50880952897805 6.405288824966366
Ga 7.306535321778306 7.759238577582253 12.321444224678322
Ga 15.167492365153667 9.815962833642647 12.134696570850762
Ga 14.40191680731456 7.943866530170587 10.2336251764472
Ga 13.187230703807694 11.253540710829206 13.54580956091648
Ga 12.121996055104653 8.907642627114113 8.59472360019081
Ga 8.46971184997608 10.057645038498428 6.587508087464836
Ga 9.687093670671063 10.006695137881865 9.438312225847678
Ga 6.682288159416928 9.693513309542125 10.493338369624482
Ga 10.133472404459615 7.3212885849726765 13.55331783901168
Ga 8.054301008798758 8.822904056529211 14.717035111691418
Ga 13.46007167148614 8.494246251070646 13.92308296497311
Ga 14.729357508061355 10.01680340028077 8.499857140850931
Ga 10.608733137948207 11.788361979578085 7.2491919815241905
Ga 13.298607985896787 12.68417170230199 7.99158894046786
Ga 14.152329711570323 11.684771427658344 10.397208781591242
Ga 12.237301102302027 9.640931936723312 11.292770901816075
Ga 6.285112062621917 10.550149175907016 13.08174251218269
Ga 10.654074151073774 11.844130529460493 12.313690356679592
Ga 11.281621706942829 12.133000817454354 9.84191953248426
Ga 15.303254696442892 12.694965812523547 12.795128812054545
Ga 10.993661376488285 9.704755600757574 14.362911302809492
Ga 11.197568940032994 12.300810810864979 15.165365111427663
Ga 7.635080654469502 11.507775580511442 8.751897074776984
Ga 8.133759336223656 12.890744079235256 6.4550541229689316
Ga 9.030017020254574 9.86131732388176 12.09598148691214
Ga 12.123984865872064 14.799596255373766 9.125344786281609
Ga 8.62465894783461 11.539155555337624 14.438142458283314
Ga 12.310335681140149 13.843114121877873 13.248040150359696
Ga 9.938291393825024 14.287109328553367 10.952057306412755
Ga 13.837193975092985 14.243532331830309 11.044007989455277
Ga 9.811824538339128 14.35750440785932 8.062982441775063
Ga 5.730092401972317 12.306895532571668 10.650854026190325
Ga 9.570539057905783 14.294005818731508 13.84036359632464
Ga 7.508756879840026 14.09351191905914 9.480790982102123
Ga 7.959354158557601 12.715147806569124 11.989752759603947
Ga 11.84046166215197 16.18216862342435 11.773696672758023
