46
Energy = -120.52153654 eV
Ga 4.544107967955238 10.3436559460192 12.5362671600975
Ga 13.465188441962304 9.357606442553461 7.7421090889726685
Ga 8.664402707008335 6.624095400068022 8.102970150587401
Ga 5.343557437405606 7.910166784164375 11.430327651728954
Ga 8.629989351371382 12.139310262779793 6.876027629622395
Ga 7.330059583263349 10.010061369130405 11.509628209311867
Ga 10.564826466353837 13.801307530303125 8.143358793572975
Ga 10.684750298514292 7.871190064466039 12.311120803789702
Ga 10.980767549694354 4.8155295266979845 8.5319544036154
Ga 8.011934109974014 7.3199427345829955 12.141398352992224
Ga 8.081947614259823 13.979381474843292 9.12402181966239
Ga 4.932387099850212 10.250748801387019 9.695128922044983
Ga 13.848187952841766 10.537112512077433 12.13797319103085
Ga 9.044267897691647 11.532427515301016 9.834540181466334
Ga 11.66998646017603 5.937613883757215 6.122473951422739
Ga 12.155055757022993 9.246070077409602 10.261495342348628
Ga 7.718387437508496 14.799250105442367 11.651900543132548
Ga 11.046084580816087 7.962348163939241 7.927433031800426
Ga 12.085096653009657 12.564675183638752 10.143913507786023
Ga 10.397927059989877 9.841685690369118 5.538289454195217
Ga 11.91393605712394 9.590974698372777 14.177064297816008
Ga 8.728546425005671 12.217093275091518 12.644185406568687
Ga 11.05751364470978 11.040576527710318 12.074760317074805
Ga 12.991867849805688 10.975396621228192 5.5190950352452885
Ga 9.327879363502728 7.346212229417525 5.5285609839712295
Ga 9.509210391748885 8.840777676279421 10.06725089608463
Ga 6.366103921719828 12.005945541497034 8.182757232346852
Ga 12.72590335006728 8.211759393773507 5.350263155686616
Ga 6.849623167657659 5.757056344478636 10.138189084543399
Ga 6.289116227250324 13.564174279006311 13.566041507670036
Ga 13.346337955515263 7.705468636877218 12.53515124635199
Ga 9.120416805650999 9.602238305312467 13.741751800093134
Ga 9.61803545190218 5.870893392558422 10.625363007688115
Ga 13.152525972136367 12.820025242713719 7.553964892931766
Ga 11.10724030626517 10.896524722646609 7.990857875602179
Ga 6.5533755416452895 8.450469698296752 14.020350487665715
Ga 8.441875717026791 9.522151380591009 7.385982846813113
Ga 10.882632609754271 12.812166322725403 5.521468097502834
Ga 12.300586427528645 6.345159417034586 10.502549868670844
Ga 14.380564710061343 11.223462835533573 9.485121370378547
Ga 6.837173435064697 8.423568040613048 9.130601509681046
Ga 6.272609056819026 12.392362463249068 10.988346302396964
Ga 10.292978480465441 14.087247302350102 11.254308590589543
Ga 13.555159427830572 6.469679041949799 8.107979615920817
Ga 6.687612195240354 11.069454568682369 14.292394505948387
Ga 14.80467643441702 8.22739592566492 10.165721228159947
