45
Energy = -117.42529642 eV
Ga 12.460485169535936 6.7838934105373045 12.346805706867729
Ga 15.000317228070772 8.596024553914464 8.437759158348937
Ga 4.077273840609402 8.504808520773024 5.727900713154541
Ga 11.215428804776495 11.17150874145559 10.731962127210743
Ga 8.810873470709403 9.514519150716387 12.514059993229086
Ga 9.437061423170727 13.09964884184078 7.163211129026584
Ga 14.062309550962558 8.992762259005696 13.66838387846147
Ga 11.11963301593543 6.025575961787881 6.29647967322369
Ga 8.261106310976693 4.891719342983254 10.828562615273038
Ga 6.848719519667132 11.526825198558102 12.545860695404146
Ga 6.607903499861447 9.56683634126769 5.6688999551984525
Ga 7.919941443259075 8.809265089526285 8.171808044135274
Ga 8.299899742712924 14.056226034868738 11.890952190715957
Ga 12.622388932949686 10.01394626147487 8.643073977477618
Ga 10.123288511519238 13.76844772716249 9.939812862170362
Ga 6.719225808436264 6.977176322212097 12.421511487025935
Ga 3.929532959218094 7.288970532143926 8.290900286222401
Ga 6.3406301577529085 6.631339801121443 9.518210297425446
Ga 8.57009226350031 5.770535760032188 8.068297719380002
Ga 8.529084685680058 11.550632387630719 10.389775216812934
Ga 10.773898738040355 5.734739213844437 10.139153961191056
Ga 7.138703416127947 11.424122599027312 7.813218420961719
Ga 5.172685391048595 11.97565180508521 9.792541802946934
Ga 6.670433189047336 9.558763794006357 10.523947862529509
Ga 12.972216282392434 11.59818284631446 12.882729496815315
Ga 12.946681656384545 6.995502554814258 9.266872593894862
Ga 8.825644923816723 7.628396369340417 5.843083497483939
Ga 10.532626352836937 8.041658226328801 8.052079482299801
Ga 13.81716563326744 12.063080506433124 10.265086321699219
Ga 11.389902570500544 9.35607349717937 13.214494115263625
Ga 13.825654037850828 9.269731336732898 10.97988748614733
Ga 10.138830026581415 12.127655035962286 13.027482107227103
Ga 10.90296947919925 9.015029330264472 4.547430262143145
Ga 7.3296326533087095 13.812231939753708 9.131285223908858
Ga 4.398316898306745 8.134127727407789 10.946486635210483
Ga 9.66211430782874 6.724492253010182 12.96308763514652
Ga 8.63845179984644 7.63854242591273 10.440619922444547
Ga 12.863348682202677 8.398921367390383 6.511245081344619
Ga 6.286566710521372 6.974338551983458 6.751146113134992
Ga 5.070054904067836 9.733034002720267 8.186735272401336
Ga 9.905757948344903 10.62200537266308 8.366306300783322
Ga 11.60180463472784 11.24698723917445 6.161240788601384
Ga 10.996303891879805 8.546019897079892 10.685083949442634
Ga 12.05767298696238 12.740076842538999 8.360568113738303
Ga 8.899293433781061 10.871899914197293 5.655886714653347
