42
Energy = -110.08903887 eV
Ga 11.947275484754478 4.972163994539837 9.774547019392916
Ga 11.859207744699914 7.074771332918037 8.10181622039563
Ga 11.180718923700292 8.438492932720333 5.814635631907404
Ga 9.684383476494673 6.460107576080276 10.051547997836094
Ga 12.299378947642957 11.02733856009051 5.867542660653041
Ga 14.160859627293036 7.87977269053685 9.803816099871485
Ga 9.624549012161697 8.68185552724766 8.08823090983288
Ga 13.140141333072721 9.440010939774915 7.786027131154983
Ga 12.320673606892345 6.853022568557748 11.584880794429832
Ga 8.04295988829812 10.80861645525124 8.549659966722059
Ga 9.386282690623533 10.685448746427918 5.942127750840417
Ga 8.101261191091826 8.600211370510396 10.30299860002686
Ga 11.330869868477649 9.221669013962583 10.287413254988666
Ga 10.707515710704069 13.189962445917299 6.3425613280385775
Ga 10.856927742995659 11.171985276218466 8.462512983634724
Ga 9.865188052154338 8.186634189451368 12.361356191991181
Ga 13.736859315270712 9.240197276812715 12.14437423997554
Ga 13.585233001128781 10.897600489542707 9.97470925758677
Ga 13.36081088651976 12.539902619568316 7.794545511431367
Ga 6.124859841878123 10.070158628067466 11.066007110787117
Ga 12.144309081802032 7.893522345674316 13.995740296864682
Ga 9.637546254337224 9.062114680399542 14.931146606180764
Ga 11.137814238039555 10.70214137331894 12.93907419128008
Ga 8.927241991296308 11.093556166767721 11.36289335109393
Ga 11.968126765332261 9.066661250711368 16.41762565559895
Ga 14.20443927688695 13.767144737261297 10.097837788215648
Ga 11.482170440527337 14.507527463947989 8.553466339530953
Ga 11.376986872887136 12.65653871898029 10.700625221326867
Ga 13.460673007899974 10.47036915407894 14.53523856112761
Ga 13.925225420359332 12.15257474537553 12.385587970659481
Ga 9.133188072216546 13.244128002663196 9.00857276008969
Ga 7.480250269277905 9.282227995101692 13.333655457008819
Ga 6.20903107402274 12.499591927839628 9.723731003301193
Ga 8.711125024251256 11.6602949807154 14.33230126567155
Ga 10.714587645751505 11.546054893885207 16.08038332462954
Ga 9.987977066915741 13.533636503745475 13.05201812514778
Ga 12.687340300225406 16.257243868659714 10.272558374007199
Ga 12.281164415440738 13.00013218878208 14.482648303212498
Ga 12.460054029863363 14.57882124295168 12.321247583077866
Ga 10.01419131009977 15.487230924348518 10.811403393439464
Ga 6.475682128193804 12.047724691455551 12.882100563251026
Ga 7.940254863466277 13.720950936181822 11.373003651102113
