43
Energy = -112.3380586 eV
Ga 5.503745568873787 8.428066453450777 7.992542441541362
Ga 6.689786645560232 10.339655962757186 11.390017603831225
Ga 7.813787680560736 6.562825215611244 8.121342847001795
Ga 6.145158884140857 7.825275385617971 10.5614217746694
Ga 6.795629832734161 12.598623281455 12.887917380364321
Ga 6.852162606271263 7.462058194506561 5.732153315902512
Ga 5.808807185020316 10.963353839720556 8.77439522166013
Ga 8.629700816353525 10.63102533546768 13.500530342174205
Ga 8.606868933691269 6.476145224458817 10.685584942482672
Ga 8.05553922825747 9.227650874412172 9.053376689699594
Ga 6.413939586493876 13.050162682431303 10.252641954815031
Ga 7.501256038116989 8.171630758979633 12.975272303378354
Ga 10.412511888225195 7.380482185353933 8.668578561389028
Ga 9.263484252118294 13.53286864161564 12.82397329424444
Ga 10.705507562341626 11.749963643561744 14.890999872705864
Ga 9.35769919009171 8.454904302828675 6.4285793299231555
Ga 7.155060401607417 10.157505364401535 6.435927711803808
Ga 9.79936662798072 6.590827822743785 13.193098234250451
Ga 8.91980349025143 11.785407651943169 10.623124065030034
Ga 8.808847691938906 14.326740291145583 9.269357120769383
Ga 9.860601305539387 9.123058271649978 11.12879006095181
Ga 10.95639975483838 9.15728876935225 13.79439895839987
Ga 8.43613247699318 11.944155472599485 7.889072623697576
Ga 10.312433680929278 11.097290732519753 5.659898548098872
Ga 11.203586054266404 11.395258530692843 12.083336596518498
Ga 11.635632098138029 6.877003058605269 10.95575744108699
Ga 12.549227229378486 6.913211105636199 13.560037700193638
Ga 11.847973066138042 14.013969222479224 13.594198491341459
Ga 10.608070897055335 10.193964412758726 8.430520752676308
Ga 11.092029388367807 13.780200981286349 10.66073196951434
Ga 12.855600112673944 9.192119901609436 11.655820047737008
Ga 13.269008063451517 11.190646778194113 13.984225982311953
Ga 10.957676784095918 12.96948459526169 7.8755969129639505
Ga 12.034296670305281 8.548707793743755 6.449934286729969
Ga 12.584890980296036 11.442429629181376 9.808935493166691
Ga 13.006050006907163 11.182653804767689 7.05295938883642
Ga 12.886391635797795 8.471249921601734 9.016269651035305
Ga 14.7791559729564 8.836150839014612 13.657548434664783
Ga 13.674685014670262 13.076164963916368 11.829773129480323
Ga 15.057482566816049 10.636269842604497 11.624023862302042
Ga 14.931813699523639 10.106794204053726 8.866159462765758
Ga 13.1217513463293 14.224692710890274 8.893881919808777
Ga 15.371820433027764 12.723260804148623 9.72077793966776
