42
Energy = -109.76921416 eV
Ga 14.299434012856999 10.71191694546316 9.033226233618217
Ga 12.568468936812613 9.29303597151275 7.310813821048115
Ga 14.77322238493696 9.40356971080534 11.55309505803773
Ga 13.794485821520505 13.33476949777008 9.40837298395116
Ga 12.437882558903215 8.979061347018346 10.058510102952711
Ga 12.37244099028855 12.185885526711079 7.43861230474028
Ga 15.275509357349405 12.184290586092777 11.51542501002014
Ga 12.678545460905045 6.441740539199617 10.841440618458332
Ga 12.542913415029224 8.525334164002757 12.959993228543707
Ga 11.310917213480044 7.09944430046645 8.420890968589152
Ga 10.468970725422036 10.407865979523683 8.635021944573955
Ga 10.657592193734068 10.851856494374497 5.524866976975426
Ga 13.661239492380645 11.432913953059096 13.961040961078513
Ga 10.863691223938849 12.876780234393474 10.067174097250348
Ga 12.395504674447496 15.54602897275575 10.273436578289248
Ga 11.32227104730473 14.746041294535413 7.949727340801198
Ga 12.561370630237267 11.304377327399163 11.372067706250244
Ga 9.59565295631194 12.74566400732412 7.419058473833177
Ga 10.128437625058751 5.25411175545533 10.260199034605629
Ga 11.304380234180297 5.926186864138502 13.252739001227287
Ga 13.218069067095188 13.962032047197464 12.419441634922709
Ga 9.485720402193788 8.556342671890672 6.723589370165773
Ga 8.937585218005427 15.15851726136735 9.573898994528202
Ga 10.35887468087498 15.045687528576448 11.940844347578409
Ga 7.8080848858222 10.73953958713417 7.153823435758747
Ga 10.158766301548836 7.841022890362354 11.109417127544413
Ga 8.658508823324405 6.51364837190168 8.254702126707775
Ga 8.623424055321237 6.02572838806188 12.677834186712523
Ga 8.301147059904546 9.203060962594408 9.463859589884914
Ga 11.010100821135012 12.830076148143945 13.352425842780143
Ga 11.125104435408105 10.446720314841485 14.345697664335761
Ga 7.668814545465595 12.681190565931072 9.272051485428824
Ga 9.869200318038294 10.482332635997405 11.585524134192562
Ga 8.557210979536073 13.065367498757256 11.888125458050807
Ga 6.443250931138791 8.209037814255115 7.587001901773795
Ga 6.982820992660758 6.571331025762216 10.423776962062805
Ga 5.4696158552934175 10.985336191808678 8.59752746608938
Ga 9.67322477902103 8.286071839637469 13.899344032423945
Ga 8.32919748567465 11.073888855786368 13.92081655547861
Ga 6.947207355670749 11.013107871939974 11.328429471956143
Ga 5.570832073835803 8.90816411283722 10.369989647762715
Ga 7.544329943106135 8.558441346791165 12.313800602030803
