48
Energy = -126.14147193 eV
Ga 14.171094772105562 15.064068171684163 7.4242708933085675
Ga 11.863185353002047 8.869249985809805 8.292772432095775
Ga 14.05247060664311 12.777813216595751 8.765273235330252
Ga 11.35709408974001 11.712990927649145 9.278793958111857
Ga 13.929104393041854 15.987954109769602 9.961870768288433
Ga 13.011586421848108 8.043660706326403 10.958090188408597
Ga 11.705621603157383 14.449809265413963 8.823671402117448
Ga 16.205108445521102 14.46293435999119 9.573111780377982
Ga 13.716778604651225 10.336742994793962 9.742330823682343
Ga 10.138759556195156 9.595796155763038 10.447111102589638
Ga 11.66846349441043 15.825803698576044 11.379730983931791
Ga 18.084176122733492 13.172008943012495 11.43906310777226
Ga 10.639939383624233 6.893008023785726 10.21518964326445
Ga 13.155764396160823 8.462380875638024 13.83415730383449
Ga 17.045235766702547 15.96384910913654 11.894537051525548
Ga 15.091951859630166 9.41436114592564 12.029216750068807
Ga 14.83732354687157 14.333115425958743 12.074139644812236
Ga 9.926016442759627 13.786132810632347 10.738487519677948
Ga 16.793474301654484 13.64078932102393 13.859645652825341
Ga 9.854735708780677 16.005062987042898 13.367788180296301
Ga 10.678410955519215 8.019746075488108 12.69654761959189
Ga 15.789322095880124 11.827383269609072 10.736382888205307
Ga 9.023532175290356 11.410602303435901 11.894768599938754
Ga 11.682209505610604 17.864365188911336 13.292399266288335
Ga 8.051792526688509 14.111212340675527 12.639696762371468
Ga 12.826952151810298 15.198762803295221 13.883846430658677
Ga 12.698218339740347 13.11542657500808 11.309075257866864
Ga 11.014405923778925 13.03415284221422 13.452933915907533
Ga 8.240194956428798 11.91722785859324 14.395583455893272
Ga 14.25810515758108 17.305028898545384 12.273590130701225
Ga 12.064981005381936 10.64863129606816 12.18338070340647
Ga 17.405305063118853 11.571274796212922 15.594709109191653
Ga 14.337026035271137 11.925657565733765 13.29409521989136
Ga 12.208053310791012 13.520265162314411 15.871027533422145
Ga 17.024543196207038 10.863825870872606 12.98061891077841
Ga 13.615250304633417 17.67948793582999 15.296619966831049
Ga 12.706902314072838 10.833626103456572 15.268172487828515
Ga 10.184073027142643 10.010314632402983 14.21681876537888
Ga 15.542461392077774 15.9342094277986 14.403051209743783
Ga 15.277731013598203 9.662645726832116 15.223990670087685
Ga 14.749050319468887 12.624591729869334 15.863618030658081
Ga 9.429955114535188 14.245854824862722 15.348783732534379
Ga 14.043768402603817 15.294273656632415 16.785843335395374
Ga 8.020175919175072 12.669657082140846 17.043471201982808
Ga 11.18074874057382 16.390424389300893 15.921173816824368
Ga 10.387906778822744 11.55317278222361 16.42535059207121
Ga 16.717193576185885 14.3879616712181 16.569059210479697
Ga 10.479636615342248 14.468475742488096 17.9219295403139
