49
Energy = -129.54707392 eV
Ga 9.509406715393858 6.259310077185508 11.85883087808333
Ga 7.300915523216726 5.211491565206789 10.216609690928548
Ga 8.18595097148505 7.747901778080997 9.451985068594036
Ga 7.693360245322835 13.32313772597715 13.585826735427522
Ga 10.455602244574516 12.73122681265225 9.29529878450391
Ga 13.250149106960507 7.257883289325544 8.649727250853847
Ga 15.009872452496674 10.536396305343636 11.274031656243363
Ga 8.873776950908473 8.766679258080096 6.938693554857896
Ga 6.512338835616035 12.66844461556526 11.181893007622733
Ga 9.048134175910963 11.21024543831657 14.868527463634601
Ga 11.18876880810205 7.318146489408426 13.770099315824766
Ga 11.664728147241695 12.539851076607787 11.840264633388358
Ga 14.66668834236996 7.693453983232794 10.972160835514853
Ga 10.713421049659697 6.7528508688841 9.423126212670057
Ga 13.71174467902786 11.445180100253472 13.642348172615444
Ga 6.074251761852762 11.886872732649076 8.59970514685215
Ga 10.975341365963507 9.968399749569896 8.508318861326671
Ga 6.8614479412937985 10.525190340256453 13.235774293851923
Ga 10.107500418317208 14.525142270359485 13.37654292269902
Ga 12.960305066061622 14.576132922714086 13.192355622090588
Ga 8.019634595833638 11.352084871645992 6.6640101883727
Ga 12.184645882849773 8.995648540457335 10.783317202107506
Ga 8.583460276036 14.533867041074188 10.892323165916345
Ga 9.617776422586621 9.017329354532976 11.283041403388738
Ga 9.197380646175803 11.673967821798438 11.855016413937221
Ga 14.35625047502555 13.202742312869018 11.266730236845463
Ga 8.56132994244193 10.770780698994399 9.367930153549906
Ga 7.219786674741665 7.750363428816593 12.158952565135525
Ga 11.40698362695262 7.702523288066898 6.66959221830329
Ga 13.023282729947262 14.4018323695087 9.078726722858754
Ga 12.39423743093216 6.1658024489503935 11.47840713302349
Ga 6.291644050374513 9.250272072097461 7.94169495061516
Ga 13.555533516494778 8.656082341986039 13.322539316341096
Ga 9.23222464947892 5.956451902384996 7.246436361031166
Ga 6.515269462239006 6.419861960908558 7.5944740814371245
Ga 6.17622201182623 9.921956479708319 10.686022905565265
Ga 11.447676633839807 12.520232551053178 14.73166799671586
Ga 15.038013538104599 12.379150008056763 8.538315859744504
Ga 12.744180594558543 11.436135737883623 9.758275391105478
Ga 11.192722774134538 15.095585239318545 10.905443581500261
Ga 5.398274701085605 7.414158466310269 9.981920195696752
Ga 11.172221087448108 10.15637978944466 13.180972614932845
Ga 14.653578845552058 9.62058865820027 8.739001329887031
Ga 12.546632838939095 12.447708376305272 7.0976042180882635
Ga 13.136863907009854 9.849574632034846 6.528624349467407
Ga 7.989649230115175 13.801750113156766 8.347609590427037
Ga 8.90750388207736 8.591059441144582 14.162678606110207
Ga 10.016241887988748 13.249457578518168 6.56169885593788
Ga 10.597579456500227 10.566971105957984 5.705294609423898
