44
Energy = -115.36997275 eV
Ga 5.363932973583815 10.54374203781246 12.14957828258625
Ga 5.48378615260194 10.7294938722749 9.310910915506367
Ga 7.458376606448227 9.00549162437357 13.257051794705285
Ga 7.250664824060995 12.432340237199556 13.04094108142008
Ga 7.240089776340285 9.04003921217823 10.55162736256771
Ga 7.639248435449762 10.874793413570147 15.2671901254479
Ga 7.341822507498578 12.342478796497995 10.3890890568248
Ga 7.03901420174607 9.417684708858127 7.605075247241545
Ga 7.205555256147561 12.49342619689854 7.507721946409552
Ga 9.172567195679369 7.51174833646381 11.83851466009132
Ga 9.218478533768478 10.721380490375143 11.749917329475094
Ga 9.07208890811142 14.025217512932764 11.778197742553967
Ga 8.843131910418283 7.784390022776633 8.983307359253168
Ga 9.961631189693264 9.505559110957673 14.15070900862244
Ga 9.828327265766609 12.462171226048925 13.85443717464049
Ga 9.188042985938948 13.871760513931346 8.850965226101309
Ga 9.133432348257294 10.83580035689478 8.907326261801956
Ga 11.274250074343385 6.634439737718025 10.43002935653311
Ga 8.806496706422582 7.832776205407152 6.15313857213796
Ga 10.520604756695032 11.350485139882597 16.370427122674865
Ga 8.72314713685469 10.73086776854654 5.837223936806326
Ga 11.17205199842104 9.408523243949439 10.012557215318703
Ga 12.292694931591312 12.907665722468934 14.81221699791384
Ga 10.69397952901249 15.518113427047744 10.321684919963381
Ga 10.883946230588336 6.536053651442741 7.750802161661121
Ga 10.363571941808008 12.504116673720386 6.809867321304577
Ga 13.94118217535335 10.007663749611782 10.288110811642303
Ga 11.816274419029924 8.419688230832065 12.535846896115176
Ga 12.540109265194959 10.11922325682317 14.859009882463534
Ga 12.059461675133775 14.044319521470063 12.314726908182239
Ga 13.833002272019229 7.2466225701417 11.012949858239278
Ga 12.31011357656338 13.889624289708053 7.99162415305174
Ga 11.897602722040004 11.215854237220956 12.225181316262265
Ga 11.200088727049952 12.625093883343567 10.105154007859621
Ga 10.853832328831759 9.491163781273562 7.161293382345594
Ga 13.400151266751076 15.31653252319562 10.04165412369555
Ga 14.355526334096863 12.211515562702154 13.370555025217469
Ga 16.199154829679863 8.68134337006325 11.517265338847807
Ga 13.001043852436956 8.237802264544921 8.25262572921181
Ga 14.303773260262062 9.341020699237179 13.134356029357974
Ga 15.675548959891913 8.074253158041168 8.876825172365239
Ga 13.99732713253211 12.7617220864849 10.362041161581661
Ga 12.767168226024387 11.198989296648984 8.102748388795035
Ga 16.085806917404277 11.440411389651075 11.489355551015572
