45
Energy = -118.12567556 eV
Ga 6.244549711074992 9.643138738139282 6.838502028275408
Ga 7.982961651132724 12.588440010440994 13.820565885757299
Ga 13.93470401212923 8.928829610387147 10.946249277132862
Ga 9.335240002301436 6.984633293517083 6.440658011527717
Ga 11.248557590157832 10.364819680582483 11.250674918075074
Ga 12.467488851185154 9.631275216795212 13.601903753792941
Ga 6.28810127037171 13.901954958399541 9.378462052777735
Ga 6.258431089984192 12.429531436378666 11.677750801636808
Ga 10.281065664212605 13.320949745665647 12.608915716117234
Ga 11.986045973410524 7.161883185615773 12.214773181424507
Ga 11.858911009196637 5.0868838327831485 10.403460171206545
Ga 10.09831421579279 5.743025942131038 8.578305586735924
Ga 8.699831858505929 10.883256277458367 11.70031022067655
Ga 11.201088235739123 13.481866414812806 7.482636697349141
Ga 7.559697098342059 9.7819505042961 14.028510318859652
Ga 7.442847644147125 11.609026449210033 5.147423765109528
Ga 8.999218839791428 13.11286084873166 10.11067445680544
Ga 10.15093066661259 10.766529727610939 8.434576749845691
Ga 9.810401942923505 8.398912887181455 13.116260982579837
Ga 5.79353201811065 12.216553649120817 7.386192810354607
Ga 11.869678260256554 8.159635438476512 6.660875065083179
Ga 15.04462284568518 10.723102824285629 13.055873534695124
Ga 4.600234034574697 11.072481359775836 9.637588291570445
Ga 11.674532873161095 12.7788433909898 10.034570931431285
Ga 8.50225770775444 8.648462328708897 8.507691217352551
Ga 8.494660438777672 12.818664463155038 7.470048322000212
Ga 7.923853157295121 8.20891465213608 11.2022763179459
Ga 12.257817513107423 10.81082460568581 6.30744215624956
Ga 14.41208539303533 6.130657088641038 11.03287615001727
Ga 10.166591239603132 12.140636934486698 5.34050840972256
Ga 12.718725591392104 12.344865120168434 12.863775683405759
Ga 9.125590091626384 9.57611006487565 5.969342820692404
Ga 12.691357544945925 9.879297541011463 8.770942887789008
Ga 14.053794704842081 11.570982112908105 10.492496468855382
Ga 6.605389949539845 7.062072302500323 6.953291069579551
Ga 5.8187097809083825 9.744349218145981 11.874955971429406
Ga 13.702073552912465 12.523072233155188 7.959001914035719
Ga 13.043541936512472 7.20467837891784 8.836170018037341
Ga 7.424842063792932 6.098145009686121 9.420790776540224
Ga 9.412658179802131 5.9238685940352696 11.742750567685233
Ga 14.521187192489796 7.797989748802706 13.38627569295681
Ga 7.365709724343685 10.884177354526436 9.420846476851324
Ga 5.701937751165068 8.423589465829604 9.387036192782341
Ga 10.614478655509595 8.10178876419763 9.938868809299578
Ga 10.238927567349766 10.963645691142624 14.194073963454914
