49
Energy = -129.29129713 eV
Ga 14.30520060762587 12.552393086563374 14.023228632183278
Ga 13.286050064540435 14.609077694981606 11.861181290095406
Ga 15.391885370601196 12.888192160098793 11.4888942421233
Ga 14.336365261688792 14.151130197676085 9.291288082362065
Ga 16.897805270926366 11.501192575779488 13.627227932800855
Ga 11.762920332158151 15.247237233126857 9.566850243387057
Ga 11.913922258721275 13.68684781092569 13.892621001890655
Ga 12.196593929319924 10.819238417769567 14.494605492169839
Ga 14.846658060562547 11.328198846248602 9.16070212050408
Ga 15.6152266142078 10.17263054697753 11.502061188409058
Ga 9.752497433676245 15.65181189964296 11.21768279339781
Ga 13.683810039881124 12.926385468778308 6.928425648278148
Ga 13.031886976783365 11.470666496112038 11.785216381135905
Ga 12.169907282332213 12.3508302249812 9.32131224751376
Ga 10.902069072962856 14.052996709496549 7.289785041063462
Ga 14.827550740825789 9.707398368942513 14.188229839711733
Ga 8.852354965474218 14.180201184009302 9.078716338525
Ga 9.403784180080713 14.567433263409741 13.668865193560089
Ga 9.798603589825753 11.778217129321128 14.127089305281087
Ga 13.349255972709031 10.18518467981882 7.157539055563719
Ga 14.964886947625807 8.399726171361445 9.555924116299282
Ga 10.544728491755572 12.940515920216454 11.405997909859563
Ga 13.805250723886738 8.188235461128302 12.10021271803471
Ga 11.1172682573972 9.531294344771421 12.210657053015035
Ga 12.602556998014581 8.132444654837833 14.546499748725008
Ga 11.018494010462117 11.470057025242111 6.633714273891148
Ga 13.134860782896945 7.591011826377978 7.694337814471119
Ga 9.962349009254439 8.98471114393895 14.885476142012564
Ga 7.565677719486489 13.825821030806752 11.371311242906136
Ga 8.757095479944045 10.957703102151651 11.706340479693612
Ga 7.267363900167478 12.935295223004415 13.962636305531147
Ga 12.39724793054826 6.732046340686722 10.53505953760242
Ga 8.16489192121866 12.538788783201447 6.926248099029518
Ga 9.703615522208178 11.343591406199218 9.132449662458347
Ga 7.619684673735487 10.098604071404322 14.271420414044902
Ga 12.320526131012937 9.598391012540318 9.772567678807302
Ga 10.687973721329486 6.364856872800007 8.428976640899466
Ga 8.93422268882524 10.157333934999176 5.559838625724607
Ga 10.5958123506166 8.848505839231999 7.345502692251184
Ga 6.069120979868641 11.469867239614869 11.73520254302116
Ga 10.964017695466955 6.794627308123059 13.026137441566892
Ga 6.907888488975134 11.980055544291414 9.295953546973925
Ga 8.459742871531647 8.115431628937507 12.510357429393599
Ga 5.106631431265715 11.279238255464795 14.243657889169418
Ga 5.573051628387213 8.75802001113416 12.799498663406977
Ga 9.522001464407097 6.02818986582722 10.865020356958693
Ga 6.894972594018772 9.227367784093852 10.36223327275605
Ga 7.770306574141091 9.690888842830068 7.919509408026955
Ga 9.682106347281081 8.628810720755355 9.964431584145986
