43
Energy = -112.38562574 eV
Ga 12.048504760624276 7.0127012562802165 7.161880502275298
Ga 10.103188205150667 5.910979445512537 8.74880859979957
Ga 14.243291024442168 8.308626082951397 8.426156105743287
Ga 9.748276066239415 8.541648406654016 8.14459573245571
Ga 8.157510486168995 4.995469324306802 10.557226013664645
Ga 12.074818636864093 7.516403891045957 9.947073228373998
Ga 7.473498534465289 7.17898282978674 8.98350541881967
Ga 9.999725137698896 6.685000880530853 11.582717757785563
Ga 13.984961559990785 8.898492487828705 11.28580159913209
Ga 15.742833104736235 10.281250403844748 9.785057348695252
Ga 11.779268896076475 9.699857935667197 6.5621989256876265
Ga 11.806032981844421 8.046845259075328 12.80640021428739
Ga 9.231176224338816 10.288488738625196 6.01095700347472
Ga 7.1491003864142595 9.27826988351294 7.514996520715234
Ga 10.456694355697058 9.58895045194085 10.677041090497848
Ga 10.160523115426427 11.269319526154057 8.498789179006803
Ga 7.321897322520045 7.309118741693178 11.738892113599565
Ga 15.00578720412246 11.238117555193154 12.52886997760133
Ga 12.643026969956132 10.383825480998285 9.158730865236134
Ga 13.556067462304469 9.572812571973763 14.12378258456088
Ga 12.424401019108434 12.51490182194125 7.276550200906341
Ga 9.06974779038838 9.005917753038268 12.97403714821708
Ga 12.379258315528343 11.284873732614653 11.799744029981422
Ga 7.801747794001818 9.721092251038497 10.332475304521704
Ga 16.636065263875963 12.67282991765128 10.850620215108526
Ga 9.868650244187672 14.049759706475186 8.000433933292229
Ga 14.289033975685607 12.554640076254634 9.293655053485887
Ga 6.212715834844668 9.358304252543657 12.9858153484652
Ga 10.921522487582482 10.644927056680013 14.18716323354245
Ga 7.855706469978074 12.224835991367906 7.217125017307771
Ga 5.807320897275801 11.230398080893545 8.949336951146693
Ga 13.10602029747302 12.513573623075866 14.35139889684028
Ga 9.732972882226463 11.865420993938917 11.927564503232938
Ga 14.228302870076527 13.952141050243846 11.712420677894718
Ga 11.864727241538697 13.39185320414516 9.893435806205677
Ga 8.056583787304639 12.573733274424102 9.858891753139428
Ga 7.936733207034719 11.198692438347685 14.202792440315035
Ga 6.114510340133512 11.657784453629846 11.547046473028656
Ga 9.888615870381248 13.067508421559037 14.572617571707173
Ga 11.606876917891425 14.020310671442868 12.52095551691703
Ga 9.576667886496658 14.632793674555433 10.743441735037603
Ga 7.729809088558601 13.622851653146204 12.581969101346658
Ga 9.451826365854428 15.615873975116532 13.452981604007997
