44
Energy = -115.09862497 eV
Ga 9.284677783696793 9.756524109464705 4.21976667745517
Ga 6.380490723703362 8.452586232830086 4.370268399936797
Ga 6.994584271729025 11.563530709547438 4.817710727758945
Ga 11.474418773168892 7.561721975514093 4.627826938110244
Ga 11.969969454420005 10.421456734420639 4.767415664080528
Ga 8.652660344305447 6.927002223397618 5.2022826740333565
Ga 9.603209031610314 11.955240270153384 6.106042335928409
Ga 7.778389380238129 9.574310252463926 6.5083621081290435
Ga 5.087696596064513 10.158648569414755 6.902074569856189
Ga 12.312956802644733 11.036969205869893 7.372759881850286
Ga 5.996190711940796 7.2140001727214695 6.954704708534866
Ga 10.377211505264428 9.09411592784541 6.724305478614184
Ga 10.956187288844745 6.109365628888277 6.979927633563571
Ga 8.30626697338414 4.793108711552977 7.591725551120783
Ga 11.452705625309521 13.528865043676053 8.165072089542678
Ga 7.252101448397578 11.972706729083512 7.94906991591094
Ga 13.037690369730115 8.290830039982025 6.8785509327528604
Ga 8.646927789035765 7.459403100048984 7.862582797030172
Ga 4.346279333451157 8.13623907308738 9.250581192797787
Ga 9.825172795468314 11.118623303960511 8.702712241566532
Ga 14.139675513490145 9.594817877979535 9.111718454270834
Ga 6.846641280983166 9.287301231135688 8.92338165428853
Ga 11.342710668304521 8.594578018316163 9.188819467844551
Ga 12.729711786910398 6.180785235990603 9.31131556118102
Ga 12.648274746099517 11.86212260903855 10.046452969868644
Ga 6.635139429426789 6.3855176672935805 9.62833370004985
Ga 5.025142813212013 11.163477239079047 9.9828621330362
Ga 8.840527363772253 8.366093813448506 10.268799639152725
Ga 9.76562509797308 5.653450070976469 9.82031275453256
Ga 10.11267921618845 13.098029490150727 10.68258592079716
Ga 6.112517275133098 8.82398265454064 11.500660677190838
Ga 13.100937026579023 8.967613128633223 11.610857260084678
Ga 7.922680439634625 6.389610803065171 12.149682502464541
Ga 7.7889327356956075 11.393469998966438 10.653294543193368
Ga 10.607624229170648 10.258884922410607 11.160096412278188
Ga 10.750685174621605 7.16775372406649 11.882079990193748
Ga 8.651189684925944 9.160780210593655 12.675858670147873
Ga 12.298012146139799 11.786998313027587 12.770366992412788
Ga 6.702035720902206 11.2069685033764 13.182693640745056
Ga 6.548172496466182 8.344319213354524 14.182444242822301
Ga 9.407458697891869 11.981469863164442 13.04488348457106
Ga 11.282601980603381 9.123887249660235 13.77906427090307
Ga 9.35170765458542 7.061635692551172 14.48332535394312
Ga 8.804555140992152 10.17222977736529 15.157392507562065
