46
Energy = -120.82400612 eV
Ga 11.328612031657217 9.052784988890467 4.273655400184686
Ga 6.038368695280188 12.601854489816938 9.13845645855838
Ga 4.373923349497884 7.51498439091067 8.842899387937935
Ga 5.6430401960739776 5.166487760014368 9.42646568303742
Ga 7.351006580764997 4.437149986029255 11.538031859592367
Ga 10.39568407092742 8.480995318194932 13.666186584198721
Ga 3.6231770145636935 10.170482215774564 8.821562143245144
Ga 9.781287867485885 11.063210826970764 12.35740328073171
Ga 10.364272600687576 6.07667710565647 4.750225341634629
Ga 9.397261085637082 5.839816881342643 7.475586525439601
Ga 12.240513716587687 7.420104457430013 11.39667288190417
Ga 8.169869637706329 6.376169813710834 9.819666086384137
Ga 7.377197339512536 9.199670113564608 6.2105279832663385
Ga 12.14554778375602 10.120114794975304 11.429097339497426
Ga 12.981715641244037 9.193697203634118 6.524762151652549
Ga 7.857767119590271 5.189259868256156 5.2622021083713255
Ga 7.544163931926473 9.604296566134602 12.897646663135289
Ga 9.579969308042928 4.021964051011705 9.694187147799795
Ga 6.677934076502178 12.34872713470252 12.06304037343169
Ga 11.567640112107284 5.734537665358231 9.26806397296856
Ga 9.118143824992325 10.745863769626125 4.5115923283053725
Ga 5.930485660606147 7.34627179016016 11.137364106262494
Ga 10.827466001645432 11.754806541172233 9.655599360931499
Ga 8.875051516285689 13.288979607250383 10.594410519866175
Ga 13.166480597108324 10.70377787160226 8.847585516509714
Ga 9.980759648518324 8.294684741019536 6.428126953796295
Ga 5.041496578997391 11.398176045458127 6.796641366655128
Ga 8.613775131948046 12.140002571148068 7.999709528261434
Ga 11.199134869023181 8.829223284052867 8.943783674122884
Ga 13.824962214907636 7.731851994056441 8.990748215170054
Ga 7.3084747424260845 12.30510418677039 5.712667165898105
Ga 8.09459539411074 10.597764676911734 10.24104198806374
Ga 7.413727722547999 3.9063853596819618 7.649725277865961
Ga 6.002517100449272 10.241485628517918 4.11288459285152
Ga 8.478084991918415 8.090942038392472 3.924007446085758
Ga 6.371046232405285 6.5138241278609845 7.145263118883183
Ga 12.100234374760632 6.542536541717874 6.784807616255652
Ga 8.58269932941889 8.503991732260715 8.556822986343521
Ga 10.827783560187697 10.947987174592908 6.879613314025515
Ga 6.308728554965638 9.760128017464398 8.551317170247943
Ga 5.333558229788837 10.017011543792714 11.121886946211564
Ga 8.004202288007189 6.924496632826338 12.861409139681996
Ga 10.21561419876531 5.652163191523588 11.937796208632763
Ga 9.577499022068064 8.443256141612451 11.05720469315071
Ga 5.938472640167342 7.17939300883102 4.450784121538135
Ga 4.531576240766886 8.63242897565468 6.356390097749789
