48
Energy = -126.57663709 eV
Ga 9.743595340599095 10.569783817065836 5.985694590253603
Ga 12.409855388536963 10.463344084508007 6.737034434005015
Ga 10.407912335229696 13.004688390566544 7.006359114424696
Ga 10.96385708193787 8.150885403096817 6.789051604559817
Ga 7.134108683229954 10.498549676959952 6.566537196201123
Ga 13.037117779838221 13.007947355413256 7.065476012960027
Ga 8.371130007242169 8.188450374583427 7.456641156863533
Ga 7.779863465913945 13.635479948809637 7.176759909303065
Ga 5.7453185994293205 12.169076693448027 8.261662674331651
Ga 12.22712457532049 14.97285496571353 8.763685706035263
Ga 13.965697463791788 8.301954451882978 7.254630527182661
Ga 14.480376794436937 11.654347570927255 8.848994886086187
Ga 10.332417038686756 9.39782547528499 9.176824277551956
Ga 6.473175461932448 9.462608912378807 9.022512238709322
Ga 11.98672203087016 6.492658180585632 8.50452234339743
Ga 9.506548551178032 6.834196056539098 9.777916572926069
Ga 6.809359136031214 6.769042775230523 9.252712129356535
Ga 13.786843471975061 13.55265556662849 10.692758321548062
Ga 11.54421690462148 11.917100586440702 9.543121063562136
Ga 8.678655915609962 11.427892598466444 8.839580732993394
Ga 7.203044796603645 13.981363779083505 10.142691608482565
Ga 15.630868346685121 9.418552033912368 9.506975990519596
Ga 14.502015975123106 6.722570950674426 9.552839213483965
Ga 9.66613876900826 14.483520700488931 9.213278837002225
Ga 12.899208305747482 9.285811248362581 9.605995860690296
Ga 16.664758834355784 7.485952245135028 11.064046983581765
Ga 6.638576315854918 11.461182752454942 10.936091298912025
Ga 7.349528489474826 6.557075105649571 11.993734057667817
Ga 8.529035638769448 9.231543801395077 11.259657632224522
Ga 14.207579253655414 11.00205710933971 11.607002050059185
Ga 9.390093454595355 12.381546111097396 11.292203160407066
Ga 5.678298864374022 8.771493510051656 11.4992665103217
Ga 8.817518808022186 15.364240027396047 11.980317097107697
Ga 12.087823767064378 6.834068444335499 11.161798777375495
Ga 11.319787717168222 14.4918697835511 11.459118983654282
Ga 14.310205147130617 8.28168557388208 12.164186706095444
Ga 11.197876952714244 9.522359357177692 11.865627321531953
Ga 6.117797335731369 10.72614613847353 13.510514052558932
Ga 9.873890920407765 6.849154929108929 12.621445216561511
Ga 11.879339774229736 12.08089749949233 12.53374179834259
Ga 7.220894117558648 13.29102339372392 13.143560357566894
Ga 7.722790756992009 8.475693530186161 13.959423104840166
Ga 13.147373065252038 10.13937644340652 14.009383550653924
Ga 12.225333621066525 7.452552424301383 13.824339915898424
Ga 10.094729007282586 13.675082473245768 13.979509448506663
Ga 8.909693848231846 11.082153854635195 13.543147021852857
Ga 10.225703794239198 9.00901176010283 14.613155053146194
Ga 11.159827142818383 11.524300981375518 15.288101745272433
