47
Energy = -122.18620932 eV
Ga 12.083260894802457 16.105472095129386 7.500386106185104
Ga 13.718466469369298 8.906562057637712 7.800117758644427
Ga 12.18557823160955 10.873818242558357 8.507393189987784
Ga 10.107844070188689 11.212571405821446 10.164506312907598
Ga 12.019954009751391 13.435731269529612 7.982014945979042
Ga 15.182676532955016 6.604868048246428 7.506896550771944
Ga 13.742377787831597 15.140266771248687 9.402432591627344
Ga 11.595010786950983 8.370896052652213 9.473431514376264
Ga 16.18818719682683 7.980991800603741 9.593393045983476
Ga 10.544695138844329 15.14666733607942 9.66385758080024
Ga 9.853870029881334 8.66824493456765 11.327579933943289
Ga 8.553246405359726 13.440850468572815 10.057849244210578
Ga 15.208054717789121 14.515757463495877 11.599296061233886
Ga 14.167642989351142 9.708213139780788 10.413530008328845
Ga 13.658053910166657 6.667008181816611 9.82025682516401
Ga 12.011005613939792 17.550249072493106 10.001600618206222
Ga 13.108373880273497 12.71526287600492 10.496172946042947
Ga 16.865353766180377 9.853659305025149 11.348212819976403
Ga 10.07303013173914 16.647887687975167 11.848965252390219
Ga 14.470354736783003 17.226803523670327 11.500124563358128
Ga 15.346050401217964 11.90689961266295 11.864523028089568
Ga 10.648295086012808 13.445865651022277 11.895199932830318
Ga 8.041808320095688 12.908411009527452 12.64527689237815
Ga 12.205069570083367 10.62290362408735 12.205019953654876
Ga 14.45212935964139 9.38675468639733 13.265886830933106
Ga 14.232963082735175 15.726660828501105 14.159864480303266
Ga 15.43906458325219 7.21165157125478 12.166783325906502
Ga 7.951585820486899 8.46839712642428 13.095081852679488
Ga 7.212367332983592 10.87066000627073 14.102404273303769
Ga 9.871208189775492 17.54303514534912 14.455496417459196
Ga 12.487131104820996 15.35176376465005 11.862266657733594
Ga 9.686617010951055 10.736855614105759 13.053627195252188
Ga 8.718374261765605 15.210690610372994 13.813217893549304
Ga 15.775894288875314 13.478202055517196 14.247793513678667
Ga 12.69252902362407 7.607380663782956 12.063255637965828
Ga 13.033114440559734 13.147583309721295 13.34886753855994
Ga 14.0556347689586 11.288474595498473 15.062150965005454
Ga 16.666104954208258 10.839856596953826 14.20888164258259
Ga 11.07929980734324 8.195066278632055 13.909240534049326
Ga 12.619592487363182 13.34730841049802 16.336587188710585
Ga 12.435680245639487 17.934409315366103 13.272157317520728
Ga 11.558347299996706 15.36334329286826 14.559138243198321
Ga 8.974504831376878 11.398285227172444 16.25318320438112
Ga 10.209331407910598 13.052458397188389 14.708612391667312
Ga 7.231458853293525 13.420605976346359 15.514483029385486
Ga 11.58225114212487 10.64023969395782 15.158074078956142
Ga 9.226802993499057 8.894703172150914 15.535156079336623
