48
Energy = -125.86249381 eV
Ga 9.74694060116562 12.347318039584335 10.98922649187103
Ga 12.294368296162022 11.496767836831568 10.051314059401742
Ga 11.553570236652366 11.93368700228506 13.00468721207397
Ga 6.507028604805615 11.599005913376514 11.836322664783003
Ga 5.681980965934193 6.410406989798287 10.054980740835777
Ga 7.908057535783721 6.143380410626888 11.664433947761147
Ga 5.970696909973388 9.449094446919391 9.69110269737742
Ga 6.206661553481543 12.447459188056987 5.658197228372991
Ga 4.328592169664018 5.892400191799262 7.484561736254276
Ga 7.695781286588173 7.66929574529102 4.405960725596622
Ga 5.278596880634311 11.86498087348637 8.417633708586251
Ga 8.800463816156993 10.751813814584407 13.239021900339369
Ga 12.498889660046881 10.530540903366619 7.543498887436901
Ga 10.619974772891347 7.987878578418748 4.6633251764110275
Ga 11.228566554621203 9.357166605588576 14.382829939013629
Ga 6.3061175910437335 9.981437440441164 4.4228107218298165
Ga 6.688020708667899 7.3593117794270455 7.771699549258908
Ga 8.793618255126782 11.98518301869154 6.635913343765722
Ga 3.6577748184468235 8.719838647276505 8.282364286887104
Ga 12.447356362039812 7.503274564472916 12.431654534786368
Ga 6.709727089838998 9.932557500313818 7.138129628905552
Ga 10.084625102362523 10.090747644757894 8.834338332729903
Ga 10.849904336328354 9.66408118611786 11.546397573969108
Ga 8.353549290713486 9.552950247197405 10.802040590588403
Ga 11.417197760145564 5.243334021490818 6.055390314331245
Ga 7.845281950485188 11.85762033694849 9.165308633844079
Ga 13.622317703845082 10.06925779929367 12.107342153966803
Ga 9.095713333877583 9.296194907719556 6.472264725505614
Ga 9.273785624476913 5.362979684719158 4.143978940257723
Ga 8.727005643699991 3.8781513721779093 6.710153237362157
Ga 13.039406497379668 5.986102919778317 9.482769299569362
Ga 4.104219977499824 10.52755425943361 6.127819177255773
Ga 9.338158236524611 7.880283744857404 12.995356702899898
Ga 5.963223874346574 3.637004666023935 7.7306089654436985
Ga 11.358923952118895 10.689594767523802 5.017584792247558
Ga 9.02557934993812 6.613645320485958 6.699614420943098
Ga 8.80520161015689 10.964555639101606 4.00176293254054
Ga 7.756531282003731 4.6785673146148925 9.43029919227873
Ga 12.592899826096353 8.686246353885156 9.710571098178697
Ga 6.412832018633075 8.589532797023873 12.495777314037609
Ga 10.642509182796703 6.500258241859663 10.85968613960302
Ga 6.6140319312979114 5.464262148878115 5.658756321641081
Ga 11.487959596326661 7.832858970663025 7.4089816670871445
Ga 3.9104353186434038 8.142849020901902 11.02157536242355
Ga 10.390200394685275 5.084928335849344 8.625199775176165
Ga 5.030282987850733 7.896707930076605 5.677220251344758
Ga 10.696793770392857 13.064567935935255 8.40961246932019
Ga 8.812470571000356 7.556188735399678 9.21374622725835
