43
Energy = -112.01135569 eV
Ga 5.024622414189401 4.0311037978012925 7.096040763993517
Ga 7.645422379335651 8.641497548231154 5.126943759498169
Ga 4.828621776970846 8.298338097789113 5.261490867155855
Ga 10.022654141920285 7.75595907552463 3.888584746745509
Ga 9.299891518019797 6.105596114898522 5.97616147596175
Ga 12.239179106002268 9.676690100904676 4.935329535257292
Ga 6.182415444463235 10.953580929239308 5.753794557627022
Ga 6.964578959880284 5.687959047801583 4.400359262684375
Ga 9.438589305939091 10.93526232662661 4.674148689969899
Ga 12.074981939023827 6.902536760257275 6.031686530622313
Ga 7.9523594587283535 12.973588070981814 5.673797858320499
Ga 6.284382875764021 6.511644890257939 6.9720305558148175
Ga 8.390107811016774 10.961139487500976 7.434715557257342
Ga 7.851634414940329 4.017592051571331 6.993227547684019
Ga 5.078399486075768 8.933923509121135 7.964795439520143
Ga 10.154660026067399 8.92869827747246 6.489996697852919
Ga 11.183177846257749 11.541739933376391 6.965287199716272
Ga 8.06447330204065 8.286414556584663 7.8652086451647865
Ga 3.671551084977381 10.838969080869791 6.6660862961878795
Ga 12.733166951017422 9.163593944087614 7.813028017546467
Ga 10.944116662970124 4.632805127777551 7.828590749365575
Ga 10.740360323299809 7.410733180225542 8.59188639333848
Ga 13.25031082781175 6.387271297793052 8.796106371885417
Ga 10.426090254415541 10.346203501688358 9.358574366308124
Ga 5.71353963507496 11.67807457094028 8.63394113062507
Ga 9.765429605871258 13.724430050562122 7.664612240205948
Ga 8.435607693345817 12.543754441584783 9.739122914960065
Ga 8.619201681564336 5.867206663140517 8.891113401033088
Ga 3.975493074825551 6.439958232504784 8.630263715684318
Ga 7.473343173378426 9.87512531862336 9.84778492219431
Ga 8.680461580552114 3.272093620789288 9.756090601190426
Ga 6.170736355175257 4.532584750140893 9.506985787586373
Ga 12.074965812449111 8.613256490038932 10.84505982369977
Ga 6.427617569887214 7.319643548221842 9.822342866059312
Ga 9.259265717622771 8.00822886577467 10.738496503874629
Ga 10.804029555151363 5.576043766332464 10.82332292400967
Ga 4.691203259152786 9.44616599683134 10.672078194863872
Ga 6.413998117383343 11.668594727764452 11.525046921571413
Ga 9.276060599979886 10.608889673137357 12.050424347910786
Ga 7.744232226012091 5.490587513765723 11.597689785945363
Ga 4.971457736746136 6.722939235282059 11.990985873070304
Ga 6.988587069235662 8.692158415049146 12.400085874622418
Ga 9.111392370568273 7.03979455623772 13.349051430518939
