45
Energy = -117.72945853 eV
Ga 10.743694126756079 13.700249833478276 9.158982756871012
Ga 13.36556690775116 14.665962765699543 9.25482512751094
Ga 12.678501187280212 11.953295499401264 8.267207725993003
Ga 8.871522307891075 15.404965475086902 10.480610983553042
Ga 11.522682355563216 15.37443939467019 11.504367904948307
Ga 8.259154216197526 13.905357760258166 8.086353222361593
Ga 10.26716118923758 11.53547238606155 7.295219974633545
Ga 7.781233254395925 12.02865960978739 6.17755761098835
Ga 14.949719856698108 12.447138667102921 9.744582949215522
Ga 14.314717180443099 9.723236273562302 9.218405513152613
Ga 8.894991422966125 14.744630251476929 13.484375315909784
Ga 11.08055795213532 10.878757439398663 10.282256562599166
Ga 11.907634915855047 9.254897990424562 8.235590148260096
Ga 12.676642260828467 12.78944430634582 11.33148084781742
Ga 9.766465436536697 12.834725114831166 11.60647161489904
Ga 6.927842399948848 13.452814690322924 10.601908505504179
Ga 8.332987522538128 9.42991146940904 7.060490393459848
Ga 8.43532461706997 11.309413747021601 9.395316866041176
Ga 6.0525169955511915 11.94829533177852 8.468174134508436
Ga 11.436583644393524 13.611158131617694 13.775747275886644
Ga 5.69089185204933 10.0582637247518 6.558613518582598
Ga 16.68262139229211 10.379012753647903 10.258007504426049
Ga 10.209452428445841 7.584745017852014 7.096249076208372
Ga 16.41399431620998 7.723633901237877 9.48867834642605
Ga 14.518287170706598 10.787859161106887 11.951483563510992
Ga 13.718986151356154 12.283981743134454 14.035184196187583
Ga 6.462188390230658 9.105911201862796 9.099043625877522
Ga 13.662327243082144 7.124627797099531 9.411154933175334
Ga 5.763346013924061 10.936496862805939 11.15442758738223
Ga 9.290515166692995 8.714802824681374 9.558298760226998
Ga 9.025359865741905 10.155795021818227 11.931818077909982
Ga 11.466823577049889 10.693595563945825 13.289656950358033
Ga 12.357058127465681 8.787794774928038 11.430442442203551
Ga 7.3459782207744455 12.446987869527915 13.037293593163632
Ga 11.021760000626088 6.562046084983791 9.362103249966156
Ga 9.43625201707213 11.961188953487575 14.687872787169344
Ga 15.026603418727486 8.098426372230106 11.85099395049184
Ga 13.7231853432068 9.399598804341142 14.189482803792464
Ga 12.276078946267464 6.009698063232102 11.691169123197536
Ga 11.291918901988238 7.85778831328013 13.866740711760366
Ga 6.779709354709809 9.771601469145116 13.537347900803073
Ga 7.265992439942333 8.008111743233911 11.431322587764196
Ga 9.188216843082243 9.259883584551861 14.612003647514028
Ga 9.717915342997626 7.030352356035369 11.790613372849583
Ga 13.791368090655782 6.694985300445922 13.869184224865464
