40
Energy = -103.53290572 eV
Ga 11.602671239881479 13.568280063547817 9.107940046414885
Ga 11.803057214170178 10.93601302431973 8.755192397543201
Ga 9.222984123672159 11.757324509420316 8.040150029223831
Ga 11.97312347304881 8.292619012771747 8.23176536658757
Ga 11.464511958134826 16.077513882176714 10.029121974193293
Ga 14.30531642425011 12.00090358316915 9.146954728395261
Ga 16.26299029602203 13.057891276815527 10.441289266175177
Ga 8.903729913185728 13.737448355630294 10.0212588220946
Ga 10.824418410568239 11.776309325871207 11.07047431479692
Ga 13.965096962164216 10.005673922267334 7.316706295089803
Ga 9.784468834167175 8.977018156295738 9.63659119733016
Ga 16.735586330276295 10.324958863596871 11.190421475214206
Ga 8.113173111825233 10.91873684227395 10.469142016800793
Ga 11.927381905302752 9.254173930075796 11.211176803176828
Ga 10.568306659286117 14.409870916854228 12.05797470297099
Ga 14.355519646667547 9.240384145378794 9.924691528506882
Ga 15.731992246649025 15.329926783956429 11.755985407339178
Ga 13.522829890163619 13.758459926937169 11.132126020579863
Ga 8.582078364247545 12.566446048806926 12.562497453095908
Ga 7.088526749452288 10.214759372048345 12.73624703098671
Ga 16.318784391985883 12.383828938681171 13.09786504081263
Ga 9.955957207757983 10.021276152345823 12.903502356014961
Ga 15.122883127206183 17.006624392803097 13.936401545920859
Ga 8.468451543034599 7.966618754324556 11.740980385801198
Ga 12.922868998301858 15.999763927623519 12.378245092941405
Ga 14.048968210528601 11.17898113914817 11.942325760477301
Ga 7.816371565687099 8.473502757907202 14.603847069766696
Ga 10.86924525653535 15.848878801546629 14.430277789319096
Ga 15.936487478678798 9.743367390474237 13.845207522020328
Ga 14.275062927474922 8.142192179442842 12.383290628520614
Ga 9.822918357937613 13.498038564553685 14.793994839085688
Ga 12.23191940868164 12.735835429401993 13.396353003610937
Ga 14.677551829511987 14.109504785584196 14.025170368699968
Ga 12.399242697313838 18.073734867132362 14.216134094111366
Ga 8.447919023586326 11.226089527984803 15.068877594135992
Ga 12.578382434519575 9.61810104968897 13.882995952269432
Ga 14.219160932097793 11.507213726931711 14.932970250262152
Ga 11.175189925238264 11.030184897167247 15.616433171742294
Ga 13.306583290555656 15.672981644248472 15.533763783435091
Ga 12.41659519164126 13.30687668220546 16.181964425946546
