40
Energy = -104.33550817 eV
Ga 6.994029221678721 9.468343560701816 3.9641372536325084
Ga 9.712374868990652 10.321429762763982 3.8072728543702907
Ga 7.865923500103174 12.42020192342056 4.24030339429392
Ga 5.361577571224764 7.816884713153945 5.477899643543768
Ga 8.0361435851669 6.279317534848308 5.172936508968241
Ga 6.276026925656545 11.176733768822698 6.068363776643222
Ga 10.4151456955822 8.207892812384262 5.39110893471791
Ga 9.42767093989145 11.499670101446563 6.29134432516835
Ga 10.839148928813698 5.393666506349565 5.992909777466402
Ga 9.969188872797384 12.25209661242575 8.913062121801971
Ga 7.82499765350877 8.794928384751035 6.436006717866309
Ga 7.528798423755521 13.322706129285217 7.643257721016093
Ga 6.184500699932568 6.112043814198022 7.694504157166549
Ga 12.122968731441643 10.39276407197798 6.6049658590206715
Ga 8.563185036620961 4.145011559056007 7.569849044361446
Ga 5.190396104570489 9.167824404006733 7.947680504319024
Ga 9.25291490023738 6.80298962119658 7.669552605524834
Ga 11.06923657880411 5.11394977963456 9.031152395454498
Ga 12.108758399106774 7.429318235196691 7.511164284703781
Ga 10.078157928948897 9.425533715441322 8.016801380999949
Ga 7.586193461401821 10.697965511394733 8.433683505366611
Ga 11.93540874017521 10.068574654162873 10.103460782641887
Ga 5.129870325353234 11.866406780112051 8.916997024428857
Ga 7.434921584597753 8.06831097404492 9.100301239489049
Ga 10.362008086127368 7.616215949592752 10.036238381568873
Ga 13.025886329307578 7.16203132640804 10.270290343220154
Ga 8.386623637754889 5.362474970625037 10.07590755217671
Ga 13.972938008572436 9.276437786752213 8.453279139290794
Ga 9.090827222655811 10.037710160270848 10.478009579085176
Ga 10.433448421496125 11.964918692746394 11.943938495488876
Ga 7.491819658809363 12.441515938621945 10.725971877508238
Ga 5.781540524422745 6.494985129596451 10.610970642013186
Ga 5.995879630944172 9.760496884745484 10.832704401795622
Ga 10.412295816223896 5.965556244292278 12.238290359968843
Ga 10.715311762486836 8.985532106791824 12.533375694181073
Ga 8.192315254105306 7.8195463063391335 11.632424599470166
Ga 7.443243042756253 5.398205253864939 12.72287811347797
Ga 8.052024484879095 10.427932596138811 12.95329170770709
Ga 5.959754544485871 8.229008553719002 13.162285346559216
Ga 8.727368774970017 7.763691047077402 14.282251831880037
