46
Energy = -122.04437484 eV
Ga 9.447593819960863 10.345546354615518 5.081309301494026
Ga 9.604875762123212 9.448841073776695 7.667340092275514
Ga 12.044149074427585 10.247006686463536 5.877332825750687
Ga 10.480914545867028 12.76797554484289 6.186762924941026
Ga 7.266385894413137 9.278028079986129 6.108032189568005
Ga 7.974373614770794 11.800718944601034 7.2160972085311474
Ga 11.883989546825203 7.741857934099807 6.670818340494123
Ga 14.294049778103028 9.431232294407703 7.461528218998607
Ga 7.517465881303503 7.284262029772366 7.920979596072118
Ga 8.65363188006079 14.384242664537261 7.943031683667336
Ga 13.023452747870428 12.111312431595934 7.605438395131021
Ga 9.998952142552186 6.220323557710117 7.849246670697648
Ga 10.301879932136687 12.031007560851076 9.002949203617684
Ga 6.212237105434403 12.63632832541353 9.142064999234009
Ga 8.170696404256955 10.546515807840018 9.971343679896128
Ga 11.50195939280141 14.429611352554437 8.105238263247655
Ga 11.953057666206055 9.647701527326731 8.854961732418927
Ga 13.013379048190714 6.832684060593658 8.983406511969793
Ga 8.109593112543031 13.988274266919744 10.576261667829423
Ga 14.63379670523013 8.534970198006373 10.218847855393253
Ga 5.843267655836711 9.788924912059214 8.383085272242507
Ga 14.626785375591796 11.213451009688878 9.555725915613998
Ga 8.16805268456664 5.774242558606261 10.118834285845214
Ga 13.161271763333145 13.50801397839679 10.06239424588377
Ga 11.046586567420709 5.690298263629667 10.379957885861836
Ga 6.4874111604768565 8.006320348511215 10.514034628413707
Ga 12.08996737598978 10.968956157869256 11.104110068711785
Ga 10.644803529557311 14.760253747384361 10.716480174381362
Ga 9.751273272900532 11.987790865507227 11.626889649610067
Ga 9.545075681629354 8.127060348893142 9.95154835771626
Ga 5.4893373813282675 10.614644011048753 10.923925879216686
Ga 14.381321272466321 12.09716948970659 12.117716911327916
Ga 14.087225573560364 9.46655111101222 12.705712316428377
Ga 6.864623902194354 9.43681935721093 12.993927080772592
Ga 9.168945858975462 4.3906171614041805 12.341421258513185
Ga 9.703035510964103 9.446656941304362 12.202237857022173
Ga 11.986031780991672 8.242590063879138 11.22238723946499
Ga 8.042675438242973 7.087058076839655 12.569593317129783
Ga 12.05572662613079 13.422840993605258 12.759407947086482
Ga 9.233915323423712 14.019739073819684 13.304922207163024
Ga 6.8922880321941715 12.407422586702033 12.336910012215856
Ga 11.137376788467583 11.408370486639733 14.277451238477648
Ga 9.107676555650908 8.590145361840438 14.76094002820477
Ga 10.721124198592975 6.557062245459088 13.061614603748563
Ga 11.92277643679122 8.702525583793397 14.048202596383254
Ga 8.484786404780284 11.305830776408325 14.247373868469744
