53
Energy = -140.08954518 eV
Ga 8.784666683836669 9.825908124356141 4.022444122672689
Ga 10.762361631806161 8.14760536055782 4.755899109859906
Ga 11.984554220973356 5.910834155214922 5.511294124427238
Ga 7.874805195030972 7.297871694081454 5.081011012589145
Ga 10.901262255916734 10.763118608013043 5.57718265495245
Ga 5.45550853053776 12.49159463029572 5.716719824143087
Ga 9.44258916996623 4.998865492926736 6.279708868881741
Ga 13.063153897754411 8.82632920157305 6.798986862028019
Ga 6.435851157307187 9.91945452695338 5.438929148641297
Ga 8.452523552086937 12.075953305104607 5.6472453928878625
Ga 6.54019015810284 5.151672733068611 6.598531768705261
Ga 13.025675176466388 11.882360524177004 6.7928052545550806
Ga 8.830798220508854 9.464960911124464 6.9585253262423885
Ga 10.707744718250108 7.389111543947168 7.46854770630092
Ga 5.773314637650689 7.924421277285451 7.088269594630414
Ga 10.35917777022016 12.983808006305201 7.684856565172381
Ga 13.893222072591835 10.310484935342332 9.115713270802187
Ga 13.367953749101861 6.250518720945286 7.985103230664751
Ga 8.167995178149244 7.055269202895557 7.9372096628917355
Ga 11.01173437482291 10.417203572215188 8.498188638569765
Ga 11.300885233101972 4.379534295827707 8.297187453916447
Ga 5.327095570556805 13.641351135456304 8.423629503760756
Ga 4.162686657928123 10.388852462559493 7.473152978946558
Ga 7.645657725184027 14.28713457688425 6.91305283320947
Ga 6.844103781216682 11.29196630790486 7.823495111760434
Ga 8.043434253618656 13.244953205938799 9.436486278659556
Ga 8.489454551290315 10.355909043555805 9.555601476670121
Ga 8.332469213582408 4.238672688248056 8.750031634456986
Ga 5.8197884810786995 13.923812589470547 11.076330134429291
Ga 5.866393648588512 5.9756807827028835 9.313827392092335
Ga 5.107243637162191 8.76152370449728 9.618677064977271
Ga 5.55091781933025 11.344809914392567 10.186190527459235
Ga 11.88842256387259 8.253782569098206 9.662340004385738
Ga 10.321425040367425 12.316205126603196 10.616645688467363
Ga 9.900518941531729 6.486868190999463 9.909491525380274
Ga 7.74175278289027 7.940624210436525 10.367963105584844
Ga 8.094236227147395 11.99541672287864 11.940167349881516
Ga 14.566491993899236 7.728277826203408 10.07611953511376
Ga 12.563450734299918 10.548354148796918 11.583922187935316
Ga 12.4950908193639 5.582209064040298 10.68004230127515
Ga 10.197863817264235 3.986638775738062 10.946928958983154
Ga 12.641925815460866 12.764822114479534 9.47766399326706
Ga 7.5952840943628015 5.035572020832783 11.672528698990387
Ga 9.926542345078527 9.211870906175225 11.539532622620785
Ga 5.678897561065138 12.056655136560389 13.114551262250714
Ga 5.572003169198579 6.998475688662647 11.902668454352357
Ga 6.3757818225650045 9.587575710660609 12.164270869029265
Ga 12.687053562428437 7.874484327761468 12.320713470849034
Ga 10.544872731175552 11.446794358926034 13.260910157647773
Ga 10.369520333697901 6.155639771069499 12.66067928241748
Ga 8.102242961068917 10.219331620973326 14.254020409782552
Ga 8.12215358241423 7.593806440487731 13.09649429352721
Ga 10.59419136448591 8.599983222154343 14.232446485661312
