5
Energy = -9.31601994 eV
Ga 10.514526749472585 10.084783914331432 7.704665745569924
Ga 9.461020827178663 8.379827007366481 9.170716669878475
Ga 8.114144277208917 6.705879246049177 10.432523454312193
Ga 7.984948403831417 9.699015914388102 7.122064080860641
Ga 6.832472803917992 8.037606979474386 8.477143110988228
