5
Energy = -9.36596777 eV
Ga 11.285979887309976 10.328653223458828 9.410463870708563
Ga 9.040894527423502 10.407884910578382 8.268493991788063
Ga 8.283802618587076 11.269916869355393 10.559472953153879
Ga 10.45871412157824 10.876439444810547 11.77211983617419
Ga 11.802191771041946 8.544226008692453 11.18557942056242
