53
Energy = -139.85338564 eV
Ga 8.933583445779245 6.00030989147257 7.139685299745648
Ga 7.654762674688898 8.191286216393722 5.887656967226691
Ga 6.148181788530236 8.619669242698237 8.153101076352803
Ga 10.56076617081894 8.341794350657247 5.794845204948981
Ga 10.081111876075662 5.700694858297709 9.825455575366433
Ga 11.566341083105726 6.632778468979051 7.749593086971101
Ga 7.386481812595588 6.597678593341697 9.785461369558753
Ga 13.04606058572093 8.830707519462248 7.091833383455188
Ga 12.992488304549344 7.165201212784186 9.99729345699262
Ga 11.401469676870127 6.046115626592755 12.19605112870726
Ga 9.225974303591476 8.404343757903227 8.444641341511153
Ga 8.987383449485828 10.775814855651436 5.352159786829276
Ga 5.962150508332869 10.473852884660028 6.050141535281983
Ga 8.729392800492567 6.247782254391219 12.306748160286407
Ga 4.779461570151257 10.373149927120867 9.839158514583078
Ga 11.680388511875256 10.830034887858174 5.249519795581748
Ga 5.155683903967635 7.8516428162447385 10.92376476510133
Ga 12.51332898217697 9.839161260781347 9.60542535813244
Ga 13.354280167254887 11.662157975565963 7.266916417726672
Ga 10.70624900028769 10.4740727890283 7.853619124326486
Ga 12.620522688562861 9.193835660827833 12.272547932648225
Ga 10.367361143391255 8.39649443630076 10.820400038358867
Ga 13.96772127723101 6.658052670922369 12.703658420612651
Ga 7.638364268806152 9.302983744797794 10.440908592305599
Ga 15.294748278668074 9.61797111454385 8.378699262844219
Ga 7.416915795555773 8.374569114692997 13.087061715722186
Ga 15.13402956020684 8.860922785144842 10.965255888992527
Ga 10.478462215955028 13.015692757228662 6.838783444888923
Ga 5.429390770716485 12.265552941567924 8.0878844722629
Ga 5.760342333057515 10.39696955496137 12.464313111590284
Ga 10.236038178829645 8.284813225145575 13.625575375827307
Ga 14.419478092891262 11.732130408985194 9.96419169828593
Ga 7.9900204448079215 10.861800547357022 8.048331010394081
Ga 12.474251864341284 13.573075084227124 8.961092017603363
Ga 9.912089879115557 12.29143799959046 9.753652999568606
Ga 7.427943820838896 12.936928224254752 6.0070699819897415
Ga 12.710919542426497 8.588162181563918 15.033430492049106
Ga 15.134827398062205 8.917153729663083 13.729251936996448
Ga 8.461038000532689 10.512000904389415 14.535549825133277
Ga 9.331042439529387 10.695797867943442 11.865684636816463
Ga 12.019106016217407 11.805969230632263 11.431778587236735
Ga 7.095138455503208 12.003058704581578 10.449508691195017
Ga 14.514631056707602 11.44675880316275 12.942413479818413
Ga 7.657719526541686 13.996556610923548 8.447111217785867
Ga 10.104455448369611 15.076991236824538 8.874087874465348
Ga 14.269051546234843 13.980417944359775 11.518784815458192
Ga 11.359377406092875 14.551383450929997 11.265777424529576
Ga 7.292745229845122 12.557925663586555 13.156274689434836
Ga 10.405619313191917 9.523146490626992 16.213023052972044
Ga 11.476739857807276 10.962926361979413 14.121683097376453
Ga 8.371187726270293 14.368537264138462 11.189189500531766
Ga 9.904576818072371 13.04250163044529 13.23884639585619
Ga 12.588236639505785 13.516221371245273 13.66703229176362
