55
Energy = -144.1917295 eV
Ga 15.132928627226397 12.279849651963673 7.817606233999681
Ga 16.022148456977284 14.956511665362376 8.520142651642026
Ga 13.591743563264872 13.820803319762982 9.37012937715807
Ga 17.512315345786448 13.170126311022957 6.86144486409771
Ga 10.986429530872924 13.273536771010946 8.16886032926536
Ga 12.790467278265709 11.0201939159636 8.200486227246667
Ga 11.501361036224113 15.532302034526984 9.797319504658088
Ga 14.677637013048429 11.35493031176419 10.501937902384189
Ga 14.41487585794427 16.13462106476377 10.50989551837842
Ga 17.446823069392334 11.602023996172514 9.146846076211421
Ga 16.10079762912527 13.493600582595093 11.041429673792548
Ga 13.34176125405576 16.98895802176451 13.499851949727141
Ga 18.511310431020654 14.124504130636428 9.348813745625824
Ga 12.896569407255852 9.446911298966764 10.422147351289137
Ga 10.197847743486014 10.647333568055592 9.332374821669227
Ga 12.630408662756873 14.545458638302492 12.213076049669317
Ga 15.677868684515433 17.471869910512957 12.459546957437448
Ga 9.285875064282376 13.28352840365887 10.173779264725521
Ga 15.11300416643179 9.499460728727712 12.611276286000283
Ga 17.569049444316473 15.841773604578947 11.122598103750326
Ga 10.706360752354119 9.712689540142586 11.9997769850491
Ga 11.939267550507193 12.287898106841793 10.854478235574904
Ga 17.225259270509834 10.642257090698651 11.557404518742382
Ga 11.221603176284816 12.529779615404523 13.439270564334732
Ga 8.590149642340293 11.68770850231719 12.202371246131268
Ga 18.773426951963074 12.906778424187786 11.819993315399522
Ga 9.798461726960712 14.683097342650337 12.389441485711014
Ga 13.68891646905515 12.891252256211022 14.455251706764168
Ga 11.042641149045021 17.19721710758639 11.913247478812819
Ga 12.922826201951382 7.904182810261528 12.589379970473088
Ga 9.79961878122265 10.360091754616914 14.430800311407946
Ga 11.466537896330019 8.1859452584761 14.846142310776376
Ga 16.553222507000108 12.26043554389403 13.596718723607298
Ga 17.825727789541094 14.691764016499716 13.76169907754031
Ga 16.01826739277865 16.442648408602818 15.187250230500178
Ga 18.254732117567062 17.405655262467953 13.357236535603697
Ga 12.853414482635458 10.474550599021647 13.660202261199244
Ga 8.781136793492541 13.132526591870565 14.466777822213423
Ga 15.083680807730445 14.736844750524552 13.133838150366733
Ga 15.235701830121588 10.61020185181166 15.346978388993575
Ga 11.553256598329586 13.424161088198622 16.00225766289532
Ga 10.889233810743894 16.09343023266958 14.476078701362042
Ga 16.24766317588366 13.7063754292233 15.895232703874633
Ga 13.499579964909145 15.633472772501033 15.89084957196483
Ga 9.501868769901826 11.311866541200429 16.810480109392486
Ga 9.013793836426585 14.017063241686923 16.911711049422212
Ga 14.231968968225504 12.546468065238612 17.191732467414738
Ga 12.66238697014258 10.118075585619126 16.36046062679283
Ga 10.876379158568259 16.00608472348335 17.021892659296764
Ga 11.777041458210599 11.748519350970412 18.18659594406444
Ga 8.724852863524138 12.203457109845807 19.217599212382996
Ga 13.259711231943953 14.689572838250353 18.401212687779015
Ga 8.697588523187536 15.493232843069471 19.14306588044377
Ga 11.552288097250853 16.486843529123426 19.59486829577065
Ga 10.877242105850424 13.836584973458052 19.31517130795197
