54
Energy = -141.96050351 eV
Ga 8.531090040283782 10.102599967399545 4.133205155302984
Ga 11.415883514070272 9.68364524081978 5.024804213178506
Ga 9.89036154819119 7.378623166760865 3.827630102838481
Ga 5.398733923208464 9.661636192215047 4.367008000463354
Ga 7.139629198366021 7.4130882093733295 4.873170618206386
Ga 8.924552093886279 5.429117320575831 6.13059027221223
Ga 6.947225436894284 12.16966382984227 5.536835228330092
Ga 12.509162289999104 11.534726875530813 6.773600213163282
Ga 11.694199462534174 6.822133842434463 5.985873163757886
Ga 10.280056724839321 6.118484557830279 8.397070547140936
Ga 7.042775748924485 9.62024804911214 6.590635644427679
Ga 9.443493128867075 8.348295598892967 6.392716452985525
Ga 9.685438229737075 11.530918532371901 6.4427721183560225
Ga 4.7385835689636595 7.794810594684719 6.607116800613867
Ga 5.950302515068297 5.029452254470275 6.581935016492005
Ga 7.319468358106854 7.16009011692945 7.711811346649933
Ga 4.4439404145114425 10.85020656056736 6.866501434987401
Ga 11.202315944886287 13.606726078415651 8.215842731813945
Ga 8.414505379724837 13.63752109986393 7.864200104563411
Ga 13.31809504496307 6.493864452119517 8.212649176013045
Ga 13.64510962414049 8.963624719903587 6.764549343901057
Ga 11.308250626797717 9.166173808265507 8.175786012291091
Ga 7.001897900361508 11.320523954727914 8.482009533200118
Ga 5.564197031629848 13.52283698769356 7.55540212681863
Ga 12.648791169681202 11.523697217211334 9.508359188203988
Ga 5.400906889882785 9.131015394745907 9.157700454952858
Ga 8.744070639751161 9.319104107901975 8.820241728082715
Ga 5.060966263887056 6.37268500867593 9.266373853690938
Ga 13.561331530394453 8.87943243436422 9.823424886765267
Ga 7.800783228483366 4.735971740620579 8.921932493007544
Ga 14.095134680006458 6.204716498447525 10.783421105345727
Ga 9.61726054075997 11.650257359637921 9.699661059200874
Ga 11.79099986194296 4.566120954684214 10.192970956377383
Ga 6.015699293332418 10.796192974344894 11.369508780441638
Ga 11.369624184740134 9.744098013389943 11.456835087246414
Ga 7.610191356823873 7.544128912347268 10.321478411592405
Ga 9.568974774860358 14.262813218781169 10.642966316563164
Ga 11.414829212069286 7.337808595229833 10.538018710423488
Ga 6.846491297365476 13.351126999112275 10.227867428548224
Ga 4.33276880275098 11.742367151413843 9.542346416104422
Ga 11.19525379847212 12.371977926190468 12.026586390039043
Ga 5.187283058878783 8.005834870692505 11.883751244217873
Ga 13.887806213373054 10.961039591658478 11.852793248907185
Ga 8.762922683466421 9.686938435852689 11.523781295779573
Ga 6.641054477927211 5.342505401829601 11.642810334860132
Ga 13.547771745913925 8.167633153442479 12.689982011321867
Ga 9.41976638677773 5.5531070299350125 11.274299382500994
Ga 12.063294124875725 5.611411393964839 12.772162124526943
Ga 8.058774847034716 12.318011676625996 12.526348529108228
Ga 7.031599609761403 9.944668060094832 13.762878449429946
Ga 12.440871687273578 10.258049315970464 14.177903392315638
Ga 8.025114503330041 7.426366554302491 13.076306604131936
Ga 10.697079274608722 7.82702964541963 13.36298538661759
Ga 9.762229661937083 10.413791901630093 14.049502921308138
