55
Energy = -145.25513271 eV
Ga 11.765817950397127 13.273399251128524 7.5881403237714276
Ga 12.26428038531195 10.592310177356197 7.815397149086184
Ga 11.297089113354025 16.00324426341949 6.9882800984823685
Ga 13.31571874431506 12.564241331472386 9.709345339059984
Ga 9.799647985589917 11.88880113675086 8.898233315326769
Ga 16.091111589067104 11.932504918858628 9.2646471620703
Ga 9.25594791341109 14.431348968690688 8.088851144310473
Ga 7.072318095390971 12.479392388892832 8.509867715512778
Ga 10.387378062643645 16.69945512488829 9.541807817355291
Ga 18.063939501093966 13.921402777382916 9.415970329434014
Ga 7.8314196546919215 9.809162503472507 8.889361781029669
Ga 14.609775764769333 9.742807537603339 8.732114202130825
Ga 11.319476275170457 7.544821206218245 11.372210204278245
Ga 10.94047268122245 13.98598384053226 10.395305016958075
Ga 13.026378866538694 15.303210654206351 8.998993732489021
Ga 14.70715820214374 12.618934696667447 12.021257925305996
Ga 7.714160279909716 14.222862095877371 10.465560453668882
Ga 15.319682963737126 14.554034469179264 9.966083638528536
Ga 8.062901229465247 11.405886340062638 11.123027809577247
Ga 9.320419515816164 15.86837359268734 11.860709728699641
Ga 15.985093086372492 10.085416270610876 11.354327835698802
Ga 10.86249109582872 11.597272402887706 11.640893098046456
Ga 17.656465286547782 12.199083391207672 11.56596749006274
Ga 14.406245695630952 7.944960792183076 10.840527198314154
Ga 10.483819571979508 9.393617389130268 9.522162687111626
Ga 12.29763092078994 16.370890326841643 11.506748011444206
Ga 12.857165123041879 10.171783080338459 10.843903123769138
Ga 11.00574137179774 9.402364277451253 13.249843432394943
Ga 17.25407457628533 14.918165331901653 11.82565608037108
Ga 15.904742214863223 8.302733719193279 13.582170588669296
Ga 8.347092046929554 10.56179561931545 13.697808064358659
Ga 8.678298556146737 8.590206771410621 11.655400653033917
Ga 14.551753535923725 15.339271001164887 12.601982146931597
Ga 13.82459908349449 10.28334398713766 13.317576716818403
Ga 16.705923217229408 11.256579441185531 13.81726514217197
Ga 11.17871663982578 11.89831350983844 14.439861903697324
Ga 12.447669146342554 16.521535282274115 14.19472755259989
Ga 12.100093936512232 13.875638133325243 12.882157737665953
Ga 13.131019593231677 7.338545924343311 13.381625984909606
Ga 14.651176985105733 15.407953245964885 15.44248053019345
Ga 8.951957401932495 13.263115625957262 12.81343772414931
Ga 16.650242945243523 14.031416884636725 14.223164756839653
Ga 14.020862367837863 12.710944122153409 14.707934786702156
Ga 9.922744929199837 9.708466276466481 15.904828089487483
Ga 15.247767294555457 10.200185692781336 15.81031585200086
Ga 8.372506996193085 12.690353176017782 15.388803195967999
Ga 9.52423656334337 14.723025139740816 17.09389892206297
Ga 9.986766115994424 15.21436133932569 14.398290332204352
Ga 12.653129878500362 9.046252573487854 15.48958225870935
Ga 16.40448034603714 12.570038295612482 16.496911211745267
Ga 10.376951588358853 12.023276047033272 17.10862843969083
Ga 14.364151034783932 13.93138978694337 17.736033780800412
Ga 13.014354853594188 11.371690105631947 17.017036490447506
Ga 12.089573407823119 14.274468313734056 15.95616891209639
Ga 11.756043296240218 13.770044924982038 18.67738985931383
