53
Energy = -139.33670216 eV
Ga 7.15214630982302 14.586716521168587 9.221771124942448
Ga 9.337214259052942 10.267138485685308 12.858970689570675
Ga 13.732483083439936 6.2374943675990515 7.21320340032611
Ga 11.274989584557623 14.154403319774636 11.85601031809447
Ga 8.898518335504717 11.181947216374915 15.660259463254478
Ga 4.710995808520696 10.591959469603916 11.92266751568779
Ga 9.164311791266664 8.151081640890473 11.171957454918891
Ga 11.160673566255124 6.412426520848547 11.779993177063147
Ga 13.88572681447716 6.698993919893506 11.460945164671594
Ga 5.793158833300047 13.32720475751154 7.123928092030961
Ga 9.836444052378825 6.1035212580651 9.37368585732796
Ga 13.768293527798903 10.283090249688597 13.989283049992087
Ga 11.121045997502366 9.51490365972193 15.124580455195844
Ga 7.097300721224488 7.082641730111869 9.665097213716077
Ga 15.03123160371201 7.944757468496155 9.203372022764434
Ga 9.140674822696841 13.09441231055111 13.699615329286136
Ga 8.286073355799427 13.10804218213605 11.208012549310412
Ga 7.548337497846065 10.33287702659539 10.662957957779508
Ga 13.653893133706742 11.92571012520294 6.98253882040135
Ga 11.676808990257706 14.01225112580404 6.7787084117598075
Ga 10.041447126846611 9.17449000936076 8.761942006272378
Ga 6.940280032041853 11.248127346862171 13.415136819204116
Ga 10.692039555133281 11.465047031899067 10.568541615262419
Ga 11.112476101289783 4.988769170528637 7.163132376568959
Ga 15.395456848457838 7.940145899973623 13.530232193846999
Ga 5.606772109267393 12.224322778942568 9.776770858727357
Ga 11.527994426618108 11.826351323034123 13.694265971979167
Ga 9.79019940117531 7.489932635937934 13.780430816003683
Ga 9.367116371818671 9.424248465006603 6.0387528563313255
Ga 4.904160958949784 10.666092150959184 7.48298053845645
Ga 9.892668558255888 12.066857018580956 4.932679248467763
Ga 7.3944645419370465 11.26798066244412 5.968681389994531
Ga 7.666535416340823 8.75326024230281 14.854870160886144
Ga 12.658301106260472 7.609226392600995 13.827323985603464
Ga 12.22663580632782 7.880364139563276 9.370123986807437
Ga 8.648738861846796 6.887641793197261 6.978957528630274
Ga 11.857256033907298 10.338117922871932 5.609356820442441
Ga 12.47570082343499 5.114244903540734 9.725886042558395
Ga 8.056108166295727 11.824969566294776 8.583959192487882
Ga 13.279891567191415 12.039106431099572 11.583711585320238
Ga 13.902994034235775 9.023972565161285 6.801403620096232
Ga 7.312515899553111 9.238939738912592 7.8904848458305565
Ga 11.776383502282272 9.372228551527556 11.901753125252007
Ga 11.374726108739829 7.729784444637819 6.6458035872197945
Ga 10.19098732292593 13.933905985348717 9.331992538493928
Ga 14.594721765832842 9.548334946758503 11.42780701064027
Ga 10.765393499677991 11.556224984589845 7.804589239596907
Ga 5.6477538491149755 13.448861967709377 12.327985563639173
Ga 13.057976867326733 13.49126860048306 9.334558607656799
Ga 6.590794061233378 8.36265562667164 12.3004181536272
Ga 13.275837916793131 10.396490772971264 9.21118630836687
Ga 5.122426833247938 9.097735336933894 9.753592556013368
Ga 8.825979578850133 13.801784379903458 6.906187923953494
