51
Energy = -134.87529577 eV
Ga 7.0785889912266855 12.81689946001068 11.99875460113427
Ga 10.658008068640097 12.70794894240773 14.618138668833682
Ga 9.010997859293532 14.463905986955194 13.34061043636481
Ga 8.098440783578157 11.740684817779206 14.345490319826979
Ga 5.670576237285766 10.541490266709298 11.333066415986806
Ga 13.609424087862806 12.305638665732003 14.537146872020214
Ga 12.14119794025941 14.16128011526761 12.923609017991872
Ga 11.527071828616947 10.529189793939691 15.858303107736967
Ga 10.379673790304071 15.420983642257113 11.074866069029449
Ga 8.48914866695126 13.826618068094943 9.915089348015611
Ga 9.932474315720668 12.280352307331151 11.86193870222044
Ga 9.07285466051438 9.226052320809384 15.575860130951016
Ga 6.615765796711336 9.233721390965577 14.077106610033455
Ga 6.844460842072784 11.760327438158445 9.118507224161862
Ga 13.396246894945614 15.455138412521983 10.869427842613964
Ga 12.47478215033885 11.350716325200093 12.099781891833896
Ga 14.540250947783273 13.13192742616918 11.589956401436764
Ga 11.78121240967347 13.211273387277961 10.09858331790873
Ga 13.401747238203717 9.466277555154177 14.137033620711279
Ga 8.857754459055728 7.638879961562258 13.20343522099629
Ga 10.578059393032076 9.899625311373063 13.251431661976605
Ga 11.894291988203516 17.040129067789515 9.191820842574737
Ga 8.350183741920116 10.094573853517858 11.761459546420703
Ga 11.244796649153958 7.58181154950098 14.807837101394707
Ga 10.436625514057027 14.827561949367523 8.260842545999237
Ga 13.280847497495687 15.008131429795132 7.983574786183751
Ga 6.496814046687191 7.726637534204254 11.707591700321839
Ga 7.292049385738735 9.029403536150777 9.389744435876398
Ga 13.658795704716491 6.837890000501803 13.461467458167741
Ga 15.208035283794947 10.739756850311752 12.549872373618394
Ga 10.156641299034534 8.692772732832335 10.326575626718405
Ga 6.385233695749681 11.553184973617523 6.347392183249479
Ga 10.983562578631544 6.40411557914089 12.132053867799968
Ga 12.590104431439872 8.681450989222482 11.51112992387084
Ga 9.64746364565694 11.095313736719838 9.205186758434962
Ga 8.818342271030248 12.844808213430385 7.284938057844894
Ga 12.219307900099404 10.468553748648192 9.43208277200194
Ga 15.061362342284962 10.301877714573545 9.666750147360034
Ga 11.733487608282609 12.55016412009132 7.450827111144577
Ga 8.6205292826251 6.382726432574745 10.499700225832179
Ga 14.277559993741283 12.670140315304971 8.790147637801267
Ga 8.991549367709318 7.279008279075665 7.978288795131478
Ga 8.348436189209968 9.69990501937036 7.032016668582969
Ga 15.421567954821423 8.14996532562202 11.540468316473573
Ga 13.546298844535302 6.009919595919577 10.696505027388262
Ga 8.61652325359558 11.474283624988372 4.864591571511283
Ga 11.229305118516907 6.267694444392092 9.178417060472372
Ga 11.294846467031476 8.521614635142656 7.520219112240246
Ga 10.859252536731818 10.580249708636634 5.999000184537562
Ga 13.797391250417078 8.035159915101676 8.820245646702796
Ga 13.612721241014489 10.227987843111679 7.004319438207766
