50
Energy = -132.05822383 eV
Ga 11.382448094903621 11.659948733401121 6.744234491059876
Ga 12.233417099062002 9.689827444764177 4.768073092637607
Ga 12.766850902990734 13.356753076059997 8.952682017469286
Ga 13.907290531780012 11.074716462724691 7.184057270107716
Ga 15.16485569233103 11.988195387779552 9.552191870620126
Ga 9.451046543688864 10.109741711173072 5.4562294830767675
Ga 10.459100664097821 7.5567600048546675 5.795157175792939
Ga 9.780109826005203 9.134521500318431 8.17829194888359
Ga 12.583989452904854 8.58409951679018 7.254046466003651
Ga 10.789609719453995 14.337639226559768 7.377738148167121
Ga 13.851060305693249 6.506122055646761 8.928701141775159
Ga 13.442435124510851 13.334999806595437 11.674562644011495
Ga 14.479719015996189 9.159587012471919 9.233958286689168
Ga 13.83810679790662 10.448070158891857 11.572387733010716
Ga 7.7198598294841085 8.216802335965031 6.4906652528538755
Ga 6.670580972634216 10.893545991219886 5.503941894549506
Ga 8.836048489632562 12.36570870121585 6.81934381944164
Ga 11.996055216280524 8.218712553984108 10.319817389365584
Ga 11.986573381894107 10.70043994250934 9.231709198201184
Ga 8.53894503421156 5.552532867490681 7.086550966554696
Ga 11.137262907035565 6.499573877950753 8.190267969425959
Ga 8.537324374791158 14.157933710164565 8.911049979916644
Ga 8.962395303574999 11.374983424354802 9.447258337397228
Ga 11.789299451465203 5.362104290536801 10.76904609658939
Ga 10.783527471476331 14.7678038975434 10.356773606719749
Ga 10.985765878796776 12.109912724178216 11.141286732128384
Ga 7.224709773035867 7.3471451476326255 9.0992282577925
Ga 14.356817513303966 7.458388697298863 11.672496772671874
Ga 6.481486613477117 12.502944926573392 8.108327067040957
Ga 9.113571007109206 5.654499521247057 9.869123211637131
Ga 10.976405248225308 9.822917781114004 12.363369670763534
Ga 8.547623592594109 13.347355170212197 11.629189707826072
Ga 6.747043938003991 9.879641558565035 8.256588102166761
Ga 11.04599063225951 14.189542479365931 13.042031343437419
Ga 9.37891036867531 8.273242292972803 10.7464881495442
Ga 6.119972880360674 14.214967278701458 10.429615240207776
Ga 12.705849635793841 11.7385481977284 13.870195253897093
Ga 6.167726282519421 11.31194863945096 10.558776320267766
Ga 13.182279253490275 8.909075710927308 13.792251753439132
Ga 8.247113922842571 10.387851373523084 11.966481902521815
Ga 11.373779318717833 7.079673566785304 12.954656731158732
Ga 5.188142483751024 8.733416809502103 10.242299630895753
Ga 7.000944045685076 7.616765958280908 11.933890555861947
Ga 8.982462528997196 5.737199413261193 12.566433977050322
Ga 9.637365248353657 11.963948760348845 13.902979324558014
Ga 6.466831188511896 12.493736216873897 13.195428126361442
Ga 10.899847227292598 9.745263310221054 15.287886844408657
Ga 5.389665608667758 9.7788679073098 12.931247120489775
Ga 8.97551803837676 8.242548562645235 13.81472850637547
Ga 7.643235166248496 10.336443903208336 14.753233016072487
