55
Energy = -144.98137209 eV
Ga 13.937617137048804 14.102417741239348 13.61763396100517
Ga 9.4008628441018 10.100366283377252 12.820612388377834
Ga 13.527192248109694 9.82148885177041 16.45245222471381
Ga 9.324205111030274 14.502535138165063 14.871096556505774
Ga 14.533711330007044 13.358543242077365 11.165953343028567
Ga 13.754683786420863 12.634909183130318 16.052300616228738
Ga 13.95117140106505 17.199368056521458 13.78585215858386
Ga 14.338169957698526 16.468574563213696 11.136744458788439
Ga 16.361080640800044 17.01177122191156 15.297018244200421
Ga 13.87127570541221 10.911211614632164 13.678965058654835
Ga 14.552413529474038 9.156222502251188 11.571865299653593
Ga 11.45954748699935 14.187837777157032 16.73054655088155
Ga 9.192031865460814 11.522911063525992 15.074758884373123
Ga 16.551571684526504 15.23637917315015 10.236453655837446
Ga 8.879321923535063 13.117589220772699 17.318065108909632
Ga 13.764873205653954 8.122513057771092 14.368428911138341
Ga 16.477216963407503 11.192119507821515 10.83926041817562
Ga 16.056550718209916 11.219919438593678 15.61671893827187
Ga 11.636114994679682 12.601243561954004 14.234434674330222
Ga 7.71809738004346 13.83022084087099 10.800056624449121
Ga 16.105944830343308 8.363494649493248 15.763623770308655
Ga 11.700981599172232 15.65905427697996 14.382379791005915
Ga 9.428259444210246 11.40299261837576 10.369188626092866
Ga 13.934780723457914 15.644405492900503 16.028801492227846
Ga 11.303232119094755 9.660186210085214 14.827701861878664
Ga 11.971369269173094 13.035396630502358 9.642476695030632
Ga 16.28573300732346 14.091449562738402 15.393231349991181
Ga 16.37778957168617 12.597388527741325 13.115230992839749
Ga 16.276717695994623 12.954792081245282 8.818563112123003
Ga 9.313980533815826 13.083581368256496 8.289750053296459
Ga 16.43580901508913 15.491032505218572 12.948710122901753
Ga 12.064433008045539 16.907945289530574 9.468210747550751
Ga 10.020520126484332 15.074549984090599 9.926697688410837
Ga 16.53291894449703 9.777080690167042 13.339849479463698
Ga 9.64151158633547 17.881564381901335 10.418598976370765
Ga 11.378566370668532 10.521056706621245 8.480912472452223
Ga 12.065901948647673 14.660275360620423 11.793686184498483
Ga 12.731456151565963 8.46202391840878 9.790054619835539
Ga 11.724675942459527 14.93635987405795 7.578296960490676
Ga 11.72905489186291 17.415762789600244 12.231033413741391
Ga 10.019526452052762 8.72357128750968 10.510231398232106
Ga 11.203878118501494 12.393094579122621 6.473443644699167
Ga 11.966738761029905 11.09605674067772 11.676977216890867
Ga 14.187603448388211 15.017197562332033 8.82008284838173
Ga 13.812945037047115 12.70585665706409 7.390963815258031
Ga 11.871103701524696 8.359760268104933 12.509940446479082
Ga 13.976448360741577 11.095285115710977 9.634573628525606
Ga 15.985611369948357 12.844716601004727 17.860110557432073
Ga 9.745809885139499 13.078370051830676 12.438203743563887
Ga 11.210202236459638 11.420950941689302 17.020879894990223
Ga 16.18420469659327 15.715880660517971 17.762134542100377
Ga 9.233181845911307 15.925167562572037 12.498720864800566
Ga 13.615243688559136 14.317043820435664 18.44082779936642
Ga 15.668560970957854 10.068846533240272 18.19828227648568
Ga 13.24378414299691 11.555856069209273 18.7246002456399
