50
Energy = -131.64085511 eV
Ga 11.894853801468734 12.6882824326475 4.8441398405459255
Ga 9.26190980489932 12.199132940074014 5.33458587348443
Ga 11.359479744034825 10.135497528961837 5.838338846302009
Ga 13.637073504228704 9.047919874333722 7.006850135121829
Ga 8.781350907643855 9.995903182802952 6.88473307282574
Ga 11.905173145233183 14.773614051306149 6.67051211692969
Ga 13.70488170280239 11.94654816408486 6.737003179135536
Ga 10.941826691229338 8.42140019213211 7.890715926597901
Ga 7.14825419248682 12.4513200877161 7.409724152403492
Ga 9.263622244710577 14.290858114617901 7.086689706552519
Ga 10.964314012829494 12.111954644725655 7.77703754494026
Ga 15.075488140639099 8.493530207376551 9.733302041268418
Ga 13.118869627861654 6.811383163862751 8.445921966785985
Ga 6.366771344730414 9.801553779913194 8.244797883706305
Ga 8.513130012749354 7.992311995668255 8.883941999931176
Ga 13.099570007272971 13.643157519414485 8.865744932257886
Ga 12.716978421927086 10.061345454230326 9.48129350801637
Ga 8.901960571307782 11.16443136127632 9.367459551804794
Ga 10.746459356603594 15.408888271739327 9.160701769669112
Ga 15.082324184726255 11.433127048889645 8.969663901957295
Ga 10.639527126297477 6.081021514542826 9.721001119772376
Ga 8.135641830381074 14.175119296136558 9.547155612363875
Ga 13.036020462620503 7.091110480970767 11.010197866421324
Ga 10.811973317965608 12.847017968552395 10.3542131412792
Ga 6.2280505351921995 12.070559940363037 10.030228760853353
Ga 7.362818466584975 9.499734002750277 10.866504729572448
Ga 15.515367900826735 10.708946365455747 11.453867587494551
Ga 13.678552875156294 12.672472649396228 11.318807478942162
Ga 8.595468928003056 6.9322384188711 11.468740984500187
Ga 7.4088523238163715 13.7150275753948 12.04453719161799
Ga 12.647993765409243 15.264531284177634 11.242158175246875
Ga 10.559134068814211 8.803152784017549 10.683587039949197
Ga 12.115217386296761 10.393415944119514 12.077823927558855
Ga 9.230189365982053 11.366266960056972 12.088418321948861
Ga 6.389086855697436 11.264739116593477 12.83553974133823
Ga 11.214586876023722 6.586529272087853 12.714586106208492
Ga 6.951784933613595 8.464408865266712 13.261039039576483
Ga 14.457685720646026 8.563766284935578 12.583353668980866
Ga 8.752794610759418 5.900788362700217 14.01739440882564
Ga 9.820708550388892 15.032949415315025 11.768420382403269
Ga 13.954244026015415 11.24726566318911 13.908859710022213
Ga 9.798034893839883 8.880153198829692 13.488295185222151
Ga 11.619630606481788 13.199781762949419 12.998812854726227
Ga 9.016808737815778 13.311823822969377 14.167411996818984
Ga 10.91762220083868 6.893359176184703 15.513471837343943
Ga 12.665116370369775 8.654524526852537 14.482942409124949
Ga 8.224640079220674 10.833831233756145 14.901235565332048
Ga 11.182278783809402 11.210851196865283 14.704300882621611
Ga 8.203633455118265 8.127447594182172 15.679994426434892
Ga 10.469684357040787 9.422446137156987 16.521382727674553
