51
Energy = -134.03737082 eV
Ga 14.182787615351783 8.26592558786498 8.681066377645013
Ga 16.49507388401639 7.679046046678658 10.057221798987309
Ga 13.132883244181032 12.480351737910865 7.234254226070228
Ga 12.681920336593848 9.82198912695557 7.093683190369095
Ga 16.327217319024022 10.268125340336123 9.45676454189365
Ga 10.416218984170854 8.501397185454952 5.773283432459166
Ga 15.359317525570722 12.691795432959232 8.764087103911805
Ga 10.477692579401186 11.32373623589261 5.934814776582482
Ga 11.660109310960618 7.2369831587510385 7.9979381535102725
Ga 14.167644475012846 6.823416804373866 11.15766956230925
Ga 13.44087393850517 10.909909852436797 9.618045551196579
Ga 10.871949042293009 14.003189999216083 6.736755751984346
Ga 14.871887050596092 9.437555358317036 11.633300724903217
Ga 8.384260485018702 7.382352473400269 7.376788115381683
Ga 10.958583470516556 11.9351648274796 8.910366320310839
Ga 15.471868539341996 12.088205729886017 11.55829553173106
Ga 7.919940003001394 10.11859378442851 6.803021204699463
Ga 10.12428308911978 9.508103579145915 8.440309930856433
Ga 11.81833975416539 5.839118808101047 10.387057033601353
Ga 13.939326050206684 14.282579375091583 10.464190688277471
Ga 8.559234667723482 12.662666577985974 7.403074590997521
Ga 9.44108123031836 7.236968031360806 9.984962757825636
Ga 11.999490064699947 8.791122191260733 10.49783066419914
Ga 11.512668440636757 14.560202230940934 9.354184237136087
Ga 12.265192028735923 12.254434129079918 11.510840670267168
Ga 7.227055428743136 9.005613854406187 9.21380109381813
Ga 10.869414473227792 7.346215749464813 12.687377011421255
Ga 8.956772014733776 10.876631196997359 10.484273805675059
Ga 13.211177678819027 8.27941137148486 13.421280625654557
Ga 10.95631366553328 10.155078606030946 12.648432909041903
Ga 14.305110928531807 13.91140939574535 13.337368037965986
Ga 11.789383900443282 14.927285686558333 12.257910385523553
Ga 13.830794897337917 11.040690427228455 13.590878056138072
Ga 8.268991348313834 7.924900056531606 12.26743666904673
Ga 6.453584480385893 11.762820559065139 8.995861839586075
Ga 8.779966324065281 13.690238111858125 9.87106286847962
Ga 9.826398771513523 16.259816406901987 10.784199413973406
Ga 9.775895590468684 12.781970805268974 12.400188913854711
Ga 9.440586273729382 8.563333842629865 14.956967538751359
Ga 6.377277474370692 9.801848875942058 11.517709825347929
Ga 8.357536894565603 10.625148060139107 13.299122892466446
Ga 11.924842832165591 10.028668413545443 15.2211718768394
Ga 11.934566628376151 13.016902866601816 14.331667586488571
Ga 6.670774226519773 12.63171479527634 11.572305098565376
Ga 9.844796918250731 11.776094860136872 15.372773335570026
Ga 9.783110669596638 14.78065888326961 14.411905913711164
Ga 7.93879076224578 14.911895620512734 12.197790032950087
Ga 6.5729299980472 8.65988492495571 14.199233809879315
Ga 7.463860028008717 13.103151562869488 14.282747901567808
Ga 7.343159255379634 10.821963048083948 16.096490161332397
Ga 5.408631685748724 11.286093939755768 13.6706642261165
