54
Energy = -142.17283379 eV
Ga 10.566974786059973 15.723841450272284 10.32341832434395
Ga 14.04699041283868 9.782334618063501 7.214202326379158
Ga 7.360299912810292 14.727100191078462 9.305388048158255
Ga 9.933070240883284 13.749040105277219 8.625111903066621
Ga 12.582313070485622 11.767229477919205 12.452742421192765
Ga 7.72268845445675 13.333773020836507 6.996906548767949
Ga 13.68832546427342 11.17876071612243 9.712693299828455
Ga 8.316635346059929 15.229207096601765 11.845370129723348
Ga 10.608680175574786 13.572426620370475 12.115924997637569
Ga 12.693843211140571 13.750126773872463 10.254003458716904
Ga 14.262862399683959 9.567714473372533 12.004120692668598
Ga 12.14356828630758 12.352652240318623 7.61134974132322
Ga 11.629751579170781 10.125898722210033 5.763907966548643
Ga 5.865275324411156 12.366309758555179 9.322429023366508
Ga 11.581419900992465 9.594538187358935 8.513727382993574
Ga 9.177944457710483 10.9361009908824 7.8841660997641165
Ga 10.013228625287312 12.522999895182942 5.708729485415521
Ga 11.434882134310604 9.324274119553646 11.315848424368292
Ga 12.102121248531644 9.470296237555958 14.077005757581677
Ga 5.873586754949846 13.669962426894168 11.983888670766948
Ga 14.066269695956052 8.18332911508663 9.52155440953278
Ga 6.282867274501058 11.162580999582222 6.800037547986488
Ga 8.373815951864444 13.039096889951898 13.671602391059608
Ga 8.35409637171459 12.48927355587036 10.653142711219216
Ga 10.989726593230909 12.34755957319964 14.764523221378827
Ga 9.599845604467145 10.706964295941775 12.929095221816812
Ga 10.772929097421288 11.560375708952474 10.159432950960548
Ga 8.346476563535477 3.8008434885067466 11.342092298301845
Ga 9.960689717228892 5.5550091424066235 7.282219649464976
Ga 6.775146249589443 5.901858540038661 7.833829187027921
Ga 7.507671940342451 4.186153906016517 5.741962980020485
Ga 10.354378026757875 5.51549012354784 12.013441897001567
Ga 5.896710980805069 6.5272493360253705 5.26666148808194
Ga 10.72799529388522 4.192259165552857 9.578250825351144
Ga 6.043824826723969 7.633641366471232 10.20399184446414
Ga 7.446564235555655 6.3758981189976875 12.357052839059756
Ga 8.449670899499107 6.142457089135477 9.779344422999342
Ga 12.795745757761413 7.059652495038561 12.264210514434525
Ga 8.282079287414197 3.5771488173499706 8.473467421958492
Ga 11.065332580801293 7.522748679062561 5.069818607530074
Ga 6.677364918101011 8.481325576038147 7.3906260322270105
Ga 12.40711438807638 7.179703952232047 7.408042599557188
Ga 8.482510411925361 7.018281829372721 5.376622421271517
Ga 8.90659762153185 9.838144332668628 5.215500181517596
Ga 10.872730632598175 7.236597124078266 9.793125734321364
Ga 10.038154591292669 7.719381695669771 13.593915259302317
Ga 4.7838948476090355 9.800215934469751 8.974583864669572
Ga 13.03549986597698 5.610636275742474 9.711483971795683
Ga 6.252708669356323 9.340658057074535 4.793593257196488
Ga 6.688267147131223 10.964407818712079 12.234557148538146
Ga 7.416393924017585 10.068428969612524 9.630087906075424
Ga 7.569652197945828 8.800180582856242 13.48773087165946
Ga 8.82034310843211 8.548690046423136 11.084018676978856
Ga 9.431347048850904 8.248048383855386 7.6483230504660185
