55
Energy = -145.35937619 eV
Ga 8.239898393473812 10.797480622580274 14.401425721005975
Ga 14.971726942088397 13.253764332385234 10.926844928400302
Ga 13.573723679128577 8.717521117423843 15.794329654507196
Ga 10.289987854530821 10.723484075961984 9.188606898281037
Ga 14.925745158013212 12.945531378945663 13.571651406871773
Ga 12.382654044984196 11.71333900668291 7.021485576360351
Ga 10.760459867887105 11.040561230623043 12.998374901959973
Ga 8.58282939345602 10.905527189866735 11.237416781570433
Ga 12.694863292544065 12.835995379982672 9.616800938880338
Ga 12.340931201400384 10.840221475086592 17.211080977838716
Ga 10.373064956667935 12.144093946904503 15.664651439217979
Ga 12.735589273917038 14.365489577167521 12.117708880399682
Ga 11.256828756610435 15.415995733050323 9.802753553124823
Ga 9.1502559965269 15.545969691588319 11.48275819151867
Ga 12.743405417064071 13.390936894833034 15.437904755736943
Ga 10.878284664253263 16.967455328780837 12.971978131005834
Ga 12.248222270015598 9.15773973105324 8.188491607933518
Ga 16.782195661563968 14.486493601071498 9.066498749449421
Ga 14.472367976934441 10.666347579492767 9.023471676877998
Ga 12.72600770168552 10.641516028253248 11.17760202263168
Ga 17.434460351294202 12.341812008234648 11.886554383719831
Ga 15.476582835315988 10.436289180305446 11.612334393678308
Ga 13.221096467117981 10.865654409743508 13.922651604602867
Ga 8.139486381381563 13.429288921638246 9.844255930447765
Ga 14.833649452757006 11.457054867493419 16.14343601257423
Ga 12.4080489976238 14.697961542266857 7.223104988384341
Ga 7.998622674057987 13.552306955400613 15.28328767246001
Ga 14.095319012906211 15.542322559012488 9.488566037872754
Ga 13.139190228709513 17.0550577622902 11.54391759202838
Ga 9.737663969756563 14.601869096539815 17.024853484826608
Ga 15.127478204471094 15.89667846039075 12.946132516935862
Ga 12.863962078987969 16.03844722023735 14.53341865439778
Ga 11.598937424059384 13.147661224319947 18.19061549360195
Ga 11.012483854973427 8.495419153752973 10.804378443862845
Ga 16.947715297141617 11.677163535215653 9.308998688651169
Ga 16.79753020022771 13.213014201896566 16.775812988917995
Ga 10.778074940106686 9.461543522238447 15.3148671282921
Ga 17.478096417678067 11.640595025722154 14.522266381144311
Ga 14.310471088225672 13.688530762034373 17.99017799609378
Ga 10.292575392599353 13.188824345664642 8.186171698617384
Ga 17.31142906549494 15.140182007109546 11.557101190620683
Ga 8.355026029993741 16.224286682007747 14.029444450583007
Ga 10.610922504768066 12.99329952336155 11.28318595655538
Ga 9.101603427437997 8.58397638595604 12.916532760909753
Ga 10.52976312804174 16.8567335689937 15.712829515351558
Ga 10.582505612806749 14.271815714566374 13.962493509463973
Ga 8.107639278044827 13.330813423865093 12.65768962194045
Ga 12.488391012659433 15.709171127400587 17.351307518290906
Ga 14.747427870127492 7.850595966952907 12.529054327611211
Ga 13.79976405641009 8.113421226451973 10.07487548270151
Ga 15.072780697140185 15.128778803191846 15.685482879223509
Ga 15.793688782647852 9.587923407249976 14.221749503069143
Ga 12.157287221501445 8.220497334244413 13.268240680153447
Ga 17.327891164618247 14.462246388380766 14.162080539918492
Ga 14.768062376170526 13.117969764135083 7.714963178924014
