52
Energy = -137.31204278 eV
Ga 7.439877613508116 10.58014725661349 15.07658909947433
Ga 5.651588980543589 10.112290344364057 11.223669907543249
Ga 6.800215369053509 11.702316346419208 9.329523037665448
Ga 5.844274276613169 8.832673714411223 13.599012199092874
Ga 6.2444064218519895 8.955122268912957 8.549450258522363
Ga 6.701291789699342 12.533490759689661 12.166409775435934
Ga 8.734401862301365 12.762521744043534 14.211491777325076
Ga 8.44350841531688 14.886385838906683 12.538346355899742
Ga 7.556084201911331 10.726172967149036 6.810798357061937
Ga 7.434261366339917 14.254325852810794 9.969441619807721
Ga 8.429904001922978 16.753378697979265 10.38563303498016
Ga 9.877011712871196 9.668511306802214 14.543599961417044
Ga 7.304423558217391 8.016321351971015 10.974045236090154
Ga 8.2664241346324 10.265602210647556 12.384799225859034
Ga 8.894315423667484 9.710135063305843 9.257290173191796
Ga 8.317351036639163 7.510472262165159 13.46533251207139
Ga 9.071379351748993 8.412336751434404 6.6684926735319
Ga 9.246433511954196 12.148698139656172 10.877307537893135
Ga 10.772024610756517 13.595663870130911 12.5147349700574
Ga 10.789390918482072 16.444279510829674 11.750668356356362
Ga 8.946303845142072 12.896516363799257 8.098198670622224
Ga 10.264807817566314 8.75582298663876 11.424010463395627
Ga 11.274507992243617 12.21078833887945 14.925092283913639
Ga 10.346788802003788 14.738839517154812 9.609106593503704
Ga 7.580773592269384 6.385145799579005 8.78686500872675
Ga 9.286092429842265 6.012528608276221 11.27004063935963
Ga 11.047860442562106 6.954493714313058 13.855097199841676
Ga 11.465676384109043 10.912856651169609 12.440289901807926
Ga 12.10304107919004 9.676187085601002 5.116561562035161
Ga 11.411690869032023 11.94575819289994 9.37376853705705
Ga 12.50204261991514 9.718196612594044 14.99563716809717
Ga 10.195622662978376 11.444019755247359 6.165543848418001
Ga 10.281523056309775 7.091061694610002 8.910786247994974
Ga 11.411030876324919 14.07936193190125 7.164726210460811
Ga 11.239278750316938 9.584461436201705 8.05212839256692
Ga 11.898163729598949 6.561866723568225 11.14427289469134
Ga 13.388398737170698 13.483944177692717 13.42939289405439
Ga 12.883385661981691 9.430845333224317 10.122229018244521
Ga 11.659872603893323 7.207575599235223 6.389776504196905
Ga 13.84682064261488 12.079532940585128 15.932567185047056
Ga 12.817696303888566 14.74191050389287 11.111546874520757
Ga 12.87193651594275 11.776589095368681 6.867243107727136
Ga 13.175807349898983 8.489376209331263 12.736318387903724
Ga 14.55395313435005 11.01435016504439 13.495483139049087
Ga 13.583222852651996 12.028971721428436 11.104476374970696
Ga 13.871027883577348 9.28245289931653 7.29369179694569
Ga 14.645071344416733 7.067984913327892 11.063392291347135
Ga 13.68438915180301 13.66866077188224 8.806608720537476
Ga 13.120216773618543 6.918379189640719 8.698361252054951
Ga 14.911895334292964 11.239314495313268 8.914419705678878
Ga 15.471442802441095 9.91142148381982 11.241719286389094
Ga 15.982463228496657 8.435997808575495 8.861104624657724
