54
Energy = -142.55458137 eV
Ga 11.761541587066612 9.504270163207746 13.003433944300536
Ga 14.1613195458069 7.970233738874969 11.794276140642262
Ga 5.9708345917914905 9.993077985064792 8.621451265149956
Ga 11.417236608837309 12.225502317672754 14.253567356358802
Ga 15.580495372158902 12.315824475460651 12.251065561221264
Ga 12.486178672648236 6.46383843296333 10.084347310742134
Ga 10.115546429417918 7.985175099729829 11.596846745341168
Ga 12.267758470129019 6.434416898268131 12.943938300829522
Ga 6.936206038991738 12.45168358324268 10.940212485856385
Ga 12.87053439647706 13.502306459547471 7.579371091594966
Ga 13.848688997055763 10.931168788053125 8.159193638069464
Ga 10.192476030778101 13.279319875694158 7.141095321483863
Ga 11.907589645169896 7.330701271428142 7.663411357086711
Ga 10.74636012494794 8.835951324879531 5.452259753804473
Ga 12.793331146353967 11.766571549748186 11.84931648238911
Ga 7.559815870104705 13.875812422522923 8.560330287299823
Ga 9.286548509689514 6.813915213092609 6.756284019295472
Ga 10.242799516349258 15.184597053414619 8.97049175104995
Ga 12.141963378126261 9.417111543785197 10.116049015822389
Ga 8.724830086306405 13.188131675919028 13.437467179354314
Ga 9.754287161238297 8.642097337953464 9.06433691519118
Ga 10.25560194288237 5.063626248483913 11.88731606798915
Ga 5.3231988147551 8.05270339932469 10.36177488276394
Ga 14.433178252985845 12.948684237054287 9.858040008864029
Ga 10.109970472011819 7.3591798089820895 14.444239354275034
Ga 8.750689225145933 11.319526693000022 9.027818809968139
Ga 13.626898741420991 8.820806488691874 6.154895327594287
Ga 12.354540339298765 11.432092113756976 5.466604889906527
Ga 9.470861079267893 10.284002183194824 14.25838668413898
Ga 8.060858138184257 5.424892302143154 13.493530234636467
Ga 9.796960640431319 11.318198643477556 11.632594344003243
Ga 11.121022143265007 10.518573146960735 7.765164371765511
Ga 12.745007897108373 15.114478632945382 9.848979400916464
Ga 11.238287406211802 12.528379658463583 9.754318480336831
Ga 13.849073792893178 14.548727192365396 12.293505465786584
Ga 14.468690108215311 8.15031305485009 8.870114176229828
Ga 7.778705859262033 6.500059147836661 10.875396198010476
Ga 7.206932289591918 7.456556508540228 8.49610417021331
Ga 7.59882740800884 9.623347822277395 10.905406896990755
Ga 7.863797819153917 8.393134979741719 13.243166196292108
Ga 5.0836896017456175 9.215433973062398 12.888487688270082
Ga 9.9317608848573 5.793177200330008 9.18376566112962
Ga 14.293134264113364 10.140989815839461 13.580427309544683
Ga 6.9627606561333115 11.091291887344772 13.385766061652822
Ga 9.485101610344158 11.394267435696946 5.323804692762833
Ga 11.108653198803333 14.092973334291543 12.213437518825254
Ga 6.792164569119594 11.696612287297254 6.776050713170651
Ga 8.699907027211736 14.370744928090993 10.99138383329786
Ga 14.13089555932555 12.814331910864391 14.598062376375312
Ga 14.899768035374018 10.254823829389982 10.604882769492876
Ga 4.675719161533166 11.068126147660706 10.953198815731287
Ga 5.737571289376192 6.64092025819115 12.926404766422944
Ga 7.919215612066615 13.850561229047084 5.65564794927329
Ga 8.2260740844199 9.372616394242641 6.80843806444958
