51
Energy = -134.53841499 eV
Ga 14.139066591997475 7.801080275933726 12.011089123890605
Ga 13.644330082897197 6.8312810094068155 14.544506543598931
Ga 13.540804431204517 5.159446835561618 12.352276013451489
Ga 14.863252744994266 8.70781305678663 9.572438101784618
Ga 12.397131995750392 9.308141787568012 14.005129672787124
Ga 14.126130777511467 10.432382168616117 12.06753249531239
Ga 12.671249148110844 6.233122593707508 9.917159643856754
Ga 15.735541523745216 11.446915212331367 10.044667674209439
Ga 11.778211069777159 8.658441933944825 10.600489156248024
Ga 11.282267312178815 6.554396906137552 12.945232145601782
Ga 10.230175421119576 11.261424598425991 14.594508173063407
Ga 12.854311917951833 12.210392863914448 13.883600749227611
Ga 10.065056458812744 8.918736793492524 12.672114964730612
Ga 12.879351433382302 8.350503433930763 7.72489681948536
Ga 14.862827212610245 10.619896614054415 7.400510400025696
Ga 12.921167351611828 10.707622664057755 9.465785955282465
Ga 9.850578810756168 6.07396229306271 10.727544182741175
Ga 11.346431029809203 11.125124530725683 11.771421596320579
Ga 13.571476966991789 13.034858080167238 11.233998377939168
Ga 10.58362318579495 6.932111685759808 8.139794202835194
Ga 13.651045673731566 13.082821231919892 8.403011076095618
Ga 7.454513530776598 7.150213234369831 11.67892154581172
Ga 8.185633213354835 9.475988358552135 14.643665264394489
Ga 9.077868938232074 8.76961318121649 9.935146157436574
Ga 8.848444149864795 6.876061720014172 13.987429448885097
Ga 12.251068421982602 11.032964371568195 6.53899650434012
Ga 10.896146793198854 12.134566030551467 8.690793175943206
Ga 7.644336023203055 6.606185354883917 8.916350301923307
Ga 8.169476425967673 10.537368482044624 11.995985976687306
Ga 11.22267858686324 14.147406948203797 12.676991710859737
Ga 11.183820839667755 8.563034934824815 5.549826876225618
Ga 11.91087297584895 14.147391338338823 6.5456033754506215
Ga 5.770884010339311 8.794772411612131 13.227701285070072
Ga 6.105384757709379 8.792118539719919 10.008268940192684
Ga 9.87518654993481 9.819660293084253 7.6534599848764975
Ga 9.56746882114644 12.764927014468439 10.771405500323555
Ga 6.417505801230244 11.652238835619539 14.033551126773375
Ga 8.6992308205245 13.273979621408976 13.365884671014776
Ga 9.796891753406689 12.404054769054188 6.09272972986164
Ga 11.65268430490787 14.64056008618891 9.905027457745824
Ga 8.525336127293508 7.42718891951197 6.390188060970439
Ga 8.109492521484867 11.184164396412495 9.297603061377249
Ga 5.538370759844239 10.88839471044854 11.49171607920051
Ga 8.568257565943847 9.989413996244142 5.088440884457213
Ga 8.935009464218606 15.37703367152928 11.001234242163378
Ga 9.667922165549635 14.583298625213631 8.109127857130227
Ga 6.828977192231636 9.363316958311405 7.501909496203546
Ga 6.812716756949968 13.282379916444823 11.280412683854836
Ga 7.144533107317685 11.954009452336347 6.680251960256953
Ga 7.2519968989772545 13.821159326055417 8.657598221555428
Ga 5.2664034801432145 11.674183214445277 8.878530832806693
