50
Energy = -131.71828487 eV
Ga 12.511677636858707 7.580545653375442 8.053796085729658
Ga 8.911301978372828 6.2658188773135635 8.138874002876959
Ga 10.938684922839517 6.166814924327942 9.699265844608378
Ga 7.49051480938616 6.630209548230306 5.911347734481929
Ga 13.31530503465199 6.99181423459129 10.75872592073248
Ga 11.834901872233003 9.645817419111939 6.4031148877458826
Ga 8.45834734839338 7.178633506655776 10.623888169185197
Ga 9.65094427171835 8.266213437997228 6.047727359143892
Ga 14.889069419065837 8.78603617054933 9.144253031148837
Ga 10.803755422512403 7.081419174113136 12.183056410823907
Ga 13.860725223067282 10.749227574048529 7.681041446074854
Ga 5.9472677428031036 7.0689050516751575 9.076535770755118
Ga 12.188866299625422 12.356941683575952 5.929574278681089
Ga 13.22975953355429 7.602404576605444 13.3890974761127
Ga 12.187582422419757 9.654305569147674 9.994982145011372
Ga 9.910415266851501 8.934410430879396 8.759168908068112
Ga 6.1038253911305365 7.867298267550455 11.926370038785684
Ga 7.269265784634315 8.913626181049166 7.393427722111281
Ga 6.768035711532154 9.7220227367666 9.895853480316573
Ga 14.635923644610788 9.558741204349216 11.70564677151699
Ga 8.444536552274158 7.913954601696816 13.38649863112366
Ga 9.479441443871488 9.633833165952568 11.227972577186348
Ga 11.569828264500135 12.03035567911551 8.616966171691908
Ga 13.145596013855188 8.021981516500913 16.119500052591373
Ga 9.407213060308218 10.949237620133212 6.738381228235146
Ga 6.866203871956664 11.538122585930578 7.644617744268359
Ga 15.157966775977378 9.436834140548502 14.457881769838623
Ga 11.760361283592706 9.856511368142394 12.659576590394295
Ga 14.5319227364207 13.392989100628862 7.900288443354868
Ga 10.685712825443629 8.11498483435159 14.851117796688166
Ga 14.375016621398306 11.881212979876864 10.306226255397567
Ga 7.058484428160198 10.361992424283729 12.697069667044213
Ga 11.728533429655721 12.244401739518084 11.268631807916618
Ga 5.84764354335342 12.217311488430939 10.109122598697857
Ga 9.57013828479566 13.584057869190314 7.116523901028401
Ga 8.888805382331812 11.887890942472369 9.511327845616341
Ga 9.416183398546186 10.576718993562219 14.499860519023915
Ga 12.033555396103523 14.719433424640467 7.412431000454317
Ga 9.257003892515124 12.102206920396823 12.086446323589835
Ga 13.994337941217585 11.87003926577088 13.174174883225716
Ga 12.503941615396103 10.471534879663475 15.137738930437326
Ga 12.973824539582628 14.44214830134363 9.987798570553423
Ga 7.321030970150172 14.158660685212512 8.557396862272947
Ga 13.14768490221064 14.314406544820086 12.654627693874696
Ga 6.55303825867353 12.962405492388493 12.669996618916471
Ga 10.318723889214887 14.616194988469589 9.624430513174316
Ga 11.437182155593277 12.684457169308955 14.314135787420696
Ga 8.066828894993966 14.485980476073033 11.132143244263872
Ga 10.434949913265966 14.74633252730658 12.632910073175138
Ga 8.735311139892115 13.379773213868814 14.405629576145076
