52
Energy = -137.51266502 eV
Ga 8.930585586203328 13.922590048115318 7.1093252830837645
Ga 11.189826872809844 12.623849177063512 6.469505876087597
Ga 13.20872873693378 11.450300461634859 4.9746586965100175
Ga 8.424350540327215 11.367122183219244 5.887143475920436
Ga 6.989127480809483 10.844924760289599 8.186232646214448
Ga 10.65762801089153 9.887739670725043 5.742501761724521
Ga 13.78293180256506 12.995725357061938 7.3366082731084985
Ga 5.509552627624899 12.224141671233347 10.490874523952208
Ga 7.720299921725007 13.36657134538831 9.427990473363952
Ga 15.35366902114386 10.250832936107908 6.421942496262503
Ga 9.104289744766714 8.948927551268643 7.77032190580018
Ga 9.779779321238289 11.542627809219129 8.539676673221896
Ga 11.038089681274098 14.281178032754237 8.863452518230162
Ga 12.658683632068067 10.387054988721587 7.527662576031509
Ga 13.144214620970375 8.567708139846003 5.401114268383429
Ga 8.382796875481326 10.384781251662423 10.575930206610787
Ga 6.813213035144141 14.355973093502206 12.057157776718222
Ga 7.481982732585065 7.81132440562174 9.461572721656312
Ga 5.398987659709702 9.569478776431843 10.18250154261979
Ga 15.1099552182998 11.247517545865758 9.00320110324847
Ga 11.6626888475402 7.587245446645269 7.487666593884629
Ga 9.213738026967295 15.408582760721812 10.664582757116156
Ga 13.672412036286287 14.404608383586288 9.732663674347618
Ga 5.479710361832445 6.932041906458115 11.015077513489704
Ga 10.067549947090079 6.683356844547076 9.495764349903963
Ga 12.387483509639589 11.930279712253084 9.712399507604975
Ga 6.939778041625463 8.79465599985187 12.399036189353577
Ga 14.362099288429931 8.44677061895493 8.347862838792922
Ga 11.202187142463202 9.394852223287105 9.587715851875052
Ga 9.128820683915555 12.658653484106837 11.662786162330109
Ga 8.11039617895842 6.0972774814986925 11.718830795185928
Ga 6.857972222315533 11.553142977742317 12.82440625940075
Ga 13.996950228287096 14.581947943623646 12.600824891709555
Ga 12.865826363609974 7.208001520417418 10.170592158906821
Ga 9.791802880795352 8.48007098097914 11.839401278039075
Ga 9.282172227933488 14.784583336305257 13.57879686941253
Ga 14.943752673479285 12.36890940805358 11.344528577155588
Ga 8.022355298437304 9.908546599501387 14.569771275654393
Ga 11.265409300064064 6.067622774463361 12.012656462913744
Ga 13.769262188005591 9.862934575553684 10.972835490756106
Ga 11.561045954329398 13.768123455855205 11.608938446247606
Ga 11.081229506246606 10.879144174220281 11.87808240587652
Ga 8.858323814114843 7.4645256941100175 14.242443670265455
Ga 12.700802036802353 8.378478040120577 12.74946945220473
Ga 9.634810246502683 4.872824260743323 13.779572751438097
Ga 9.421873492783973 12.140804044223318 14.403449906995862
Ga 10.67885620775561 9.718490230112575 14.283836298040825
Ga 11.73827814962206 13.878830827559364 14.392811990212762
Ga 11.659194394975685 6.996856624602794 14.843851248496426
Ga 13.338117933338815 11.53966161185324 13.384359790124872
Ga 12.008233543288991 11.630701621063766 15.847937677527673
Ga 13.207848962844375 9.292089081252778 15.303286031622363
