52
Energy = -137.38489672 eV
Ga 4.906025641200457 11.372605565631641 5.285942181510523
Ga 9.219049438154183 9.306922902013126 4.744355845165686
Ga 8.093349716646935 6.7402829892861496 5.5710827775998855
Ga 11.771722350865897 9.809535419348967 5.694192847622734
Ga 7.592476212451289 11.614840915605512 4.2111824266921625
Ga 9.761804882797414 4.45252329711359 5.508861970793223
Ga 9.927232159655146 11.774619232094386 5.809790095653162
Ga 6.576959530171034 8.950215003989577 5.282524247629303
Ga 7.636976130757204 10.777426977988725 7.035135006761232
Ga 8.903652989211245 8.416264157419878 7.533409537531519
Ga 9.288909965772858 14.237432053318472 6.9377616345945405
Ga 8.125211377344536 4.962437756700375 7.766180752812394
Ga 11.645416617242919 8.00215485422148 8.16889365653729
Ga 14.361126957937941 7.410259635222706 8.103931431699353
Ga 10.797169044395485 7.160382613777899 5.66544774322792
Ga 6.675572114348914 13.326985053860877 6.387103838404105
Ga 13.553091496190966 10.084421542977676 7.754711563720347
Ga 13.710474020705366 7.941046395597361 5.470816395548354
Ga 10.405487179558236 10.54700961753577 8.295002799815576
Ga 5.7178183082898855 6.457061197360396 7.027986695387065
Ga 5.003995030769336 9.073434295259801 7.433872784401414
Ga 10.96050078528864 5.270372502723161 7.921965737207549
Ga 7.473654808672226 7.090379387414661 9.294649248693215
Ga 12.161559366893105 12.534235588396065 7.4197646769783745
Ga 5.157012031456508 11.73025233102058 8.100113333397836
Ga 7.560820148457728 13.023319054093477 9.03053441020243
Ga 6.807958122927077 9.610131080831286 9.338521032783555
Ga 12.968324671902279 5.883682890367224 9.771840064179088
Ga 4.689658212281283 7.326572746029773 9.583009616262279
Ga 5.730102415791283 4.666282793332374 9.53285126141276
Ga 3.8250233096114967 10.02280965117027 10.031163845133971
Ga 10.347144549198653 13.171982711671522 9.327815675581709
Ga 9.988778558371855 6.729892057839111 10.022909175458183
Ga 13.596031526575928 8.694249463794703 10.385515194720217
Ga 8.77425612333406 10.965791338713942 10.493930292882906
Ga 12.803829616472008 11.529477018657607 10.08969360372471
Ga 8.37800356070855 4.437174772274166 10.541901786752913
Ga 10.810206087908062 9.293098455794604 10.665988116114319
Ga 5.916404162390816 11.70774113234875 10.888623807114811
Ga 8.44500638314063 8.51625613345893 11.589639027218897
Ga 8.303308383673386 13.241891180837571 11.871908421173067
Ga 11.042092826026582 4.445084361729254 11.344231069415615
Ga 6.555247193943292 6.310046215153578 11.937678384513005
Ga 5.61584056744619 8.949006124741738 11.969083808578654
Ga 11.912480640486253 7.082553870821024 12.043424843210438
Ga 11.007032985694076 12.473651388668355 11.939110938552368
Ga 12.575989113597315 9.932567547333738 12.72679403380272
Ga 9.290555656579471 6.05538782030105 12.767770617140956
Ga 7.045255881749017 10.971550374093404 13.26799492087313
Ga 9.682693882213947 10.612222422108307 13.270172886857047
Ga 7.421032702284347 8.161434034179347 14.129350603740011
Ga 10.5279794612895 8.190346974608142 14.061168234048079
