51
Energy = -134.59206448 eV
Ga 14.695872273805133 11.538787016958524 8.292557549425634
Ga 14.919582154735235 11.753242405654515 11.016770843707716
Ga 13.650021496734446 13.902154222312554 9.865586788227882
Ga 14.13661509399685 7.439213352044105 11.400287448728765
Ga 13.573912570291586 9.5360333816121 9.805036117890472
Ga 13.015681147254906 7.074421797282613 8.65605112184121
Ga 13.315838950070036 13.835742375063887 7.134027793475738
Ga 13.385028779510646 13.396996411988072 12.670836253121292
Ga 13.817437879316357 9.101768294622477 7.10976547158368
Ga 12.005163491082296 11.284759381864442 8.047607834148405
Ga 14.616159153322936 9.700910727529143 12.578293444027523
Ga 13.346222851373334 4.973305100697767 10.51772729268682
Ga 12.999706405574802 8.191146737925223 14.31623889771209
Ga 11.05944943469227 13.790930048246485 8.925876067528911
Ga 10.871875199256944 7.716495352995392 7.0381675525511165
Ga 10.495478123742645 12.692725549646651 6.067706183405599
Ga 11.446833799743821 9.43856969119121 12.234027458212049
Ga 10.866302758879263 8.803101648414959 9.622616363499256
Ga 9.600069487635189 10.20970952782028 7.674035671608806
Ga 12.890185568205133 11.195176101563725 14.128836450691285
Ga 13.794406999049475 11.523150849315876 5.591349122146471
Ga 10.833922596851204 5.770789018064063 9.846150564727203
Ga 11.978035972511934 11.631264635114848 10.778211535707703
Ga 11.565571510553317 10.01843754531307 5.571273360950385
Ga 11.709544887873331 6.676145186670035 12.226119011379765
Ga 8.42534643394496 10.035021008665353 10.106625913850882
Ga 11.089936179177029 14.498482737668136 11.832674381389568
Ga 6.687184933580412 9.902302614467496 7.785599296696191
Ga 7.859044341415281 11.620894726166544 6.021330687531544
Ga 10.430965172494831 12.097070390609028 13.218657808595914
Ga 9.040375997287168 7.473451376359661 11.275739203010652
Ga 9.889348110613541 7.349756078173085 13.958150883844842
Ga 8.999796841184205 15.274195749103605 10.118332088118741
Ga 8.126826496433077 8.007257325359571 6.489419709352535
Ga 8.739598020780356 6.601211096670471 8.611521393269573
Ga 8.580939536764976 12.988807041198314 8.162401129751078
Ga 10.692210440069942 9.930329862844015 15.03755723161961
Ga 9.436783189278499 12.297023095253534 10.712395279664243
Ga 8.69709643397755 9.66515102350746 13.013596670248097
Ga 9.124283830661533 9.65753132776017 4.64051151011562
Ga 5.727953626216833 11.006892098052344 10.022709585009412
Ga 8.493620567819548 14.061258929136887 12.773750111262029
Ga 5.930764546168724 9.166334230735067 11.884672075951647
Ga 5.725280147630624 12.751692735503344 7.800960416647397
Ga 7.105173691653422 7.112016176835863 13.285029881644766
Ga 6.548982811821643 7.832211541556649 9.522224250596334
Ga 6.9552596423556885 13.462678662414472 10.368117736863667
Ga 8.274544910368991 8.64384570096343 15.794332496087131
Ga 8.485361930247059 11.760820788539187 15.179998554605111
Ga 7.002428827078326 11.727679518695467 12.435504417615162
Ga 6.274170969111193 9.876750775957477 14.42176415048112
