53
Energy = -139.73543369 eV
Ga 16.100126307126107 10.863631628376165 7.482746358732431
Ga 16.877307569044767 12.311390649202954 9.817064397004264
Ga 16.1102777773783 10.362099230883922 11.521845408570638
Ga 15.699805244472374 8.750435226579054 9.329129591549387
Ga 14.48989722560039 10.910895785307236 13.636496759209088
Ga 15.028232660095865 13.044289936322503 11.769947950668866
Ga 13.931506541681355 12.485671427831363 6.895475248106466
Ga 13.688093248753143 9.094964927230071 11.192513778560242
Ga 14.160911466397314 11.356267337065711 9.564864798050957
Ga 13.678543763580228 9.596386070353587 7.462318114967483
Ga 14.714845408424193 14.013563924853797 9.04018954802997
Ga 12.609702258631051 6.450771808213142 11.87854638097465
Ga 10.943767802928797 5.6513227233545935 8.31087051043864
Ga 12.16027436397174 9.418897658293288 13.455866969198084
Ga 12.813482436435947 7.497162474529454 9.084092113278995
Ga 12.333577514827777 11.690888093806096 11.604289700449307
Ga 13.311404763703447 13.436526675723103 13.734684960599633
Ga 12.6606669576551 11.34503410889897 15.757012418251486
Ga 11.321924221667413 8.693531542471915 6.8694200272077
Ga 10.006045813879815 6.12341092986478 10.84975863182972
Ga 12.912161787796984 14.541831998779855 11.026739039861562
Ga 11.852635927460605 14.181637915341456 8.118580503583578
Ga 10.285570180289488 7.277788369969781 13.459191187339183
Ga 11.495146144867467 11.587996440388398 6.713289574162904
Ga 11.041385194335856 8.705454618332158 11.01925794413076
Ga 11.394377693002602 10.711398511152526 9.255820167970015
Ga 11.332724702068672 14.177388776894666 15.355888446622599
Ga 10.176637875203534 9.247357548907832 15.508542040347947
Ga 7.67564903363041 6.07649185259927 9.117227912394798
Ga 9.171874010572491 7.1606677879776655 6.808850959731312
Ga 10.715001756147167 11.962755639935141 13.758580192998902
Ga 9.31227524196705 8.493628547854406 9.13521306817423
Ga 10.883524531947737 14.683547355828416 12.75691848085561
Ga 10.02483395396119 12.029128033822536 16.646059596614748
Ga 9.446752150478629 9.946199166615514 12.604914502059362
Ga 7.910215737388114 7.632450155152161 11.614670121110443
Ga 9.278006709043938 13.126880712701116 7.658068643296945
Ga 10.386448927965509 13.069014777825007 10.272170089807204
Ga 10.774949805683356 15.915125678001642 10.120782912998404
Ga 7.6933925148757005 8.360187651078622 14.267466086571547
Ga 9.152791680819389 10.314778081734072 6.906963794769595
Ga 6.563375466829728 8.95191769554052 9.744428254158603
Ga 6.994339236046763 8.72125235867668 7.013664409354428
Ga 8.0424198283985 11.20708158009614 14.675137689652944
Ga 8.525708366994344 10.956666605293604 9.914428843321398
Ga 8.580595069629343 14.078659680251858 14.559348710399629
Ga 8.371811057939237 12.489976060318028 12.165545380542982
Ga 8.48918363048155 15.225369296483471 11.614610369832459
Ga 6.693011992499715 10.256629065060984 12.248687947587117
Ga 7.385172247118178 13.660241179258444 9.72300303482505
Ga 6.937596335786709 11.709316877576404 7.638615966904477
Ga 4.726930333069761 9.998666297576776 7.917946892428746
Ga 5.4942347287741 11.648549147566786 10.18389717529767
