5
Energy = -9.3735982 eV
Ga 9.838773401801204 8.238967858350602 8.918835187805527
Ga 9.303818918937818 6.612292584999827 6.872628116444621
Ga 8.755756578830422 10.525607858767568 8.669177171389785
Ga 7.557815680411573 7.127104157405479 8.833303636630669
Ga 6.458977707908727 9.409219682280535 8.610733506622728
