52
Energy = -137.32782696 eV
Ga 11.369160055317579 9.958141460731143 5.0595041849160305
Ga 13.431124380113138 9.500563514088963 6.7824975262139455
Ga 12.378646346427766 12.467086769970777 5.88496687609782
Ga 11.205675696327736 7.850529583085059 7.025445890049286
Ga 15.325079022763724 9.576665203429902 8.661733091478574
Ga 14.897320724169003 12.296771055962123 10.776906413561596
Ga 9.617933985395068 12.465711401905002 6.1052656131696414
Ga 14.0189748957808 12.117252458049215 8.184173763580132
Ga 8.850767189807145 9.436275272424687 6.014100718099892
Ga 15.606613556435931 7.294835714568464 10.24599689884612
Ga 11.13783924545943 10.642021728445576 7.878527681235443
Ga 13.229487382807857 7.568957278925181 8.781234918936395
Ga 16.617339791323754 10.073292454210705 11.082756377949641
Ga 10.755573002408179 6.245211011870112 9.567231051528976
Ga 8.715487982965799 7.1614584447754766 7.773226813993283
Ga 11.146819044741354 13.427784118216714 8.260245012712641
Ga 12.958210295182418 14.366248830280783 10.07606396039586
Ga 13.727482119351668 9.613005923753356 10.889804507382978
Ga 12.908193212075119 6.901515219152099 11.464985693671297
Ga 8.359651896775343 13.038452396686052 8.511341948009425
Ga 15.098495213897557 13.328161142530199 13.84572114563492
Ga 8.485514448390447 8.004923899934091 10.392920553361096
Ga 6.940635664111766 11.442293831308746 6.543233902463191
Ga 8.696587697510886 10.155265408929091 8.625591015894685
Ga 15.14264672124076 8.151000667722712 12.853338245233592
Ga 6.4885463989727485 8.614039551420582 8.130475870906489
Ga 12.095497944830768 11.571537828971243 10.20567034374718
Ga 11.113361084878912 9.03748763925297 10.010645110783834
Ga 12.752219484628162 12.703053144353701 12.492657576101948
Ga 6.081375729596175 11.299207173754628 9.147517896040718
Ga 11.499019594823318 15.240944309590617 12.198743972893087
Ga 10.376686306898403 7.411892269050207 12.302423503412761
Ga 12.59085995154828 8.878560502473471 13.437770516623374
Ga 10.061063046718228 13.329542806132062 10.793346481241905
Ga 14.867935801807775 10.76589616294212 13.415595721127037
Ga 7.766295422807847 7.1595874699880655 13.103221451317696
Ga 12.74424322972428 14.193951461651451 14.821713287884325
Ga 8.404917955718764 11.207039177144042 10.988010079627385
Ga 6.167729196241544 9.096128208058898 11.156697827426335
Ga 7.172412842614597 13.75260302098584 10.85232762137634
Ga 10.613719943616589 10.60250961063455 12.385403646789912
Ga 10.433962100797096 13.049694865601024 13.73156207554793
Ga 12.355809410512604 11.203104213436971 14.869922848090972
Ga 10.217837800844586 8.660908654513038 14.74745401533777
Ga 8.750417291906334 15.024614741906634 12.63015308459374
Ga 5.639084547654618 11.707160417870261 11.841471015203961
Ga 10.549022019408309 15.868949517244916 14.77259999559565
Ga 7.525680093283162 12.57471036455638 13.490636695756452
Ga 7.9569704786310895 9.829159687705951 13.301456084042117
Ga 10.987590970447307 12.931176222884952 16.66087676711006
Ga 9.236955965262327 11.136869316864802 15.392896567536079
Ga 8.575554147653591 13.974637777239858 15.477734712976604
