51
Energy = -134.74772511 eV
Ga 8.01998031842401 8.368145193475394 3.69959655551471
Ga 8.130027525169155 10.75725756479749 5.321166891435426
Ga 10.301228736337592 8.923736774194408 5.26639555346136
Ga 4.581484651217777 7.960047183664706 5.002772060971167
Ga 9.329922062204652 6.523910330290767 5.617138945151813
Ga 6.55407079499044 5.881084114169854 4.909696461825334
Ga 10.852754487412048 11.573143263756746 5.5248863539820094
Ga 12.937644625753194 9.650339071560985 6.062443394109888
Ga 6.46553230860039 12.244934179167887 6.773976357952397
Ga 7.250540320911521 8.262971259885436 6.360041197093343
Ga 5.04859275745615 9.979838336420093 6.946174231937144
Ga 11.887150604865186 7.079010627534247 6.701826867017809
Ga 5.032760693542115 7.082612540359391 7.529694710979103
Ga 11.332598560655878 4.450177198347037 5.966341952149892
Ga 8.532406090209863 3.9636516963599013 5.63627116630563
Ga 9.092400375726214 12.00029725637049 7.636944755648077
Ga 10.722009271938939 9.671910572737382 7.8788213411420305
Ga 7.435956611853005 9.867883132085284 8.453732128196457
Ga 10.081329538853156 5.111744655990883 8.222120208248757
Ga 7.348010441767845 5.571769306913048 7.741310856738823
Ga 13.351256266135318 10.960397115794004 8.433544344027863
Ga 7.201410004472669 13.971778512560512 8.745824089821857
Ga 5.136139261433573 11.624357287287081 9.252385682943473
Ga 13.309756623455241 8.275449529101772 8.692702024325667
Ga 10.771300693309872 11.296367693951394 9.93038928825306
Ga 9.032223493295039 7.707714685575152 8.298760347113587
Ga 9.850492738282975 14.007135881901268 9.341448330939343
Ga 12.908248024690238 5.49280760889087 8.892002423501141
Ga 12.959544771609732 12.854221830799954 10.660863278585982
Ga 7.6342044600867975 8.145424353022149 10.596854433896292
Ga 13.38960463165404 7.203519844386742 11.205354030094934
Ga 13.185034343009447 9.964103380355095 11.000497531772732
Ga 8.155194190555168 11.704765703202156 10.24836162799119
Ga 11.812491053811998 13.089262879810027 7.674993229903709
Ga 8.575375694731829 5.545188254073519 10.282146830212657
Ga 10.858924009384623 7.997840216564336 10.19562806021913
Ga 5.704178822595117 5.936372600554131 9.996104498664186
Ga 4.994006399550753 8.870949172982083 9.614351443581258
Ga 6.148941186362235 13.173334544305357 11.331287285262627
Ga 7.066458994566377 5.845689990047319 12.503282923368968
Ga 9.898358126100508 13.362422381786143 11.953005268944356
Ga 9.415205618970576 9.782954516867452 11.719031662567257
Ga 11.16022615825414 5.247253099350061 11.232856160637795
Ga 11.509882470317429 11.376217380022497 12.7172091459046
Ga 11.788337377319506 8.574844406109456 13.009694765768913
Ga 5.086277897035682 7.8746808526153655 12.15190909967072
Ga 6.053851535613519 10.462639966699646 11.72245864510179
Ga 9.602336099372561 6.938195795471498 12.783675019096385
Ga 7.933816581319099 11.81634601185452 13.29136628168061
Ga 9.829278730594147 9.961348841986213 14.497992225455636
Ga 7.437235848285507 8.7079442880547 13.46866091489513
