53
Energy = -139.68804006 eV
Ga 6.993597825113108 11.247388086643143 6.597491446244134
Ga 9.605973097594562 11.128081570305932 7.343563195968999
Ga 10.167286373148938 5.6690833377823235 11.82913565383373
Ga 9.662996909953462 12.710345200357903 10.407768730964062
Ga 8.768999486788775 7.115837415309386 9.87636480431025
Ga 11.80058015006516 16.366326809442846 9.681790737417757
Ga 10.556778003064244 14.303689024951924 8.14195607922189
Ga 7.769940653861232 7.020129747299005 12.939167985274231
Ga 10.652655046120483 11.415074655879636 15.509639414786326
Ga 11.692970820801515 9.619067109598847 13.578482572232412
Ga 9.09369087574882 13.506198052392524 5.852619232172681
Ga 6.715211162184674 8.816296151600055 10.859665018364458
Ga 11.750021166288303 11.28122172612403 8.86717497687156
Ga 12.755177538028573 14.003474747563246 13.65404113241022
Ga 10.421031413028286 7.015951035553904 14.243339342329993
Ga 10.250323009295688 14.177725846876015 14.865011958607528
Ga 11.931895822684622 9.685559496172989 6.10643156760231
Ga 11.613300353814454 7.028005390162479 9.8080165200467
Ga 14.497768825693221 7.855933189215511 10.414751406899699
Ga 10.538581152470337 12.087095502213959 12.849054122274733
Ga 9.888289866880998 8.596975992167962 11.939795206161124
Ga 8.868478023024087 15.446753949918937 10.067010995204155
Ga 13.292160745027664 11.729525583641019 14.790882212189908
Ga 12.752902799755226 12.256446394341433 11.26600477629819
Ga 7.906861718359516 11.392004630448845 11.96312921608696
Ga 7.896342125474972 13.350469070753764 8.293416114201445
Ga 12.628416450323341 7.073729672435029 12.363699394162206
Ga 14.967054721825807 10.483962112447196 9.823428576372855
Ga 6.647322421054366 11.210342923053673 9.535378542296568
Ga 12.18189543068079 9.616267742364373 10.86699628754395
Ga 9.369050485404664 10.064841330139336 9.861869323928035
Ga 14.068662037227961 9.294538379826973 15.039934687184656
Ga 13.069090670905606 6.814012240635592 15.134844449321248
Ga 15.218410703273888 12.894755804787788 12.752913418572797
Ga 14.389410686855443 10.223621167199346 12.475341117847499
Ga 11.939068386260974 12.8937628921104 6.284756578141292
Ga 8.988072077939039 9.33438741044659 14.518366605039018
Ga 15.40308543101233 7.551976485125464 13.057714285137335
Ga 11.231676826341506 8.752661508388313 16.370611294459614
Ga 10.229151227229895 8.149551976920614 7.72247652191668
Ga 7.9989206369700785 12.056236756357256 14.627957531522746
Ga 6.6105659493885245 13.712767349662926 10.76008831950497
Ga 13.708661172629016 14.99884246949617 11.197128565234573
Ga 10.918573424244052 14.815438249448569 11.861883861635006
Ga 6.476152270234916 9.732038219799206 13.606996623422255
Ga 8.44428727913545 14.189873251945302 12.806530564452638
Ga 14.048831447596344 11.384088590266195 7.302612615848711
Ga 13.151486098253807 8.740821796862072 8.29258939815449
Ga 15.47751349428519 13.099193388864776 9.966961538347784
Ga 13.116266668780781 13.736015583844887 8.735911629955691
Ga 10.468191029787475 11.338053842644952 4.5162964964093995
Ga 8.835657208866262 9.011020922796906 5.528434886354616
Ga 7.456692822351726 8.888520238544144 8.12855449238829
