55
Energy = -145.73492663 eV
Ga 10.21350936563661 10.466583771568633 15.999133926285198
Ga 15.607361292076362 14.039118659223538 11.35745702604773
Ga 14.775006113839263 9.65783545336917 16.599142278841676
Ga 11.688914697641312 12.299893381417679 9.604571245167596
Ga 15.078440339500492 13.599769833562712 13.972448281058796
Ga 13.944483717984276 15.030103827633212 7.519085260357222
Ga 11.494822922182445 11.712577905022732 13.4280294136775
Ga 9.309809625872278 11.630071095483501 11.262828393098912
Ga 13.208343360188064 14.856621742629398 10.478392243151376
Ga 14.037383254039971 12.112885722361806 18.288478215018735
Ga 11.396242257299498 12.59384642848749 17.630636139928388
Ga 13.028038657235767 15.216641080060274 13.533977409376982
Ga 10.375269321906886 16.198263169250193 10.412712239757514
Ga 8.341192298491354 14.692798308471911 12.133378560094975
Ga 13.566899557780797 14.314916081049217 16.133903540418498
Ga 10.29391490893967 16.427722894409847 13.240158205455163
Ga 14.379564255267036 12.790762956958845 8.956844324259157
Ga 18.236810300153603 12.657325835267379 11.51786707403914
Ga 15.949743946248931 11.285347289535686 10.714036445725375
Ga 13.522757807449688 12.224483322239806 11.780606428154684
Ga 17.64260898518317 12.370966473296631 14.205225853253342
Ga 15.13544911650191 11.000639831311073 13.917546596897216
Ga 13.070775152704277 11.775520080213994 15.518582446066
Ga 9.112171689095959 13.774930560608102 9.529664769219082
Ga 16.02986071740497 12.166908578566453 16.4537467200172
Ga 12.782828764318289 17.18646592043621 9.00117264510854
Ga 8.882092394364099 12.828680345034144 16.450427385409576
Ga 15.716448643185869 15.981401211505636 9.279103408910315
Ga 12.483603224431695 17.349477649099217 11.74894690871175
Ga 10.024472262848295 15.05327495811738 17.73912558526464
Ga 15.224381938021718 16.734622321978065 12.025977308717806
Ga 13.364994488837617 18.050669852161676 14.210666935896565
Ga 12.7026651345604 14.858450957622344 18.806742491807995
Ga 11.572831406012533 9.921730010616983 11.282937358575886
Ga 17.56544130746705 10.000175826671207 12.634978959069946
Ga 17.287889438211675 14.59803083794826 16.010191898770103
Ga 12.288939561238882 9.915503251361725 17.634847336180876
Ga 17.385279069457642 9.811889826091871 15.525812444750079
Ga 15.531625636257939 14.533525501611257 18.185859065142186
Ga 11.37744032520841 14.651065381128825 8.224047321651115
Ga 18.106662612327742 15.556466516995812 10.700599807223437
Ga 8.558297717567958 15.308429179414906 15.036949909275261
Ga 11.071404568062352 13.895411870536536 11.936428328140197
Ga 9.642823715130701 9.661659577955431 13.333342407739169
Ga 11.520698327234449 16.465391665183386 15.736644451826843
Ga 11.041034859387711 13.831344263577218 14.950412607017407
Ga 8.761529133093966 12.487405559625513 13.800244571915291
Ga 13.914134042489023 16.92045799445669 17.078376194377523
Ga 14.375646494726277 9.358972774083558 11.815159756584633
Ga 13.493090744032742 10.044936973088168 9.220263246472786
Ga 15.435228706663077 16.323546099192352 14.845919229756076
Ga 15.375929306834212 8.200918934042484 14.048039081673782
Ga 12.551561213353637 9.230096655108493 14.227411578917522
Ga 17.435122836261378 15.037945544826881 13.295058260549794
Ga 17.114649647083368 13.333639437824084 9.053981658489317
