55
Energy = -145.0976648 eV
Ga 9.891693051786886 14.921891716066446 14.139572989087814
Ga 11.812640818928847 16.14186580561873 12.292720327948118
Ga 12.511880486718912 14.110797725827672 14.169971531988969
Ga 13.035391521456349 11.769938004027756 15.819165227784623
Ga 10.422713285650318 12.39609976849064 15.120938170214352
Ga 14.242716077113618 14.687982473728479 12.100189737095905
Ga 14.766106325903445 12.449053619615526 13.826200432723187
Ga 7.544370145379258 13.286149350285235 14.316345462735955
Ga 9.276280768145087 15.047547257352823 11.500465143574798
Ga 10.599204731141121 15.308380570484388 9.046461596904734
Ga 11.706316873385095 13.536468318306744 11.224164262640505
Ga 13.176677551246623 15.707269498594307 9.790522023417692
Ga 11.225342114216218 9.651106473560647 15.3629810825678
Ga 16.211310735729985 12.930218505816617 11.333408506177953
Ga 12.158228248721423 11.40014412174201 13.031582996455263
Ga 7.139491054626942 13.270385273635366 11.40680455536098
Ga 6.2404780628544465 11.177092149586219 12.906319872727025
Ga 13.69583143700196 9.361904143893437 14.15217231624493
Ga 8.406434075694492 10.568430287375534 14.654845527708659
Ga 14.610677642789224 13.418250419407881 9.007839523118781
Ga 13.46332616628883 11.60107762911844 10.783279029609673
Ga 7.786856547703643 14.970277147602589 9.20852915690105
Ga 15.456615816773558 10.34679438335283 12.304245361982293
Ga 12.053368938049655 13.209255194207628 8.109101958595085
Ga 9.460004601794092 12.102133946566967 12.400450446695766
Ga 9.787144435557037 12.445472533589857 9.693920157226422
Ga 9.257246724317751 13.521678577775901 7.230622176719774
Ga 7.045669873084752 12.330903635609866 8.910075184816803
Ga 9.191341059824163 7.9699007614392805 14.928093996487522
Ga 7.685573694729869 8.720261996636776 12.689729107391075
Ga 6.13089896298207 9.702933909936041 10.523544802136419
Ga 10.461742215258246 9.39765133542967 12.635867609983622
Ga 11.623974630114434 10.111757278501358 9.436732606157586
Ga 8.882685625894341 10.078548030983965 10.371270778493423
Ga 15.947885774986245 10.706670104878095 9.555166230953978
Ga 13.801082566543336 10.928761702344286 7.845207061778484
Ga 13.918511074797227 8.765132167017327 10.795652992377791
Ga 7.678842197872709 7.1780121305237925 10.603443263442665
Ga 12.385768725313122 7.433458152864373 12.851246878808558
Ga 9.597024371905727 6.434179265508839 12.746428027299956
Ga 7.131718432830116 9.93404262000265 7.97442069856892
Ga 11.128056231296181 11.106169100728156 6.783500621092921
Ga 8.4681156871841 11.227952884586877 6.057209383871368
Ga 9.721856857989984 8.812334256598533 7.955640101582129
Ga 5.922528497361531 7.566372974227488 8.492719848683004
Ga 10.510906250040435 7.740527286795634 10.391951731102804
Ga 12.462681734643434 8.75281665562355 6.871661418872774
Ga 11.941338359513244 5.394694927254404 11.107345242829195
Ga 9.199825765073488 4.9373386405617135 10.454272803807308
Ga 12.867073442715308 7.261873632763059 9.024776779057195
Ga 10.041966421387942 9.235949469170587 4.904042091867526
Ga 7.7111262711798005 8.099735746234572 6.09394391499688
Ga 8.447992892015805 6.268419491091341 8.077213342678105
Ga 10.584565614206031 6.782957065721793 6.131286080713714
Ga 11.105759502327416 5.317840853381428 8.389598797985858
