5
Energy = -6.41841698 eV
Ga 9.493283512647213 8.900623408571887 11.433555050337475
Ga 7.501309188064643 8.493735275378617 9.935141287600493
Ga 8.372798411254701 10.857176934306077 10.175961705102106
Ga 13.752521863811939 13.431892223157906 11.295834892696117
Ga 13.990930947943031 11.282635731427714 10.271485966956863
