5
Energy = -8.97925501 eV
Ga 13.20393555747144 10.270628746635769 8.775491187031177
Ga 10.822179670719962 10.12881597830756 9.836320685138118
Ga 9.765295446574395 11.024675772178528 11.987295136977622
Ga 7.6980085629405455 9.872586042384778 10.912230200584764
Ga 8.817662028033945 8.976219546501214 8.751037437271885
