54
Energy = -142.1987167 eV
Ga 8.783014754588981 11.92410551684395 8.461742261596102
Ga 14.040316179962852 10.973518338610088 9.785894675693644
Ga 11.46290533311697 11.139919870962196 8.847111848455535
Ga 15.19339391254061 14.37922337265439 9.880793164084713
Ga 13.083802089007476 13.494390334125875 8.474101308399897
Ga 16.22223904995475 12.063831747631955 10.922376891089023
Ga 11.889767097762316 10.750853865823212 11.679723541842248
Ga 8.019567032846906 13.817232520170764 10.666352273608133
Ga 12.307754772307295 15.887248577286549 9.683199320366286
Ga 14.334385513294258 11.182427328033048 12.681616648163693
Ga 14.356696570208195 16.71843011588695 11.242740898523182
Ga 10.52623017150478 13.090453764920051 12.671656508368358
Ga 11.419262889674476 17.822553876518604 11.567545956830601
Ga 16.582136599293 15.339192867183627 12.051067948046835
Ga 10.534634435495635 13.784056322451068 9.479537396288062
Ga 12.765238790544794 13.387638795168884 11.247036864919385
Ga 10.025240685946878 15.575806005149884 11.473213083738244
Ga 7.611635527356327 11.975065019530337 13.073760567991105
Ga 9.263344918918369 11.16939610391977 10.989966313776835
Ga 18.468722802440194 11.806556849225675 12.154872249689754
Ga 11.014789069165191 17.905230561154504 14.590586876108782
Ga 20.893189640996482 12.790102798166842 13.346200602351763
Ga 18.963219473862413 14.493860840085164 12.61998314923516
Ga 14.896036986024992 16.31713107895211 14.141142355021408
Ga 12.047502162170899 13.312396099522916 14.93910151824849
Ga 8.16403934325164 14.676807225721573 13.353766128029097
Ga 16.384738165133367 18.440402612067814 13.241529024096632
Ga 14.450620087145527 13.929206020670472 13.145654247951105
Ga 13.581641708800445 18.51153582579716 13.055124841319014
Ga 12.316616614745536 10.481661977841847 14.456780387337396
Ga 9.786877129810827 10.30186463878966 13.532928465249794
Ga 16.74319553224991 10.426083119575228 13.672507863393687
Ga 17.024835226094087 13.301058490150586 14.194124246556228
Ga 12.259650528796282 15.645214362963861 13.18732751448648
Ga 9.371476480978233 12.706395215702239 15.129190698055375
Ga 19.14713130002121 11.556969119883833 14.942550541219076
Ga 9.926108419280045 15.438724496788675 15.301934125111398
Ga 17.719831102232675 16.12568534281319 14.645493775590628
Ga 14.707513187535259 9.547346569915767 15.209480959291465
Ga 14.599083516652918 12.510284798546149 15.471975858587541
Ga 16.27246326955841 17.763315907802937 16.207105687484155
Ga 19.625164299269763 14.428158013910886 15.394741982436276
Ga 13.755634235490419 18.597246940630633 15.740922163853485
Ga 15.393145015725404 15.232127813024793 16.526021454607804
Ga 9.989869130393812 10.285826139539497 16.32321212919054
Ga 12.36175809686385 11.318712931234266 17.14995598369447
Ga 14.837019103522996 10.679846708052908 17.685145657835207
Ga 12.688838015666404 16.069642835383846 15.92958400719958
Ga 17.09160213284527 10.920024244376119 16.363120690139905
Ga 17.60303142626225 13.59098431693957 16.943360085649832
Ga 12.880770269873773 14.052272085284411 17.582774460304133
Ga 17.213406581030018 11.634787856990044 19.022440817564647
Ga 10.230639338556578 13.449860880447513 17.54526295974654
Ga 15.223518793774254 13.33257544972107 18.42990353212621
