54
Energy = -142.45028763 eV
Ga 8.545275310449279 8.80416542564121 3.6880939874016394
Ga 11.015440278110225 8.963814027183263 4.920578054040805
Ga 10.149266521953052 6.471757476542968 5.423843888446052
Ga 9.76579147074612 11.42921528079441 5.291834312783516
Ga 4.585122405932007 6.218776861470539 5.845899034048704
Ga 7.452941373362247 6.579981297261814 5.1870604719603275
Ga 12.504964803977781 11.792133906266274 5.687965921198088
Ga 5.575462881190308 8.696086746551138 4.870441094786968
Ga 7.139434758856632 10.837733646822986 5.217251909510111
Ga 8.555728897221094 8.769780451073988 6.539225483536499
Ga 7.222700223567422 13.178531483618434 6.607668410836115
Ga 12.802672370333273 6.20021378044553 6.139908327694812
Ga 13.221516337072584 9.124549331093354 6.614095677882234
Ga 9.373648935916968 4.1309059343945105 6.456783615561509
Ga 10.976928417847807 10.406198808760127 7.671069453993172
Ga 9.97483377654281 13.134473158173737 7.657409047533256
Ga 6.7604033544671465 4.702710226104733 7.0123612231892425
Ga 3.815193910090041 8.681091546755594 7.353159584392523
Ga 8.366243384812686 10.95584120950196 8.058604413921115
Ga 6.352795723884688 7.6354772106563855 7.616016864636652
Ga 11.000445876383623 7.7664612101048816 7.8109008737960615
Ga 5.7014928127433855 10.527519648980057 7.532361279153119
Ga 6.3808761670428735 12.65968554753282 9.248622286016646
Ga 8.648687183782119 6.470312199486435 8.205428443044875
Ga 12.790947343506968 12.830874632846998 8.222482212504445
Ga 13.649271710517336 7.077140970274072 8.697385668597866
Ga 9.638383967800559 8.891689779064738 9.826498421965518
Ga 11.23809435959357 5.28074391788244 8.887413866382431
Ga 8.791005493813296 3.7973904417213102 9.163214857704139
Ga 4.32594974380409 10.907708923758033 10.308961952479331
Ga 10.963838872363068 11.58208293103927 10.012332407622239
Ga 13.182382840437514 10.064135279048836 9.348088842189313
Ga 5.94452976465612 5.095996196179258 9.464709765953465
Ga 4.678354899804332 7.851448771110885 9.768599695585822
Ga 14.3157522017607 8.320948974866232 11.13609241772393
Ga 7.142714872012132 10.032074903512823 10.181880820341695
Ga 8.557510715052095 5.366017247255434 11.396157512968715
Ga 11.165829112999008 14.293736677355628 10.053470738426924
Ga 13.437367040115754 12.81563447126056 10.961871677442335
Ga 7.313995191048761 7.477279662097681 10.46048247097326
Ga 8.747286447959503 13.249315022989135 10.60190807218107
Ga 11.768777235113884 7.354732560268042 10.749190706766997
Ga 9.164738858618175 10.781636772886523 11.793343060961938
Ga 6.613156929366926 12.020921699053828 12.002036123094227
Ga 11.18677705859854 4.860296922518217 11.70460065652917
Ga 5.437339453323738 8.945484583817542 12.20057538194457
Ga 7.315454973141818 6.829466534928007 13.429666346479147
Ga 11.907993181712257 9.807841120685111 11.966038640905314
Ga 11.103344818031733 12.60557268696837 12.649926105350891
Ga 5.226720187305307 5.979106697756053 11.845093040296124
Ga 8.618164232492221 12.38767257610688 14.069939562906988
Ga 9.775040304809767 7.796601821741578 12.455092996442833
Ga 7.683797881765119 9.491182825437333 13.66913928088914
Ga 10.362711246035538 10.00294609419836 14.252321150871898
