55
Energy = -145.22487706 eV
Ga 14.685941608041261 15.88479610196782 14.274770682550743
Ga 10.03157587266773 10.80728771489292 13.889714529132808
Ga 14.991514324046262 11.082905927554117 16.809307053839834
Ga 10.096640924180083 15.696585273582008 16.10328913505163
Ga 15.876636501702086 13.952439175694739 13.016586376624602
Ga 14.96868102650289 13.946173897549135 16.361408135049114
Ga 15.234647072887554 18.63481711385783 14.723572289992987
Ga 15.475500511039842 17.730747526680588 12.070204656342405
Ga 17.489008553182888 18.21834862400551 16.375087386355116
Ga 14.711050307379129 12.011512386078184 14.286205562927513
Ga 15.499074976160925 10.170575735830186 12.081654996863387
Ga 12.09183298209024 15.5950672018535 18.43578014007468
Ga 10.109950227223848 12.177174032031642 16.110165939916904
Ga 18.01861915452539 15.483370700325894 11.69876727285953
Ga 9.96444494794555 13.93941694912852 18.08791511732319
Ga 15.259522505120382 9.269364800414428 14.737352665008395
Ga 18.011918639190817 12.418695597038601 11.705607394569414
Ga 17.413013128787863 12.52195219572339 16.074593813272894
Ga 12.360910218905628 13.948260379277825 16.14538974329649
Ga 10.253617849944545 15.463979795771566 11.777282881679666
Ga 17.522920501334987 9.69195631557187 16.39024162959232
Ga 12.437513881901223 17.28062905114957 16.131665595710473
Ga 10.263458150604809 12.403204783304675 11.784487527363122
Ga 14.97174418245296 16.80881394340037 16.797594409622015
Ga 12.456088885178303 10.602666102913336 16.150209608447447
Ga 13.160995819576158 13.941828389115697 11.641864413826287
Ga 17.408642552738307 15.391071973744628 16.077832384380585
Ga 18.550791111353547 13.961641419671123 13.976632221577256
Ga 17.680897647662455 13.948878412028678 9.46378663226463
Ga 10.917818371214437 13.933406970311548 9.638316543841256
Ga 17.381782500335884 16.88422555665133 13.854663925479505
Ga 12.98367707663214 16.732191622745454 11.247412083874897
Ga 10.850584184725136 16.73439286467001 9.376316274511183
Ga 17.416485968833598 11.00531599542725 13.867165346534884
Ga 10.816768820885194 18.440047213864812 11.587063191880645
Ga 10.860623197916334 11.135919387359193 9.384341271104573
Ga 12.211842557357647 15.334901575654703 13.851625569392233
Ga 12.998396191423156 11.152335161889415 11.257387778700767
Ga 13.251466344199306 15.382985228861783 8.915858346572804
Ga 12.81954623928111 18.195528964982973 13.560374184231115
Ga 10.847447902558367 9.43157589650235 11.60239272870551
Ga 13.258953651036528 12.49181497312066 8.915292283123936
Ga 12.228426361531927 12.543809036743713 13.860535771484319
Ga 15.421037582285019 15.38385230822814 10.629757384262867
Ga 15.381173546362575 13.940910974581797 8.092876727214785
Ga 12.839300637853196 9.693639783227267 13.579785105402099
Ga 15.42150481936308 12.518357065938067 10.632601974736087
Ga 17.13282977438858 13.956408792537658 18.355678243093248
Ga 9.487154942258858 13.933467617454586 13.943570836000962
Ga 12.11176801117349 12.314322130631275 18.441675971664463
Ga 17.010123656500213 16.703475339325063 18.630554099674434
Ga 10.00857901466066 17.06277010546518 13.87959004966193
Ga 14.645200267096918 15.292593597290509 19.039145436981457
Ga 17.032920427884793 11.209155483830763 18.635497644466124
Ga 14.664508660703746 12.605509605333374 19.038625804677345
