52
Energy = -136.68431788 eV
Ga 5.890282121768045 9.791730946790302 11.937089717915736
Ga 10.031209363185337 9.041401387608774 11.315795433483489
Ga 4.617021738494745 12.328150813556315 7.534037599932834
Ga 10.039332312053615 13.260148699244844 5.55823207204377
Ga 9.00754039229341 9.633738825067162 8.792698469224774
Ga 6.390561753105251 5.795819463281382 7.482490393363948
Ga 8.93744120590669 4.484955401089198 8.105180391647835
Ga 10.584719084147647 11.687268323796738 12.719615314176993
Ga 13.347279746237001 10.995419194694405 8.431450250569675
Ga 8.47660865147814 10.86479175010844 6.0878144851436256
Ga 12.049234955176255 8.365032526843194 8.911960067453855
Ga 11.575828895807232 6.328588258912958 6.9136146690638265
Ga 7.8967178107599265 11.546669759180773 10.77684236010451
Ga 12.83091164882778 12.168287085110926 5.760325813737947
Ga 11.479339949473593 5.466053199149519 9.387933099124561
Ga 10.549273200025091 10.56174326150262 4.319183538877984
Ga 5.851679147342805 10.591511494985625 5.400098132367394
Ga 7.054457098635278 13.415601121031905 6.392489888419054
Ga 9.08919020599582 13.287576088139337 8.279494806272426
Ga 7.176707174385916 5.401611910790666 12.783548814120868
Ga 4.87103529635556 10.904819207948814 9.831856423078818
Ga 7.64666165345934 12.27367027389109 3.915212993684058
Ga 6.214100674745216 8.00470690200106 13.994353033849409
Ga 9.675882213139806 4.349920040657546 13.517526539853774
Ga 7.719624601777082 7.8906939868087385 11.523849258564281
Ga 12.242388853084634 7.323227503468234 11.668679709615606
Ga 11.61450318857011 6.5759567493847975 14.276579712651607
Ga 10.822541217079214 11.067188375369584 7.244461742074547
Ga 9.081813381637852 7.0846107867414085 8.484970931403444
Ga 6.927457481649808 10.993106596701702 8.159422408536743
Ga 12.019886219738629 4.629074254872462 11.913637396262041
Ga 11.758152173064468 13.679691357170013 8.235066155860984
Ga 10.691445487266298 11.331432351165603 9.856272973383874
Ga 12.78236246967273 9.285798087904965 6.206470085709377
Ga 7.2406570127322745 5.456987347954478 10.042242687137584
Ga 8.943136604965424 5.930052562301068 5.642169800717002
Ga 8.186860088990363 8.910591060920035 3.920960104506897
Ga 7.083851622890815 8.18381946436893 6.38432417192992
Ga 9.729745533751895 13.850993864870684 10.949760869278686
Ga 12.980346679787013 12.546965665431756 10.781660500305582
Ga 6.58781898173599 13.577575610744676 9.348312595230976
Ga 8.229548962724673 10.117130562664018 13.296360588981697
Ga 5.1443974164194195 6.8574045230012475 11.251716798827918
Ga 8.978875578764217 7.364926530007036 13.955400825813577
Ga 4.4835577751461235 9.246345653763859 7.466985002489864
Ga 9.563235255863377 3.4916990546316025 10.627876689932528
Ga 9.949063228709589 8.589443923729489 6.4178724415798145
Ga 9.695273889203415 6.198252944793658 11.39221916033073
Ga 12.792241889397273 9.906935344110652 11.2530194734717
Ga 11.514025266108492 7.556903781359419 4.397401262045201
Ga 11.38137451603446 9.28553064372791 13.77067793242327
Ga 6.389556936670823 8.335204082885472 9.199543019659904
