52
Energy = -136.57755958 eV
Ga 10.315889150400594 8.206523907222786 4.308054885443373
Ga 8.007631098581381 9.88264247929099 3.7600612659398833
Ga 10.432591631168878 11.006393839472636 4.905040476738047
Ga 7.775688376534365 12.120572004169492 5.60543885165567
Ga 7.311545340574557 7.393121092618476 5.048356102431921
Ga 12.776697549325734 12.022470550175337 6.300158975204818
Ga 12.159173067694992 6.30108240064641 5.492689643311989
Ga 5.713060806158928 10.133771534250004 5.520500898925217
Ga 9.390963969218966 5.599401548301861 5.917951884879668
Ga 12.571145282112878 9.162170044829578 5.798618066182002
Ga 8.563707892518906 9.457767724199453 6.538469518684748
Ga 5.213714708382527 7.340049604364112 7.018114446584429
Ga 8.384024345817593 11.514299534004193 8.404706292544954
Ga 7.620772989967839 14.172979832117235 7.660804389396523
Ga 10.844943793771153 10.488464446653865 7.756755715530117
Ga 10.185258119088951 13.292098817377166 6.615999889941097
Ga 5.613309166052005 12.066639507346471 7.631225291661533
Ga 13.38175124471674 7.285327883892583 7.944918167260175
Ga 5.996257802132082 5.51600737518507 9.106276136657545
Ga 6.565124181974534 9.408250267776873 8.414907188220372
Ga 11.717188153333275 4.956422725181764 8.028185685437988
Ga 13.895799063064809 10.095845843824012 8.161369434672695
Ga 10.54684638337114 7.749023391103561 7.36597714120421
Ga 3.817562221376266 9.777427541604917 7.692478658906748
Ga 8.577862180848923 4.439435403847587 8.426243964975678
Ga 7.9196014027787625 7.11156371512934 7.791998164053352
Ga 4.265187652954608 8.058071211827098 9.992555061738239
Ga 9.774050919485429 6.643816745654691 9.754595406814333
Ga 12.162609419700521 12.641046052982333 9.051975824670109
Ga 11.593421164124267 8.750078981049018 9.7423711429449
Ga 10.537887899171967 3.9850606526612182 10.49911205509112
Ga 7.313794119376603 7.668546110441954 10.402306315384127
Ga 4.775781883795565 10.868344374865849 10.210748144971344
Ga 9.579109353152715 13.71817011714979 9.734689884103375
Ga 12.544788404375044 6.092379707565939 10.52527488904619
Ga 6.436915207822548 13.200033462736144 10.129529698269993
Ga 14.341490135782061 8.380192323765879 10.462883916851538
Ga 10.238953321172673 11.04729673215281 10.36648207764775
Ga 7.975998927242236 4.865359717456877 11.5489680097618
Ga 7.6115635513956255 10.409069609120781 10.792334467732982
Ga 5.3831674495750415 6.133793785603518 11.85811879063353
Ga 12.945614021125134 10.818359577409174 11.138239709477382
Ga 9.593825815726483 8.700971659534797 11.620100614463038
Ga 5.587377784664466 8.99283140739258 12.357059287520348
Ga 10.386481899057937 6.041102577283662 12.554414357218466
Ga 8.763750826892887 12.559162018300801 12.241413859025512
Ga 12.44513063360262 8.029987275374864 12.633787531406085
Ga 5.994792809568745 11.855237913969484 12.663798386940567
Ga 7.727390178967981 7.152353248178617 13.255887469064326
Ga 10.844372114881836 10.767973055790304 13.10890686684002
Ga 7.838144988695971 9.952122238198864 13.851558790000508
Ga 10.150999242166359 8.279596074390728 14.398295951380803
