54
Energy = -142.64723997 eV
Ga 16.75623076831064 12.801160909499695 9.083587713687217
Ga 16.695698983379625 13.477105367880798 11.859556679049712
Ga 17.20694817823764 10.7031065711989 11.008957502845602
Ga 14.077580570676043 12.88471817368897 8.337861182705153
Ga 15.832318183737863 11.250175103486663 13.388599418750537
Ga 14.344972836312621 13.765989660053734 13.09304617316315
Ga 14.549525871793964 14.951333748103776 10.494047609153903
Ga 15.351928555634304 10.29337693324262 8.823927986131551
Ga 13.809825175513414 11.976042464337098 15.021008032193295
Ga 15.324654895080903 8.910999138535784 11.715901752542482
Ga 12.607884864786381 15.173348373414902 8.287194393509596
Ga 14.481401034929881 11.892942937016816 10.94307007306255
Ga 12.492094413887195 15.527150251105077 12.531753375816589
Ga 14.461324849077997 8.88993008849849 14.429983741033384
Ga 12.836327370091777 14.756812423990151 15.315755219524334
Ga 10.962267321467433 16.108483962325078 10.346496495802766
Ga 12.164792404280254 10.782719262079384 9.990283159875858
Ga 11.867257883639466 12.274874441420279 17.007473408257443
Ga 13.062375246924622 10.42614085267482 7.425889623726049
Ga 12.223900238238112 12.83519085688024 6.149755120270728
Ga 11.571742954113 12.625252721030412 13.303170414644041
Ga 12.917530632191115 10.212540730843976 12.597197129507125
Ga 10.496678199710118 16.63060500453242 14.003844013058158
Ga 12.130877541444544 13.435293942369873 10.633475452735315
Ga 13.713015954490642 8.315447364222484 9.596101028795779
Ga 12.076401919663914 9.868751734871442 15.323486566914026
Ga 13.602403669884378 6.895025567337585 12.314474291222743
Ga 10.08622631871866 14.122984365241708 15.118838128375044
Ga 12.158947803350566 6.166347816331875 10.091398582974701
Ga 11.474081824072348 8.422221702828178 8.063333771306795
Ga 9.485562666255877 14.611268579948861 12.447658830916087
Ga 11.439784921578646 7.6527291427700534 13.865976168045353
Ga 10.302176019823557 10.88185792723269 7.026896529645217
Ga 10.140283748698582 10.291370436683762 12.925595963475319
Ga 9.801970566250656 12.221538490009264 10.981789362787316
Ga 10.518957655196882 13.40504980111341 8.275310414760089
Ga 8.666352811807855 14.8611392147635 9.744643615150032
Ga 9.446345513927268 9.835737290171705 9.618722617274504
Ga 11.0531207783311 8.36369292697887 11.24211553576588
Ga 9.81155242148584 11.467827689408793 15.385831669804302
Ga 7.751021866504715 12.894481955351068 14.074583890570299
Ga 9.605344339166612 8.715987575885872 15.983078271398673
Ga 9.708916592820852 6.746446880541876 9.28957415132615
Ga 8.82659245742975 8.714036345216261 7.153690079845451
Ga 8.801765745721884 7.868673184365384 13.264054004816321
Ga 8.17571323157361 12.149426372099365 8.565520525909264
Ga 6.193395121945941 14.220751370156654 8.990107388108632
Ga 7.241337561085977 13.272504932087855 11.499429383309716
Ga 7.646858125039956 10.093541049932481 14.309264634265409
Ga 7.576994885890416 10.544719043116732 11.67369037151697
Ga 7.856334674855018 7.829078991145512 10.876085950152042
Ga 7.075378171828705 6.873926039778836 8.249093499766174
Ga 6.644202776495833 9.440891390834274 8.983301149420111
Ga 5.698234220566485 11.750133505906632 9.784143486844362
