54
Energy = -142.07725864 eV
Ga 12.372805155615408 10.626385534421582 14.80054851934575
Ga 11.826719282001735 19.33360570870546 12.898359905314424
Ga 15.62374863542821 6.435665493800228 13.638021695716846
Ga 16.01782169785373 15.945734464499411 13.325581308559382
Ga 14.042543536956849 10.586914134598572 12.30731067278368
Ga 15.354523773759631 9.340145294364527 10.069276519175638
Ga 15.920647550186374 15.052134177984499 10.664985701310458
Ga 13.567066294946217 10.625697491170406 8.64348341703408
Ga 13.895239488418278 8.22864091256883 14.798868040136872
Ga 9.236476263670436 15.023406812961742 14.354009381063404
Ga 9.471672848241967 9.208975999645393 11.524898911868918
Ga 15.446255082877817 12.320408811415268 10.025304938300884
Ga 12.238238306029652 9.057597785656666 10.37380620617444
Ga 17.67649272639085 13.17852086949828 11.633005147432032
Ga 11.32955152908575 13.314779488920099 18.241120013278938
Ga 11.562080576810695 8.352119692900523 13.08137795008441
Ga 10.600882883850216 10.65543278594958 17.222207603943765
Ga 11.854905181272768 15.049096738210991 7.179081669900797
Ga 17.619027391745067 11.696936941476636 14.458490533950961
Ga 13.551926300688699 15.012449371725701 12.402346004919591
Ga 10.22382470789561 14.000668696704192 9.552416417400112
Ga 15.937163130182402 13.954684346146124 15.477575162989162
Ga 11.424642044200587 8.344658693893996 16.05907217326582
Ga 7.2550736002368215 16.187058285447034 12.760033039879575
Ga 10.276107546437968 12.60104498665846 15.27913251490763
Ga 9.863615387986936 15.865004196244307 11.442898413712795
Ga 12.86875684723978 12.677623118446622 10.913973559475806
Ga 10.12820115208546 18.527690207256942 10.616270865649236
Ga 15.28520806916528 12.922288381191187 12.930504659344646
Ga 15.819794065116962 12.272120707739955 17.52836792402004
Ga 10.360294437422041 11.322570537945433 10.008038294755671
Ga 11.151541193043434 13.848973905398786 12.730459816628835
Ga 11.321324234392499 15.048558322437003 16.20510143853558
Ga 15.096136425828236 10.872071544676164 15.185244971926002
Ga 13.240310560800454 11.524879122798986 17.186013943998585
Ga 13.877825711931802 14.359456584946958 17.3525868221213
Ga 13.478482931749813 15.051854520866252 9.481158464780425
Ga 8.63668276247251 11.51493649887792 12.713370781475632
Ga 12.4330075905361 17.10180897256071 11.10929226009256
Ga 8.262943737726985 13.846958707909195 11.743199653865897
Ga 13.227307250034073 13.2511934531185 14.745952417346507
Ga 11.376581317644417 11.17885717978028 12.504058284349515
Ga 10.765206084819395 16.640818726337795 8.92451262469262
Ga 18.196829233859088 14.442709898357545 14.076455940727229
Ga 14.042756281976068 17.775867724089316 13.340116525317985
Ga 17.0885442345047 10.683933651349914 11.70643228568556
Ga 11.609602046605774 16.59264136313883 14.009685759416605
Ga 16.335767943666447 9.035928612526497 13.579415189753066
Ga 9.537765458926788 9.824142690386314 14.558640832621537
Ga 13.92495436673879 16.03593231030117 15.383822980612036
Ga 12.194864777028178 12.720202726181864 8.182068854271595
Ga 14.049104421296285 7.812525474536906 11.918742348388946
Ga 18.37962010556943 15.930426715496978 11.744758599263974
Ga 9.352435153135817 17.870669025584256 13.238800446323047
