52
Energy = -137.24621677 eV
Ga 14.970107119113942 11.95863018970718 9.782214854737354
Ga 14.576111644544206 10.708615361372388 11.962250762724695
Ga 14.616615727870395 9.45708784842804 8.306586625138124
Ga 15.037028597743806 14.430858428890849 8.148233403927964
Ga 12.848182304686283 12.9346964890179 12.448627520231922
Ga 14.991125699628064 11.828737405928162 7.005427225217311
Ga 14.522340314735976 8.339468923674582 10.722629484660215
Ga 13.567115435018627 6.211408326507918 11.825404282866579
Ga 14.585758795966415 8.462121886975028 13.840953119412742
Ga 14.131663147476056 14.556925709180145 10.647878622705987
Ga 13.264629826107939 11.027401078148154 14.340123272958062
Ga 13.35394212482181 15.650197196144227 13.011645981404572
Ga 12.32190175340012 12.750709924893924 9.56434172393609
Ga 12.834613736019259 4.397983120999695 13.653394801118388
Ga 11.75655749172297 7.004935557070051 10.009050662832319
Ga 12.54088926704873 13.919653659291088 7.030175551947096
Ga 12.415905993118622 10.112038612603495 9.988617571396057
Ga 12.342117586439064 11.074652089173096 7.361243694492612
Ga 11.424632065011613 9.263813578107614 15.26628825284598
Ga 12.214550306732258 8.27667605579018 7.716407957560747
Ga 10.460313268914307 14.611087991318083 8.6459969091598
Ga 12.139695066098247 6.921860216605714 14.263409183534444
Ga 11.466347630246128 15.640586406741077 10.885002500987436
Ga 12.200461264400783 8.92838545967407 12.40847107939287
Ga 10.220259932232006 13.006717774631248 11.14775192778178
Ga 10.787077281983441 5.237282575270636 12.207584825631413
Ga 9.952236218693836 9.179232154429553 10.96492166568494
Ga 11.528361284655693 12.978061572497928 15.307659571357256
Ga 10.846290378337738 14.844842068542116 13.49273277725575
Ga 8.791200134850678 15.294493774247897 11.745155702072678
Ga 10.759744243992476 11.192871107815916 12.997704757496175
Ga 9.693979918317918 7.555576502787492 13.228444244736457
Ga 10.254875958674518 9.688873237971366 6.346684212634504
Ga 9.892499481778145 11.087027071891509 8.871457417683477
Ga 9.452923584067477 11.12274773084267 15.495823339683517
Ga 8.082974226208044 9.612220903201875 13.74384864383264
Ga 10.201922667407116 12.626393075342577 6.364291340921847
Ga 9.572135548786706 8.06602815059865 8.458369902622119
Ga 7.337782096645124 8.241277030473947 11.593148725404868
Ga 8.235791399407201 11.257520752560401 11.431709531291375
Ga 8.203361143844624 13.534978827415857 9.154879475334846
Ga 8.818091008724878 13.170133183658882 13.75051713764801
Ga 9.067552985194828 6.395825769110538 10.564117264888388
Ga 6.716654265914763 13.552597445691664 11.598808035299008
Ga 8.385120018202162 10.834981670658252 4.750487521314199
Ga 6.427870561400806 11.863456725693755 14.002876053296326
Ga 7.658404769607656 11.735453856270185 7.214177553240966
Ga 7.538306475795363 8.903829472412674 6.65622347570505
Ga 7.241052393593654 9.84796381042008 9.232141842232542
Ga 6.920223165377873 7.010176869845469 8.977604951432916
Ga 5.853168452787404 12.187160041269792 9.304958930950832
Ga 5.622896067267739 10.465619740558479 11.644274724426706
