54
Energy = -141.9092624 eV
Ga 12.970627384742615 9.954354777581358 15.90911434640717
Ga 10.451701605684594 12.665157579967499 7.667363475203616
Ga 7.5201781277640585 13.451623525953408 13.695722802443488
Ga 16.3741335520325 13.532824033043978 11.741994541231229
Ga 12.223897058864349 16.3676649855261 11.340032539112531
Ga 8.046069755068983 11.349662169641102 7.480800210458522
Ga 15.076002247683912 12.142271631764569 7.864658023950462
Ga 10.500904968982715 6.860564990569407 14.5502902727403
Ga 12.344041123072929 8.609621198740191 10.87432329410689
Ga 14.667189797464227 11.526357845109128 10.831405460113995
Ga 10.44563795390917 10.490799781689404 5.97174012622045
Ga 13.950635019752761 6.536235781451547 12.163955739396526
Ga 15.112283470412706 8.92417089679916 11.531893822084582
Ga 6.782354545438492 11.624384307387034 11.215643229663462
Ga 11.95888113650504 12.477461239637536 14.995170395290094
Ga 11.657996081239464 13.668808479881235 12.356623635361569
Ga 14.364201038519301 13.519721017893504 13.462517281163752
Ga 10.857184879601629 17.0509306513771 13.586632834240723
Ga 13.59218900732873 10.875541220108227 13.344131315443583
Ga 8.028800901385232 9.255812053826157 5.761450372020129
Ga 10.474185749690042 7.055074189778015 9.48447017388219
Ga 9.285430338007531 12.842057665028651 11.67830538828066
Ga 9.837458508097972 14.490445941629666 14.32468560438835
Ga 10.756105452202878 14.591824151244174 9.517254352559057
Ga 12.513893951650921 15.129798628065691 14.547592935452357
Ga 9.85420652928446 8.566909630489103 12.028848966515238
Ga 12.845511094185687 13.903046523475872 7.773354093817938
Ga 12.887533380130662 11.259761780776996 6.612781339542021
Ga 12.648925133901564 5.124207465141153 9.958467117846999
Ga 6.104542493108555 9.315014099204847 13.188140199602856
Ga 10.209049372323962 7.773265899122694 6.8597582446908145
Ga 10.480559517718316 9.834147561419426 14.753897685042482
Ga 8.485155579800574 8.852239185176915 8.590467556781466
Ga 11.264311726061042 10.868910903022439 12.15751325488112
Ga 8.201573604994588 8.156502152177838 14.168387187342162
Ga 14.18709515214816 7.281212064235676 9.407342415126637
Ga 7.078073310260512 14.812133968290818 11.267138679157174
Ga 9.463659483182807 15.722841001098239 11.595772522758905
Ga 12.547881923253458 8.305913313685418 13.613576333636436
Ga 16.323172631335954 11.045913140520193 13.072259217681097
Ga 12.308195347382732 11.765871447207461 9.607455982402186
Ga 7.506249105786744 9.023036886052362 10.958955331756083
Ga 14.60848761270266 9.720846729370164 8.67742866846731
Ga 15.73190662336924 14.499652438217487 9.152812192793569
Ga 7.829724491648613 13.356088337652972 9.158536808491641
Ga 11.794976851955871 9.351242962981985 8.355169565730762
Ga 8.424168845533144 10.943498405252228 13.565953520079828
Ga 13.62665131769049 14.005098804108412 10.729047575061665
Ga 11.057379217243538 6.103663479318381 12.021236598242933
Ga 5.459670930249281 11.668778904367155 14.093683025962068
Ga 15.310979346049493 8.68947958114717 14.430752121843556
Ga 5.078319926656135 13.494897678731512 12.180868695150217
Ga 9.608780384860333 10.920446740006406 9.880133842647558
Ga 13.592255153390731 16.166531836945726 9.041833251550184
