6
Energy = -11.52412663 eV
Ga 12.165226399133081 10.834848266738794 10.23940494667962
Ga 11.509962835670892 12.645310974182596 11.820741589474665
Ga 11.038175194072643 15.536109109120668 11.595508609139149
Ga 11.973018426348672 9.613475766236203 12.465210127712341
Ga 10.752823686190506 14.120469024658393 13.767529460148605
Ga 11.305639460035044 11.39887975336976 14.065978499397957
