6
Energy = -9.15879448 eV
Ga 12.779808387939351 17.12117538407513 10.673989333760447
Ga 13.097701786329939 15.0733679531274 12.285415838519338
Ga 13.557100703967262 13.077243823148462 13.619419922068909
Ga 13.641612959186054 10.98228675191861 14.861762554627813
Ga 13.349461588823543 8.855620779496878 16.030626889904443
Ga 12.928080982031325 6.591187255171846 17.283309768593856
