6
Energy = -12.42865436 eV
Ga 8.662550883997843 5.984128021894355 6.511449971674237
Ga 6.281105862254744 6.022446704601371 5.273513390099899
Ga 8.272157581240933 8.379770796412954 7.330017366808189
Ga 5.888754223075637 8.416861884018239 6.094712548822132
Ga 6.069279269457261 7.574953621461318 8.636676214255905
Ga 6.4590723998660975 5.179861243150627 7.816856045416712
