6
Energy = -12.24464963 eV
Ga 8.76175763440631 9.887513058975129 10.994945832590627
Ga 9.559042151637952 7.794823435479252 7.676590078982375
Ga 8.755172071945967 7.41349441301301 10.239617801480595
Ga 9.68645588288815 10.381063586779401 7.727011084669916
Ga 7.544322093097673 9.628314591722377 8.808121124036191
Ga 11.071029841351155 10.195249513575716 9.899694674749227
