6
Energy = -11.98345322 eV
Ga 11.125052775106564 7.139912039128558 9.200946643850058
Ga 11.912477649761934 9.618148244296346 9.271765227580136
Ga 9.507109947736808 10.33063627198699 8.884815687954857
Ga 7.113344535275308 11.098485271253185 9.200946643850058
Ga 6.325919660619939 8.6202490660854 9.271765227580136
Ga 8.73128736264494 7.907761038394636 8.884815687954857
