6
Energy = -11.33008333 eV
Ga 7.292433018587906 9.157144451507113 8.045512459577596
Ga 9.791426247853451 9.519378576853772 7.628643539299539
Ga 9.386562884089193 10.512813276214514 9.96830074728826
Ga 12.0244359413619 10.771335929331975 9.840207519765325
Ga 7.52623488349175 7.995310557451295 10.277412519498107
Ga 10.084429385089672 8.073390898101483 10.386758953055875
