7
Energy = -14.49298036 eV
Ga 10.603735139811233 9.34029585303878 9.980858324680264
Ga 10.477474725048772 7.398327978051742 7.962937692815157
Ga 9.313625524543788 7.039885949101449 10.248604893110237
Ga 8.50179774664302 10.448371398148144 9.297608641973637
Ga 8.897155439055359 8.961136766683259 6.871672748816867
Ga 7.431137937806315 8.053620831979833 8.995272468159966
Ga 5.890826125934706 9.84759445186621 7.747923784071648
