7
Energy = -13.68215683 eV
Ga 9.603997377082163 12.64651145568669 9.610525251811657
Ga 10.99908406785724 11.00479521729738 11.009411691376597
Ga 12.393881887600514 9.483297418988272 9.472046813569387
Ga 12.410574577375206 12.526886797940424 12.530518664079393
Ga 13.870011325111236 10.997957347203096 10.999655224084897
Ga 9.599400806274971 9.347949908661796 12.386509952069467
Ga 8.13373040842545 11.003282303949124 11.002012852735389
