7
Energy = -14.49827413 eV
Ga 8.924630332394763 8.077635475548233 11.030035126693816
Ga 9.07768432409602 8.775186950557503 6.269586687161696
Ga 8.243152436491632 9.183185996345472 8.768756751760977
Ga 6.808246700484381 7.039673085956831 9.639396117696181
Ga 10.25427689831258 10.663045017645379 7.858777000145908
Ga 7.140232639639588 7.259251864238895 7.078965111825202
Ga 10.532062331493423 9.982307272620087 10.334768867628487
