7
Energy = -15.48245634 eV
Ga 10.449945614414055 8.367187387770079 10.30155101483968
Ga 8.75753934330716 7.23925270698691 8.785058657406488
Ga 8.679613482354045 9.119241001907744 7.105859872695182
Ga 11.096602111540927 9.61960173570297 7.947387060287409
Ga 7.700417048046747 8.509217392993152 10.874413041831593
Ga 9.77491642597903 10.819562817985481 9.930433143068496
Ga 7.48680328363757 10.358576144491009 9.021864398395753
