7
Energy = -15.47992872 eV
Ga 10.285930970772954 8.003734813556322 10.466520024727535
Ga 9.100655654114457 11.225221123822195 8.597534817579865
Ga 8.468772242661165 8.963795002563277 7.7025402286896565
Ga 8.506166304815046 10.756687474234118 11.158653851329749
Ga 11.034978507056223 8.554272105498352 7.96753617407671
Ga 11.037861140294247 10.406180720536307 10.04294385704903
Ga 7.829001859283196 8.445791967860195 10.145935797805185
