7
Energy = -15.49343768 eV
Ga 9.484902760967342 10.977835676486297 10.837656706961473
Ga 9.095843790714245 9.972771783988152 7.407617461010344
Ga 9.926517779058237 7.4725073679322715 7.890206650864936
Ga 11.074773472293217 9.8942685416407 8.956162979153316
Ga 10.03787537848751 8.370009249831192 10.796534008459806
Ga 7.4774827823842 10.320182947570142 9.333760085030304
Ga 7.918256031775385 7.815330949766365 9.59287413991456
