7
Energy = -15.49666757 eV
Ga 8.950146343532346 11.494792196348396 9.012058517353339
Ga 8.225306922249548 10.047728637875903 10.97614735770291
Ga 10.898030631255653 8.53962066643655 8.634194472481967
Ga 11.45489906416294 10.999535718401065 9.519905558691976
Ga 10.532357896522532 9.084084843190645 11.156094211335251
Ga 8.358902482522144 7.612023604948518 9.888268857486239
Ga 8.645334845974114 9.257994927164322 7.805014933279373
