7
Energy = -15.49614102 eV
Ga 7.3725989174745 10.07245294118499 10.032213562936251
Ga 8.681800561611807 9.734246506717513 7.808357488765595
Ga 9.241606294997197 8.489343937444456 11.108705555700173
Ga 9.675951748579454 11.059134871451338 10.97553406714718
Ga 10.104506693522666 7.878779041646533 8.833528212228588
Ga 10.659656685393696 11.098760700812706 8.668308079903117
Ga 11.906428448566242 9.300945114540076 10.206325376914528
