7
Energy = -15.47935765 eV
Ga 8.23018673020051 8.863492667182195 6.865221149964771
Ga 10.586103403017686 9.756527456719907 7.585641274888053
Ga 6.9190016874167615 9.623267273539788 8.948078679121785
Ga 10.302988876891222 8.366781635794219 9.988217335697614
Ga 9.128152218711797 10.60149764166679 9.652546314427289
Ga 8.995361033995197 6.95210396654397 8.304707945394608
Ga 7.6817076226953755 7.667861310389439 10.508613587606062
