7
Energy = -14.68108338 eV
Ga 9.97734205627318 9.899407311198184 8.055678243133912
Ga 9.942871485380294 7.369923763454491 7.021728747158621
Ga 9.145462572701168 6.380231422752704 9.20247992738678
Ga 7.801896866080555 8.887876581686731 7.010298657407763
Ga 9.193861585810994 9.106716768509797 10.317862774230012
Ga 7.1154154523115585 7.982891268974676 9.26145963804788
Ga 5.1250144187641515 8.69331061433114 7.475315097337439
