8
Energy = -17.62380086 eV
Ga 12.066954950698939 9.141396053333846 9.719546089723782
Ga 10.499930547844478 10.11596250899978 7.822655408054358
Ga 9.539207964443197 10.200056501385284 10.606573940249719
Ga 10.082880034532193 7.401063025437408 9.883915652414228
Ga 8.153293851903623 11.103651461566784 8.607425807222763
Ga 8.911292625473166 8.094929504021453 7.693705264249896
Ga 7.714339988552072 8.353860756650834 10.672684390769446
Ga 6.514576462046456 9.092830520160888 8.491384720823632
