8
Energy = -16.93079895 eV
Ga 6.912992303615351 8.970190318634435 7.3602504552084715
Ga 8.34146187042618 7.272268450986683 8.984389822329005
Ga 6.913837236555733 8.990490353068566 10.602773421703276
Ga 8.340072646391363 10.690398294891624 8.977511398726879
Ga 9.619183790968298 8.983526796221716 7.2682675128803504
Ga 11.051673659104498 7.365402124945255 8.972733303000158
Ga 9.61945203908479 8.978778298314891 10.694403356003281
Ga 11.050631386829831 10.598318702100423 8.988907256937297
