8
Energy = -15.48727341 eV
Ga 10.452697978687379 9.312701657527356 10.103038832432146
Ga 8.377006363961238 9.49496028921632 11.983235371013818
Ga 9.249991760306187 11.806109724167094 10.580475803717516
Ga 11.42024037260899 7.632157027017016 8.205455715564382
Ga 6.841732745387532 10.566886963244631 9.907218725941394
Ga 8.839406992366994 6.5325609486841065 7.732038335214234
Ga 9.752132619807254 8.75983407941278 6.197052203293684
Ga 8.292824689747574 9.129778869886067 8.529091644097488
