9
Energy = -20.01060209 eV
Ga 10.949636890337565 11.675928080230635 9.394668848267724
Ga 12.637064452717006 9.982434168707044 8.399923260308963
Ga 10.435219457789687 8.508866007181615 9.378590361577421
Ga 8.438094560002366 12.391504202277423 9.944190001608966
Ga 12.689041460913518 8.32269904715862 10.616288042494832
Ga 8.545014762977587 10.115516745419553 8.657157624371823
Ga 8.17925308334818 8.715917596616832 10.896656365875224
Ga 10.735101973099962 10.223709974008091 11.508740997403597
Ga 8.31770948436065 11.003728418584119 12.0888923613569
