9
Energy = -20.22448273 eV
Ga 11.283354366319463 7.393573446920994 10.498166389623025
Ga 11.343234148407115 9.879419187182924 9.876771354662454
Ga 9.950048096878172 6.576078259374633 8.463039226420559
Ga 8.847903703231331 9.036579671854364 10.893856774452226
Ga 7.878168961233629 8.29293453940992 8.707182771738598
Ga 10.21729044184486 9.188463813581587 7.6539740748869125
Ga 6.350523850934317 10.609694367776063 9.665476599493466
Ga 9.305030213953437 11.540336317025503 9.910754266827125
Ga 8.189980186948592 10.86499623397089 7.680557449469221
