9
Energy = -20.24363577 eV
Ga 7.834742617974287 7.090769974343451 8.876924810735918
Ga 10.974930269114543 10.752398518644249 10.622616821135075
Ga 10.375241544772393 7.645035918762591 8.787710686696082
Ga 10.460991380517523 12.510771693323187 8.61902774883486
Ga 11.611487147021025 9.851062779541506 8.27211564303091
Ga 8.815838158438211 9.70011694219082 7.8152214295633335
Ga 6.98891715170211 8.515287771655576 10.838187423189082
Ga 8.309092114700565 10.717972134167775 10.02710473049211
Ga 9.715394270196589 8.555958095545897 11.089936924981174
