9
Energy = -20.199185 eV
Ga 11.628746307932689 11.458029386960389 10.022409812559276
Ga 9.307411639973875 8.857415315223552 10.32295810787524
Ga 7.742531202394506 12.131297912398898 11.459177155399548
Ga 10.636942678320862 9.040704530632093 12.611935067527854
Ga 11.2560269936461 8.693700637894894 8.488483901479713
Ga 10.420784833008963 10.715546572578882 7.181781005647405
Ga 10.147898483458038 11.466665107906646 12.163533829698759
Ga 9.043006748112237 11.196026897717696 9.344889328020066
Ga 12.43932589872198 9.097658580936994 10.744332617043401
