9
Energy = -20.23574659 eV
Ga 11.012070441537164 7.6980832480749255 8.052088948965626
Ga 8.67080342957181 8.99120011374343 8.48271452638013
Ga 8.553815193268335 11.149250392514752 9.923930328792931
Ga 11.618665058846997 9.532037912409626 10.70780576604609
Ga 10.598139598756232 12.978382090786024 9.947493412374605
Ga 9.453104658487613 7.800008149621869 10.645075838242025
Ga 10.896201965164702 10.646909544135852 8.598767402576563
Ga 9.236140437426714 9.954950977609764 12.097977572430013
Ga 10.86035980508762 11.93988931518883 12.284461755786811
