9
Energy = -20.00823566 eV
Ga 7.63136171210754 9.860553439708198 9.700742070166346
Ga 8.817127804804908 7.768894386611 8.531072206184104
Ga 9.974887744867923 11.654022910772866 10.160632989071091
Ga 9.848086706722901 9.537523012614713 6.963840994931396
Ga 9.43574512333234 8.61495232999831 11.04845500778235
Ga 10.529889200859166 10.79298289898044 12.538370872929585
Ga 8.54575136981636 11.52587209987018 7.914552619389609
Ga 11.90228902302937 8.547797050688771 11.775923782393983
Ga 11.182661215081607 9.588819696265595 9.184259933437858
