26
Energy = -53.67456199 eV
Ag 8.189045216804942 15.112462558372762 10.223460426490917
Ag 8.652630023733611 12.30571377739297 13.879333162401021
Ag 8.176011919136053 12.478015956368871 11.177550454859523
Ag 10.459178409386931 13.518136979656871 9.741689516620912
Ag 10.25213179158565 10.199563033620123 14.754402150063346
Ag 8.72452021637022 9.899051362810232 12.343626501068435
Ag 8.08368565210706 12.946977670605209 8.381061619704322
Ag 9.828449956293067 14.448094747937727 12.370982881907615
Ag 13.05136974935282 10.152109253032593 14.1379374390461
Ag 12.48287877174534 14.163451131868761 11.470636096248516
Ag 14.048350046361922 12.030211060788302 12.282067613001914
Ag 10.817561110283565 10.81507450061665 10.903212713618254
Ag 14.90062805185018 13.677005523745988 10.209355934865723
Ag 13.740720985254741 7.541574272646567 13.415997612676035
Ag 11.435298391638447 12.33948049480396 13.352179027310362
Ag 8.318811028952064 10.283791051182963 9.481736280159565
Ag 8.168521447538378 10.767956184168666 6.69771262762957
Ag 11.17177472798824 8.460073049966553 12.847371994380724
Ag 12.94300069397813 11.867524582378133 9.601772790722405
Ag 13.458425692615036 9.502645086525042 11.401749863503516
Ag 9.72045094524822 8.629897777613973 7.583173494615004
Ag 9.925652199872623 8.080925151222614 10.401725724571472
Ag 12.181454056628255 9.12098297576798 8.98190484205234
Ag 12.528824741247071 6.911188573180703 10.91383655009392
Ag 10.555913936694672 11.332876077421762 8.045302143071853
Ag 11.27449312818808 6.505000057158772 8.490003430172136
