55
Energy = -121.82683101 eV
Ag 9.137863347659316 11.323037606994166 15.912303867754273
Ag 15.56506497288436 13.671822043569568 11.842336280715756
Ag 14.421646916157952 9.624303862423133 15.459975994720198
Ag 11.270163929625843 11.808546146681314 9.764165870329522
Ag 15.62643684215962 13.98579523440976 14.70767894840932
Ag 14.263917073115211 14.633484664671581 7.728718125120769
Ag 10.843764610676486 11.536411629574632 13.565080224531243
Ag 8.83719018415739 11.666119557608083 11.494414389689487
Ag 13.14143476577858 14.409354046806708 10.352217392155277
Ag 13.830989508987145 11.655838913906683 17.442516487905323
Ag 11.181237828148765 12.567543712870707 17.332331216372832
Ag 13.15350482129752 14.585574015631966 13.246568481740962
Ag 10.532010165176484 16.05118870860931 10.21302964874411
Ag 8.368855678503417 15.078722727935446 11.86400397430473
Ag 13.194315454708864 14.644475896787107 16.231156031759177
Ag 10.63116295128264 16.521374303907297 13.027276150894627
Ag 13.971644462231733 12.074381537583283 8.963144020661517
Ag 18.31931863280771 12.54921544159472 10.711487432762858
Ag 15.952486805230816 10.959175779805971 10.577068357979751
Ag 13.242129573990992 11.970408825267292 11.902822672286499
Ag 18.180347484525463 13.291697268615474 13.333101835265959
Ag 15.734776114437393 11.424873414550193 13.551278047613895
Ag 13.278244236175107 12.214059668541777 14.772791354978995
Ag 9.12375574483489 13.66195920000461 9.53332756365917
Ag 16.415274446804123 11.48846373568012 16.391394509038822
Ag 12.83261238703847 16.788891795136703 8.799711683779936
Ag 8.751781070648645 13.990334391210034 16.707488822700885
Ag 15.352244189541409 16.144120633392635 10.072170902606786
Ag 12.990812091230321 16.958395833712885 11.616723425983492
Ag 10.908831408092569 15.24653307346574 18.02077946403698
Ag 15.420610371105463 16.46045330174895 12.939279737419064
Ag 13.099039872152856 17.109107361931308 14.492510616006548
Ag 13.182461542949328 13.940508896018775 18.957794693056297
Ag 10.733849128292569 9.621427821100841 11.387974143792691
Ag 18.034425101012662 10.356147594624534 12.415880835436957
Ag 18.05947639257511 13.783360509748242 16.145619793247775
Ag 11.683013394055202 10.135578820321896 15.93545012968478
Ag 18.851068335271187 11.259888896597433 15.044274204507524
Ag 15.639040915018478 14.012432825227101 17.583187583163262
Ag 11.479341233876362 14.208015121501695 8.138625610811498
Ag 17.703551531533297 15.344421872133106 11.408331074937767
Ag 8.395370318991583 15.788557990631132 14.577907522782668
Ag 10.79843021698031 13.735823327775513 11.872708663862454
Ag 9.027517804991286 9.596566257671489 13.660760545034256
Ag 10.665208951848363 16.825073428582364 15.816554066837508
Ag 10.802955956642808 14.103402788750705 14.814967567363965
Ag 8.28353991297438 13.037487017110049 13.878953783714342
Ag 13.064833057214804 17.10284635930667 17.38759982802105
Ag 15.312847451674708 8.912014566984071 12.515085294982095
Ag 13.404152007262656 9.647977456409224 10.455015138449346
Ag 15.490677892118951 16.473641171868948 15.941986211562293
Ag 17.04502760244482 9.167161228595555 14.759354140281495
Ag 12.671837462854707 9.35438417156419 13.326338205044872
Ag 17.743492417860562 15.900580898559246 14.2860535385185
Ag 16.38253460968275 13.625157823583848 9.148845072272898
