49
Energy = -106.81579995 eV
Ag 13.66177803099046 6.192856399262463 15.81423039708474
Ag 13.313471781751142 7.299644686632324 13.275329063282264
Ag 14.91157317822884 8.612765098606486 15.184264387164959
Ag 14.999571378356444 9.686471208177986 12.54604748419307
Ag 10.715053931676925 7.32046481062081 12.007199189462522
Ag 16.23159815123709 11.047716014976086 14.606522076878603
Ag 11.124907624579881 6.2666175543878 14.613775944237846
Ag 15.005897598491186 10.568888182236305 9.78302393348226
Ag 16.27592615672225 12.070343778979902 11.878867682423548
Ag 12.990477837531111 8.706585126346758 10.907360705223946
Ag 12.158936260066513 8.539971062792194 16.072788306672695
Ag 16.097962357604032 13.066108396356931 9.221456656526296
Ag 12.40257843099171 9.986119169064224 13.627752630982043
Ag 14.556698045569014 15.394160281838321 8.740949514239533
Ag 13.683013927821282 10.995763095351357 16.021833657623365
Ag 11.414010102839843 7.363994534159551 9.129042382261053
Ag 8.810049093649274 7.706141570333149 9.98657680617011
Ag 14.052449767650845 12.522634577867038 13.66007039387026
Ag 12.79574346180856 11.518737437998261 11.258073413708727
Ag 12.615208288467816 9.991424203367611 8.448108199859455
Ag 9.87440486821962 8.759150360504803 14.364617391128629
Ag 13.186112039047455 12.8467674946458 8.789522834089814
Ag 14.868124622029814 11.5320181670581 7.113880592542606
Ag 14.34735679177655 14.040452378324497 11.232837975584273
Ag 10.820716276945689 11.042998319317716 15.787097341220054
Ag 13.556484256155649 14.128462956240137 6.375621742090772
Ag 10.260463767720374 10.227653794870479 11.762839412256298
Ag 9.870822940872126 9.410961787642695 8.010490266938676
Ag 11.130573790136744 12.566503881624273 13.285434999095866
Ag 7.924743339529387 8.89454959955668 12.338817409537054
Ag 12.823299540292846 16.419942240657317 10.725255838114892
Ag 10.603621762121339 11.757172286610581 9.36485412435346
Ag 12.332777288603793 13.49644550955984 15.73369723212715
Ag 11.43203717579024 14.031794381146868 10.808788786551624
Ag 12.561031546991568 15.009920637524301 13.277198591839497
Ag 8.567621894569713 11.244118222761472 13.99326137545394
Ag 10.988639746789453 13.060275915919009 6.88967743752001
Ag 7.982622083506827 10.391928560163738 9.87169193323791
Ag 9.522838948262676 13.599297102533003 15.286597734609902
Ag 11.775362952918922 15.393386183457602 8.254383864105918
Ag 8.900422043367143 12.769629441991562 11.4025484212584
Ag 9.73340144077389 15.176692426096373 12.859254945679682
Ag 8.505333514266585 11.858292232028557 7.5041524546720115
Ag 6.544209928154842 11.436292786298987 12.049372434083903
Ag 9.14672243283041 14.314468808143674 8.744287010654388
Ag 10.058307205926617 16.486339819417527 10.279384844999868
Ag 7.324234539894476 13.799345893404467 13.48523262327837
Ag 6.8000369815407655 12.979383011143735 9.504503376289021
Ag 7.592680773114728 15.292945240263416 10.956819732372288
