32
Energy = -67.20414961 eV
Ag 12.48201447879729 13.385458635117853 13.257223411836824
Ag 13.982169117218238 12.182633210179267 15.346152825522319
Ag 10.856064300419808 14.501539637868582 11.156818189091597
Ag 11.32659050120643 11.421760654550015 14.924383994288299
Ag 9.720960192461801 12.885181982265843 13.127278638097197
Ag 8.705914803722083 10.639767370639712 14.441409660539938
Ag 13.69558495187239 14.627140850044206 11.02859049940576
Ag 13.105294217456517 9.307278462219351 15.329729068188826
Ag 7.007419530932093 12.236187837462293 12.830012361701066
Ag 6.311237886025375 11.536179419479085 10.229272127746015
Ag 8.687383218110567 12.913812608225468 10.487198418568347
Ag 9.677207740864196 14.718539756668799 8.575244929228324
Ag 10.424221242749983 8.838418951346913 15.628506336404067
Ag 15.258338553849063 12.926708612433204 12.751833039923351
Ag 12.00035089842287 16.187428726738826 9.291391306879465
Ag 13.534095508241377 10.766598790991294 13.01587999378499
Ag 8.672825847280146 10.311290905884674 11.654472822099908
Ag 11.33717113340515 11.568778987379746 11.135720998094905
Ag 15.82956803205874 10.014283966135114 11.713573725378765
Ag 13.934312988043422 7.941963386418685 13.01819915748984
Ag 14.134257527229147 11.902454632320243 10.386657683156088
Ag 11.193809454084004 9.172486221573736 12.888012386804409
Ag 12.237327692328517 13.447118568256224 8.864953234928544
Ag 7.4586127305822565 12.946224511159263 8.026552681446635
Ag 12.382932256883027 10.714515531749143 8.467296867725864
Ag 8.310163619998999 10.299245866743389 8.82369310732045
Ag 13.350798943830437 9.229844658812 10.665926587331617
Ag 10.484186206982278 9.0054573996237 10.059350662771475
Ag 10.095503577272472 12.096043063679662 7.64942662680697
Ag 12.09783218856136 6.859966073933427 11.20099281329873
Ag 12.3809041179344 7.832608281240451 8.46289708346993
Ag 10.354527337676085 9.326739683795024 7.16492718300412
