32
Energy = -67.23051868 eV
Ag 14.275766517481017 9.719585588482627 15.596844121786686
Ag 11.596431231306358 10.173718591150196 15.181951364075974
Ag 10.307066928022614 7.73339602427924 15.249448627043517
Ag 13.464280838708351 12.17208648218516 14.436527243687797
Ag 12.805067052050383 7.888847346327017 14.039457382500979
Ag 10.71591090085643 12.295276957437638 13.568170881209385
Ag 14.27833413571737 9.945262293758296 12.798103419325669
Ag 9.287391948986471 9.819262995969058 13.631157950740727
Ag 11.621416448570395 9.986130203534271 11.863931205875238
Ag 12.392632097128544 14.55662047646334 13.28464613688641
Ag 10.432933525696093 7.45742084514498 12.479485631926638
Ag 13.131742639583932 7.654699101975429 11.275305447671117
Ag 9.645356012605475 14.508785079829835 12.220134734856419
Ag 13.244001141659613 12.427345571458494 11.650358560280944
Ag 8.281739251293116 11.995275977680084 12.22641192030612
Ag 13.803046511367098 10.160408513886264 10.05159678178463
Ag 11.248231125034458 16.830359913861223 12.123355556186972
Ag 13.187887550940744 7.8972316533731695 8.521864211050351
Ag 11.210983630865755 10.022237565408304 8.749595628070177
Ag 10.660783031365234 7.4490471623688315 9.717500430125199
Ag 10.544039659321877 12.242208975131037 10.558768863718583
Ag 9.537036530197714 16.116656797765096 9.976119377144535
Ag 9.110133359076722 9.557723591901052 10.78664582193889
Ag 6.960765938234168 11.027910060100327 9.933352844750333
Ag 13.52765003988724 10.452485836754288 7.231466863885297
Ag 12.788666441568731 12.613349557352704 8.848303619989434
Ag 8.696421396723775 8.785616014409362 8.142835077046616
Ag 8.964631268793877 11.603396488559879 8.16485655359614
Ag 12.068931623899031 14.790424912084966 10.447468253196211
Ag 8.111471116278155 13.68668179948935 9.953867779168542
Ag 11.262984658315764 11.952891990686746 6.589239488934294
Ag 10.418818572514768 14.072156400545733 8.259449401754265
