22
Energy = -44.24028499 eV
Ag 11.917351734690648 10.085720820667246 13.701253389488182
Ag 13.070838709986367 11.531707819472926 11.599421026687773
Ag 10.237871658389347 8.27086032626233 12.267652385749765
Ag 11.65057754154487 7.635651990873429 9.407688488935639
Ag 9.050466005695892 10.092739093468191 14.044433970109125
Ag 13.034790804034788 8.571557182772446 11.672414720249135
Ag 10.371678696701997 12.061709780166519 12.533282973736
Ag 13.578473918168685 9.770007450222337 9.23877377261922
Ag 11.733261185673898 13.920524273610308 11.035675674743025
Ag 7.346804968130914 8.25827052450042 12.494446834321876
Ag 8.753042423115168 7.821179940883637 10.005238282996173
Ag 12.277903004407213 12.231054394974063 8.845872248464039
Ag 9.713136268897696 7.728522822272543 7.360397083606245
Ag 8.29039040049517 10.580158553545948 11.404156987518393
Ag 10.917197014732066 10.157604577657615 10.318838248192277
Ag 6.964230606114674 7.91645806795337 7.73861243363988
Ag 9.439480393238494 12.568563972008889 9.873011192121668
Ag 10.71231226846276 14.591056798599649 8.517306474577442
Ag 11.405580905911464 9.843999782080898 7.498974693032773
Ag 6.2893405656071915 9.231583617514104 10.081838608654296
Ag 9.986038724807099 12.220248472105258 7.1450788062157295
Ag 8.579571364137575 10.184393900859606 8.464804110878449
