54
Energy = -118.75537895 eV
Ag 16.467750491662052 11.646438581362819 15.458968660906152
Ag 17.492762537952952 9.621826251791795 13.527433400012404
Ag 16.91971520744101 10.417855899759086 10.95921042831937
Ag 17.47313162543605 12.470480876847814 12.976860284857782
Ag 17.020478444533335 14.443476495336572 15.016966182029053
Ag 14.70049809371169 13.654190525413137 16.47697941159135
Ag 15.397084468420775 8.950647477730882 15.170530012254636
Ag 12.682230833953852 15.464073110916438 17.048622013505074
Ag 14.694005964765644 16.252042338381756 14.948105497132696
Ag 15.151980453520899 16.00631214227575 12.131561013022138
Ag 15.57790859842435 12.910697741703116 10.951814219350233
Ag 13.770428126241377 11.045971604601316 15.888470629680004
Ag 15.885836955651673 11.414925509253703 8.545002374984328
Ag 15.027429872251574 10.932800326542496 13.064015724391954
Ag 15.17864838471562 8.178669634732024 12.165304098359918
Ag 12.842610345502544 17.479596328631505 12.76736549900596
Ag 15.232314216313098 8.842987871979155 9.462341076655532
Ag 15.037693519312294 15.16279616380895 9.411621889405446
Ag 13.185152913792976 10.637414833920339 10.95199474794414
Ag 14.825863790833214 13.645157533228428 13.603572245820173
Ag 12.381380506770649 14.954699647980185 14.123386021092134
Ag 10.111993436842045 15.277058561330083 15.687747572785247
Ag 11.891757910843005 12.991374089593728 16.145231347155526
Ag 13.946439148944425 6.7445027911920326 14.385955497176829
Ag 11.960249212315434 17.502385821652158 15.356297659065278
Ag 13.602106112462264 17.416429269811537 10.141790032505954
Ag 12.2847199587785 12.154300685631084 13.251849526068563
Ag 12.857213131187665 9.245026040958505 13.520402830208353
Ag 13.049178771520149 14.275375503331372 11.371440067153424
Ag 12.799136501878401 8.419797193203923 16.319786506674433
Ag 12.641943105209226 8.068784832633083 9.907734406967736
Ag 13.251296105984952 10.265171034456943 8.090489496556781
Ag 11.056130265010125 10.41793913890821 15.442505999040824
Ag 12.304468722456614 15.37712754702858 8.633716876188718
Ag 10.924105866280899 16.853591219926074 10.676182653138063
Ag 10.025069313635854 17.01916392913267 13.393736813426495
Ag 10.980130754082678 12.418245450484426 10.523223293507394
Ag 13.580821698225652 12.868702822245044 8.94380768308769
Ag 12.286514013342329 6.691883478109709 12.238841850585317
Ag 9.665883540577516 12.648559972810821 14.45979081963124
Ag 10.67332990980481 7.77543073966231 14.422318336951943
Ag 10.353239340394795 14.444957447290639 12.263939706692025
Ag 9.708195415706124 14.720008960266565 9.232419947840102
Ag 10.690552247325744 9.991310751934407 9.222327786663344
Ag 10.572067190182533 8.811715119508746 11.763547120296316
Ag 11.20338079613284 12.765399047487314 7.677120027217177
Ag 8.866894659706416 9.915520051647611 13.821358641499698
Ag 8.235541223678236 16.171062688347877 11.32514825424706
Ag 8.026267060135961 14.87418718725416 13.8876140118515
Ag 8.63060557043544 10.700760642782257 11.176496302155801
Ag 8.76331575349063 12.007331838099798 8.694304236237155
Ag 7.198198211138153 12.14551508685958 13.280921860951343
Ag 7.963458737678641 13.410511422522605 10.930149589328872
Ag 5.872208626679802 14.506259437973263 12.220594457412068
