29
Energy = -59.71161645 eV
Ag 13.712518895103441 11.735307889193113 7.3184701242463985
Ag 10.528557828858412 14.280062153264478 15.42256363074183
Ag 14.288109881508515 9.337667588237906 11.750532771649796
Ag 13.633388106207493 13.756003958554249 11.678164259851748
Ag 12.847646822006327 9.992028472025522 14.06634432589622
Ag 8.816187564140563 8.195442584069527 11.219604187337435
Ag 8.454627124477417 13.21760319049943 13.375475140157487
Ag 14.764901864258213 11.554025870299784 9.858820702071986
Ag 9.532997812200263 12.942731196243422 10.676789858943007
Ag 11.725188697724978 8.454209824609359 11.349804271292202
Ag 10.521560411446172 11.652203867477736 14.714785294541539
Ag 16.32682809344957 13.422740981911414 11.029081109416722
Ag 11.534361110783063 15.004402750656284 10.162507339533919
Ag 8.064304738272646 10.819028442297078 11.867069903503225
Ag 8.356844301365083 12.757702386448939 16.171108904718626
Ag 14.162511770480164 14.161990183671316 9.02388029804178
Ag 15.4948244202853 8.887586031359366 9.347476916952516
Ag 12.809399912846843 9.710789807925458 9.122845539459362
Ag 12.988350166486644 12.898020048257758 14.343745419829093
Ag 8.997542544196296 15.452015780811966 11.630026997013488
Ag 7.877768800006288 10.57454085002848 14.578645881261275
Ag 11.071111108530795 14.039220346618098 12.7392539353319
Ag 10.090792508693573 9.381667055447085 13.332028128696622
Ag 7.671622180458679 11.475611657306525 9.263184695154333
Ag 11.88011850373826 11.367774879203035 11.941405772771008
Ag 10.1278166765974 10.309376664879562 9.897819552781806
Ag 16.894452472096372 10.537035989481952 11.257247808875746
Ag 15.06103309951989 11.703273142855567 12.999228959387592
Ag 11.944768335802047 12.405703306031569 9.293691867405688
