45
Energy = -97.34092299 eV
Ag 12.100932460325248 15.12311296080745 10.326148294220685
Ag 15.30246403390576 16.04216295865084 10.316443547352032
Ag 14.4332309062954 13.531532569900723 9.52754696199072
Ag 10.604456745095804 16.710228549536794 12.343673571619341
Ag 13.313844067243094 17.188979562153126 11.811326761403167
Ag 9.176935750221554 15.71725946501547 10.118352573015635
Ag 11.776193393502007 12.719533295189256 8.583937304572636
Ag 9.113634846703887 13.72029289783701 8.174538364829134
Ag 16.858736255535135 13.890499669601928 11.256136387301922
Ag 15.227715173403572 11.682124063787114 11.594762353735504
Ag 9.963701296463146 15.682733830685933 14.947723116651629
Ag 12.575054133667997 12.460486486023758 11.263392632784067
Ag 13.611193989174195 10.647941593411757 9.360107060395524
Ag 14.297284963250899 14.524829548967187 12.443406371272882
Ag 11.359003549702875 14.122216782672782 13.091532774288035
Ag 8.469314858251499 14.725431843007648 12.704910604701775
Ag 9.619224039514007 10.91020469342381 7.752436492034253
Ag 9.886880301334953 13.120680822325584 10.81151143233015
Ag 7.165829812817477 13.590912713900451 10.313099671451537
Ag 12.767820109973771 16.16636705740991 14.352044674368353
Ag 6.942285614163278 12.103816063916685 7.810152070235944
Ag 17.843923218054325 11.15387004191642 12.114805993432082
Ag 11.531080219242742 8.794378843752666 8.31998854409387
Ag 15.791808454987653 8.958530104480918 11.435351324553174
Ag 16.41059878055557 12.852028966384758 13.876051125400574
Ag 14.579263447984491 14.284902554875348 15.356397477058069
Ag 7.917977950906185 10.851607340206472 10.024634155678106
Ag 13.695902573442881 7.916577734268339 10.000491302229426
Ag 7.8895263026523885 11.936324273616245 12.607234392405315
Ag 10.755264907581429 10.454003515671706 10.267999428684094
Ag 10.67942764971573 11.3008440598007 12.958954258604301
Ag 13.416232193593716 12.150392078930826 13.932440763783307
Ag 13.127255542041954 9.852171857378002 12.152254306684878
Ag 9.337012582895133 12.946249445644884 14.907088073929195
Ag 11.18215087026892 7.805876891053929 11.120921932061258
Ag 11.90636183142107 13.76475145199495 15.88788031453494
Ag 16.04428296384231 10.039007611874984 13.957336822866006
Ag 15.008199025036683 11.609374835758823 16.122040081471365
Ag 13.584536866595236 7.298300699733063 12.817465792792165
Ag 13.601937857699301 9.221124128286629 15.008311518025522
Ag 8.831670662034549 10.153104114970702 14.720108354022456
Ag 8.917334723052855 9.214090519656413 12.054321434348552
Ag 11.460734544339676 10.960871625521769 15.66875148001107
Ag 11.133649013686096 8.618913772590899 13.84021413459318
Ag 15.88940275327576 9.036634072198213 16.53185072130511
