14
Energy = -25.66675565 eV
Ag 11.132072594787125 11.591392523454315 12.400152556504592
Ag 10.49540154669436 9.008316972873606 11.834014910274052
Ag 9.891890734423342 13.924459893422997 11.364177430960249
Ag 11.542647580947827 10.75171217863015 9.779900638561173
Ag 12.068731571522546 6.837616046969322 12.363727165710289
Ag 8.864939111584818 11.339891631489225 10.922872640067666
Ag 12.734171946621618 8.253065898937797 10.076065014952494
Ag 6.385428956686743 10.86670361171272 9.854297592524405
Ag 9.798201578510445 13.072509930041667 8.803777029088579
Ag 10.227663081909036 6.700317097228346 10.314277519608375
Ag 10.60032643156359 8.586612345112144 8.32846354357713
Ag 10.940307516767321 11.227913435582588 7.102559865332781
Ag 8.28318699664509 8.64359144901876 10.096548511030731
Ag 8.534387476103914 10.685460420470978 8.20539451320442
