50
Energy = -108.51866049 eV
Ag 7.637982521692231 13.935961842387929 8.739259214040935
Ag 8.654931387074665 15.297960040953834 10.997767639566925
Ag 10.395168588223619 17.49800749646857 10.379121918082694
Ag 9.992519604119359 15.504718681968129 8.406159534503685
Ag 7.766884148003223 12.666601519611921 11.419808756241599
Ag 8.27493559189981 14.463555497638682 13.710508192851028
Ag 8.046863313226593 11.225557373186511 8.831925646000855
Ag 8.79105879727336 10.859335781813055 13.374670203953105
Ag 10.397554634547816 16.37224994726774 12.952393199097008
Ag 12.607401072863961 16.607483831816115 8.757429211938318
Ag 9.825382716860595 12.85334255583415 7.114610708395827
Ag 10.090959669325239 12.96356302734856 9.837660416824603
Ag 8.753265149608268 8.569966492474313 9.042092910728433
Ag 7.398465350101644 9.78062002826609 11.156686559040242
Ag 11.613330758909667 15.02337500883442 10.837440248814358
Ag 9.538804484791859 12.460923711351404 15.464469020261932
Ag 13.14396091159107 17.135689494879365 11.576424747489954
Ag 10.195384459221856 10.399283599510671 10.843964830320552
Ag 12.317466474808668 13.777837172956074 8.23634604359222
Ag 10.427289142105652 13.135534833092052 12.73406819589831
Ag 8.55144893883876 9.848723333181754 15.996832245470417
Ag 10.784468033077085 14.966378956087965 15.263441212007304
Ag 11.670123840074103 11.027865963428102 8.494143463320539
Ag 7.52075920135903 8.448400232984293 13.724715914797232
Ag 11.700080975137368 10.536056726504324 13.204422634414312
Ag 12.839619024327181 12.526956635321344 11.392145713608565
Ag 12.31954416444295 12.689026645176531 14.95576500183669
Ag 12.960576253612617 14.925005852514706 13.370833682407731
Ag 14.293398689907823 14.738887003990595 10.119612264227538
Ag 13.253108974731981 9.897594327529935 10.7884416960971
Ag 11.437793461971898 8.203183995930099 9.528589138591379
Ag 14.392762285790228 11.984695685428393 8.878056802841
Ag 13.716395192058894 9.219895653714348 8.094948303404587
Ag 10.30722761512265 8.348540459907827 14.402551122048038
Ag 9.46477019506937 7.8235169064403305 11.693196193225543
Ag 11.327831777897996 10.384470604838484 16.180385591157357
Ag 14.440992993345203 11.111563415746526 13.559995916639997
Ag 15.808452942353533 10.958495632130704 11.115954399717314
Ag 14.137755861910293 11.09991154209173 16.353069125290386
Ag 14.775881657558294 13.799688827819786 15.264816856563616
Ag 15.355797137872933 13.702429193938464 12.549357939329461
Ag 12.194885778279412 7.744134058916629 12.378560198111112
Ag 16.70770802364922 13.387254433839244 10.07440912966037
Ag 13.995163446456427 7.26806058547622 10.234130842521907
Ag 13.128539276042382 8.69269872657143 14.907605070613268
Ag 15.81657235051768 9.082496353363924 15.313513809344366
Ag 16.72485164318055 11.81145169559298 15.056149636134283
Ag 17.3154991430825 9.802799807948627 13.14641389484697
Ag 17.819015338995175 12.419049314008022 12.438136578589527
Ag 14.947517619966515 8.425001623077156 12.637409579168443
