10
Energy = -17.69137401 eV
Ag 10.79036505236989 11.769049091369835 6.586264070965284
Ag 11.006422048938495 9.181260690920798 7.3690030482256095
Ag 8.94034173465857 10.807097446441214 8.505378232425912
Ag 11.649959641788962 11.402887215703352 9.152592157259186
Ag 9.073805719108922 8.050760083656343 8.934216876122015
Ag 11.58443378212832 8.75266502703914 10.078342123924681
Ag 7.465167940055689 9.704982627479701 10.539511378132442
Ag 9.940837783532196 10.834116341887865 11.167285257532058
Ag 9.477076786828691 8.119616870398735 11.750284655060984
Ag 7.158144725754125 8.464119820267154 13.003677415515973
