51
Energy = -111.32587948 eV
Ag 7.215583795238981 8.764137962903652 15.117826533959148
Ag 5.9680365932349595 10.551018904060381 13.427063801393361
Ag 7.829594103169333 11.521281447915676 15.265826692638878
Ag 8.150679457607973 9.09167758025611 12.459861307042623
Ag 9.220076747840785 9.698789323808048 16.836208920349662
Ag 6.825491568956663 11.399365489836338 10.948040262786783
Ag 9.843437849795526 8.038083026302447 14.582365076013657
Ag 6.558148150192053 13.278915624605176 13.324038206035425
Ag 9.356101751679692 10.371064629365895 10.296950248390438
Ag 9.005461360065347 12.272625309912804 12.509986219090942
Ag 10.959064289508657 8.032519788606596 11.21352321159314
Ag 9.524107239004739 15.740319348551907 9.486078893025919
Ag 8.858395956931915 14.033323886179753 14.815789832478144
Ag 8.744671361867473 13.129324608914446 9.82846067857189
Ag 10.30425858327242 12.2806815899888 16.489374702024268
Ag 11.736426546586955 9.939942277645464 15.736453546059247
Ag 11.741882776473059 11.814605521793 11.121098583535067
Ag 10.697607229020031 10.139675924461304 13.016039264705569
Ag 9.751795282909226 11.569988582621292 7.68535668443059
Ag 12.539545051254978 8.102335214224253 13.754900322247659
Ag 8.408762106799562 15.119610242191698 12.148307066036642
Ag 13.020799372058235 7.492044080338829 9.051746997328038
Ag 13.759698614055909 6.7517096090422415 11.608495958569494
Ag 11.674354519017871 9.940791465126857 8.85181899361007
Ag 11.355696162645213 12.880260742500948 13.968123323869996
Ag 10.477384148919086 17.180738869212362 11.696995125252421
Ag 14.662045595052643 9.886186334373628 15.634974405349903
Ag 15.192913198447838 8.623890624632775 13.176926234093076
Ag 11.048517713562548 14.436484299906876 11.511913399620317
Ag 12.576481690003696 11.859491204496631 7.039241715504911
Ag 10.8949618884527 15.723588363188933 14.062798611287713
Ag 14.410137094665014 9.758662225725372 8.14272306063399
Ag 11.371687851767353 13.584110289373177 8.811821182871245
Ag 15.814399777029733 8.520119293934101 10.333092605073718
Ag 13.19839091587788 12.286855095842537 16.123185617991435
Ag 13.342568788411995 9.502000030568352 11.040027138576962
Ag 13.352248571702596 10.93496342369497 13.500322021946737
Ag 14.039587553005207 12.263238021291563 9.544714880761413
Ag 12.362969010801992 16.124981653309867 9.624290274216778
Ag 13.77435765551655 13.489991875932944 12.123950704303292
Ag 13.11000862731057 16.327415300701134 12.383142029896524
Ag 15.603151703995524 11.015806385080458 11.835221171170712
Ag 15.331531231051411 12.099380378495281 6.946154346352265
Ag 14.957177520424743 15.495826958358869 10.35659643599867
Ag 13.866306399627712 14.508951230978424 7.823676567824389
Ag 13.432758431928047 14.713480860999411 14.76152149697083
Ag 16.683813675652903 11.117228017114764 9.286322974225135
Ag 15.45136109327134 12.63580604205304 14.236928650955823
Ag 16.63991256814488 13.467369341803987 11.424996803251934
Ag 16.491430244086246 13.889763535009651 8.688338842171499
Ag 15.660581153324962 15.3879025650241 13.16773244862541
