31
Energy = -65.17902697 eV
Ag 13.113015426009246 14.099724220976965 11.28167098546152
Ag 14.891691306017774 12.347131252711904 9.987588469154442
Ag 13.44731870768998 13.120146569722195 14.073278185734866
Ag 10.46134558340429 14.31189718132414 10.321700420721438
Ag 12.290314865562046 12.554031864932071 9.007845309980674
Ag 14.868842333889754 11.230128096716296 12.554566739558894
Ag 10.948726852158165 14.097198688065367 13.125087346530446
Ag 9.511471980002835 12.135132775573387 8.557500044403731
Ag 11.384458817769003 10.43350754771393 7.240680238636562
Ag 14.119798396802416 10.806171801248214 7.75860616368456
Ag 7.693924646555477 13.786184360668427 9.804252578993465
Ag 12.073697275134283 11.648931333215401 12.049030439362024
Ag 13.969062393778588 9.734260158266043 10.348654885894657
Ag 8.439537853873743 14.848041498928827 12.30643167476754
Ag 11.041734744867073 12.249941026181833 15.226491635662839
Ag 10.998804526573341 10.234045910932458 9.989879871576703
Ag 10.596103168934695 7.719325326403552 6.883760981736441
Ag 13.02879277819464 8.270161652363223 8.109214869320727
Ag 9.257901688735615 12.076644046148465 11.54986644689104
Ag 12.796980316772304 10.193683591564575 14.32193534280193
Ag 6.451906456210027 12.867529760069004 12.140872099277093
Ag 8.493220030601707 12.675486761300476 14.193391466569807
Ag 14.421781599510028 8.443954084653022 12.815959100931698
Ag 11.721263807297058 8.580939747362896 12.153308800038044
Ag 8.848561251269041 9.262677838009678 8.438317174852743
Ag 13.407135622053303 6.992975523561333 10.588067100342958
Ag 7.226688351299998 10.88469031607373 10.078723901410557
Ag 10.784433456056876 7.442302675973915 9.679232986812028
Ag 9.994594571789033 10.241080000593687 13.64943379669018
Ag 8.952156514339064 8.891515467328958 11.330955424327295
Ag 7.277615138860881 10.368863674430614 12.966478263181186
