53
Energy = -117.75582656 eV
Ag 12.527432317399603 9.843727721822695 7.635532724562992
Ag 10.39529532417481 9.336070801318963 5.794979067985271
Ag 11.85782890242853 11.841089892150034 5.751469393221687
Ag 8.917029137593978 11.705121729706748 6.487874474497114
Ag 7.610194270411913 9.1106672435267 6.600512708779007
Ag 10.3320559785449 14.27532412119578 6.486838408161914
Ag 11.580562793245287 7.702026758003887 9.357206091944354
Ag 14.53552104529797 11.68312931674165 6.808549830009856
Ag 13.047244554690048 14.073440624597561 7.465301321251652
Ag 6.9698447717096474 10.881435991684285 8.778064756740655
Ag 8.364267228514032 13.665808002486953 8.535629646364326
Ag 11.544287963846756 10.393956060327671 10.247548872491073
Ag 9.608007982036542 9.722903286842731 8.414976723079072
Ag 10.949820993309531 12.353323338382106 8.349622312138711
Ag 14.065098815226204 9.091883439225331 9.997940024763892
Ag 7.333216966025376 8.03091921641301 9.261130241389395
Ag 10.949312159587716 15.118028364243209 9.162452592363413
Ag 9.421326287559422 7.084641873187202 7.568150191324812
Ag 15.682526584548368 13.646557179810742 8.60537001160577
Ag 9.460103449408512 8.776845956081802 11.142511492259127
Ag 13.631981363214285 12.000798162793382 9.40857075523239
Ag 6.596589472316556 13.000420785676075 10.712585815601425
Ag 12.059810557096124 5.844877944110028 11.479761387149528
Ag 16.15114111699395 10.871136973473988 9.288350791995864
Ag 9.100813617499382 11.76684300549507 10.444910404577849
Ag 13.657001415148152 14.762955968368038 10.2665586352611
Ag 5.165763996861635 9.30014030244367 10.525299040864606
Ag 15.547171361092886 12.833937699143398 11.38884669084793
Ag 9.38073952641434 6.1245084128712035 10.28812892484622
Ag 7.903500715554042 12.8131531629778 13.21619382371699
Ag 15.874583476789827 9.97536175079852 12.003950019733868
Ag 11.532340186964952 13.10521877454722 11.11363115493355
Ag 14.626519123876912 7.3636556841719525 12.205422035177888
Ag 7.291200048909282 10.311773111960314 11.882075901348072
Ag 5.0123368127729995 11.597930561294737 12.575602415879127
Ag 13.328008339666797 11.17293482174586 12.22212184589238
Ag 9.024805964281208 14.550972285233296 11.279812017653017
Ag 11.523736887952577 15.741659004855034 11.939558600295742
Ag 12.121513736128923 8.52090691082443 12.205698645901636
Ag 5.460455329836281 8.853502875190635 13.365708793631972
Ag 13.399672762505913 13.911337481344638 13.10087163493816
Ag 7.282842551314487 7.261241642445739 11.98784335381232
Ag 10.373807523506308 10.902131509839428 12.804325960435373
Ag 15.194404952124623 11.90852376354409 14.088798369818036
Ag 9.94734954773453 6.759247598412432 13.112235054864014
Ag 13.9931889957218 9.299521322914991 14.242342524539369
Ag 6.652809758682028 10.946032562049353 14.812695892964342
Ag 12.635503410682988 6.714874004738427 14.219682446904342
Ag 10.528450342393999 13.723968761995152 13.74385576213663
Ag 8.402300032360886 8.888197527590833 14.103548326427992
Ag 12.317009060499757 11.747934176056892 14.788724920956057
Ag 11.127434625729457 9.056020716709135 14.833793537927034
Ag 9.400486504464247 11.427630459286428 15.293084271453143
