39
Energy = -83.73442073 eV
Ag 13.773071810402689 13.749123371019852 15.737470443295178
Ag 12.411981216077548 13.551434477930666 18.11362747014153
Ag 14.060484541461937 11.39370518355337 17.29845005371016
Ag 15.289028714432472 11.524957046746447 14.761687461394056
Ag 14.801458889258956 14.097407826476603 13.229329849046698
Ag 15.757073912061784 11.779666503426945 11.978556037363436
Ag 11.836547379554027 14.514101672445625 13.82895393325123
Ag 10.568024002534951 14.556165330954745 16.25695722867417
Ag 15.5568140962894 14.389115682237094 10.536530040324207
Ag 9.453387759238176 12.746711795210834 14.341643572227142
Ag 13.07639103041384 9.669059770303564 15.32224775804261
Ag 11.570779407533854 11.942973877989408 15.986086525248776
Ag 13.013820662272062 15.18472520473871 11.422932947905661
Ag 14.684271445258878 9.84995597911441 10.077630560675992
Ag 14.418725566068979 9.413392347923402 12.873913928949637
Ag 15.798057527020354 14.35449963233068 7.725452388166818
Ag 12.95034558495675 11.91957868777413 13.316278058168947
Ag 10.837186055184159 16.64434422618214 12.258818351399443
Ag 9.070097669460637 15.453562682624522 13.994914770775075
Ag 10.595502808815485 10.26046780621184 13.963698669555896
Ag 12.01905454506148 7.895092132399239 13.427320837036184
Ag 13.437524506649616 12.421580864730364 10.457681136584917
Ag 8.325765590841492 15.864183926743634 11.226867055739104
Ag 13.226447674882845 14.849547181487015 8.686922494254901
Ag 13.28834850263651 7.568586358835463 10.90789815963479
Ag 16.165825759678544 12.01343150272239 9.192088859319375
Ag 12.024499027699427 10.035116083274392 11.369486153698686
Ag 10.859232820285607 12.675655935705446 11.652720225033148
Ag 10.654463543209529 15.260756734361687 9.843965858855233
Ag 13.838617052922292 12.316907937831093 7.643572713071922
Ag 7.413096544878316 13.663890428889438 12.596663915497857
Ag 8.462598959517406 11.136515793629089 12.23384023748346
Ag 12.314786918542211 10.196960737068453 8.538820998497277
Ag 9.57367451681324 8.591812481902998 11.950121324834033
Ag 10.881709476420992 6.162177280187153 11.546801248502346
Ag 11.167141439846668 12.793713289466817 8.706790139274938
Ag 10.867277327834158 8.047092378569644 9.507984123186217
Ag 9.704173846661778 10.62436455479832 9.776152912992796
Ag 8.624267012077832 13.249739012300605 10.085341300291235
