29
Energy = -60.29605347 eV
Ag 13.420555281975085 10.208484545010549 15.122257915396174
Ag 14.492296074192756 10.67291432995521 12.5826449461094
Ag 12.08744640589243 12.519748858702192 16.002560456479344
Ag 15.422902335226322 11.378729245184957 10.119879607487148
Ag 14.34620148891381 12.85299712873878 14.31670573563903
Ag 9.45592510151726 8.328779842069782 12.91233298827236
Ag 12.203473216952922 8.979182760706971 12.84057390056129
Ag 13.208400148331762 12.938668750910338 11.087117971848825
Ag 11.941599270445 11.757640526698738 13.298005198388513
Ag 10.47802994917514 10.121126754261631 14.96840068353338
Ag 13.505229622557623 9.291341181763155 10.305635531085061
Ag 9.798444993027704 13.043627804225146 14.54308453655295
Ag 13.18796526709178 11.469958701129903 8.532412386128879
Ag 12.20848926524901 14.530553274336452 13.542956049865928
Ag 11.058478148689913 7.90928568096355 10.48692881000052
Ag 9.059195345387447 11.072287305273006 12.642670818792785
Ag 11.154949754360564 10.823737904619263 10.662381349100823
Ag 10.20346954119411 13.484362052068073 11.819613947530227
Ag 11.794874559620691 15.476058306109843 10.89776894926167
Ag 8.674478899444892 6.558239944659605 10.828673725462897
Ag 11.182280541497006 13.28725998284105 9.053100179790828
Ag 11.572139296758031 9.250223547249838 8.054044721726516
Ag 8.530852296367106 9.335022046167815 10.409416537088687
Ag 11.149087357788705 11.654098770491041 6.665768026250318
Ag 9.281233005106893 7.609846506779908 8.293708840771234
Ag 8.561430110792584 12.080231747246467 10.007294944593037
Ag 9.056638721495458 14.896209159381355 9.726246736665907
Ag 8.950637118466496 10.349927021640255 7.811630943657545
Ag 8.859370365579524 13.133897937177816 7.437272866657965
