32
Energy = -66.80186174 eV
Ag 9.552788185509728 9.565598851571755 14.273951666108353
Ag 6.843392103619436 12.399026245655314 10.802469070181342
Ag 6.5126486444905245 13.087184347541793 13.510533478905582
Ag 7.442349525908491 10.515582052235809 12.720113517603293
Ag 10.328857643802992 11.252525070989856 16.24050034124033
Ag 9.16452510587512 12.429506772517243 13.893005474919994
Ag 12.269036380293253 9.479969028621223 15.164918769943595
Ag 9.466598160765535 12.689723497271649 9.821599938194796
Ag 11.203010978294845 13.647109804646794 11.948199670640296
Ag 10.363185631345452 15.387448369972654 9.972187561015872
Ag 8.247224733016093 10.160266763997068 9.988886482675964
Ag 11.209408514764165 7.5712696979805445 13.391456731566398
Ag 8.86556907449006 8.21713160168218 11.928149955162445
Ag 10.451713550053585 10.785045399698875 11.764939497397428
Ag 8.502895991591092 14.36053207439281 11.953310757674044
Ag 9.107268657953309 7.690697188690264 9.20174606276663
Ag 13.153232449664458 14.914524604673488 10.323713994039862
Ag 12.964036028576595 11.94864292790665 10.426851558323959
Ag 11.422857913467386 8.202772764613584 10.602591999130574
Ag 11.898590293334404 11.951255508337722 14.005626075588223
Ag 13.872939446194986 13.49916425511101 12.724720808537498
Ag 14.554106385199445 11.160444249577882 14.269632317289007
Ag 15.67278574247714 13.663627957928771 10.60234758201451
Ag 11.70398514677118 13.436737729909183 8.370367906931365
Ag 16.492729344441578 12.977251106747905 13.276575963526385
Ag 10.996110349502585 10.444853321044993 8.922413795458699
Ag 14.449546743453435 13.883656374889638 8.034422449921788
Ag 13.7124390919459 9.391780751748836 9.600310114538956
Ag 13.076076663638911 9.567444026360054 12.395964360602783
Ag 15.40025647400591 10.98819351602519 11.615124300480987
Ag 13.216659300278272 11.266191910206091 7.448230305381031
Ag 15.512646604651414 11.444552946712362 8.910179258449325
