25
Energy = -50.41758088 eV
Ag 11.402205083020936 13.178721260882101 12.413167675973723
Ag 11.977983373184701 14.533453986578087 10.04035295638361
Ag 12.725513466901525 14.215271005883718 14.63105912221791
Ag 9.489632682496024 14.953930936401797 11.487873656368887
Ag 12.421533004255132 10.010259620001017 6.853544686406244
Ag 9.85552821003114 14.570744601240873 14.259012652217521
Ag 14.621374219192122 12.181258299493136 13.943534675585042
Ag 10.155701891213708 10.447180063542636 8.32266817770845
Ag 10.709538613731334 10.604220133790214 11.067808164397634
Ag 9.802195550226925 9.541377973925494 13.418908241226394
Ag 12.36560499350501 10.560502585319407 13.645820957516076
Ag 14.006991888421112 14.365861915507846 12.142223787263644
Ag 13.385177073665039 11.7797752945841 11.135598865092682
Ag 8.837242572175962 12.259509951395353 12.520170755734888
Ag 9.749674617276359 12.817899558393638 9.737314025817252
Ag 16.03880701552058 12.375890354582193 11.563269112931309
Ag 12.841983041993515 11.828678147928228 16.180891757597845
Ag 12.851742518223604 9.555537212317873 9.537199818340008
Ag 12.105834348935883 8.374753221051938 12.008600437451529
Ag 14.70186545203624 9.771808419609238 12.369062968726048
Ag 14.584003739595866 13.593327932744492 9.44133337769058
Ag 12.317611785393394 12.192644056281937 8.53397078188689
Ag 10.333659148723607 11.884932752874622 14.925776385296786
Ag 10.981738426536428 13.89500482629383 16.737033989511595
Ag 14.907400434134196 13.677999039767023 16.25434612104825
