34
Energy = -106.13607085 eV
Al 11.543794053142177 8.531242110466057 6.822355318266337
Al 10.297510871476854 10.762666846807273 7.478713353269123
Al 12.905038057409264 10.254864007434344 8.652008869375052
Al 12.13036592751685 12.678027799059292 7.039809192846859
Al 10.881117297048739 6.149079782138769 7.920769943578115
Al 13.129009825675514 7.534462464785208 8.774241893730558
Al 8.844902899848664 8.399205490162458 7.497079313287058
Al 7.5585072887781894 10.989093538794325 7.974692931593178
Al 13.822851428260263 12.826268249203808 9.20849711855248
Al 9.404587314312387 13.216057739555417 7.87205556120156
Al 10.63436113361222 8.941729551007304 9.624295098681747
Al 11.31669355050911 12.25595209513813 9.663837014318498
Al 13.14724828259763 8.872060525035742 11.02679536697875
Al 11.570112564463228 14.897605431352558 8.533915119427732
Al 11.419999903125301 6.574035807927792 10.73708631784113
Al 8.847284938965844 6.64600780469431 9.598100965214936
Al 9.087042838174009 11.414129504350234 10.292524245640863
Al 12.451196380218043 14.338843595527285 11.078259642395661
Al 7.7773599781973575 9.006841913289529 10.006633944927716
Al 9.401000917680033 8.812615349627277 14.377959584223348
Al 11.724663423522113 7.699462837725338 13.225406897178365
Al 13.20343261761032 11.558608656407573 11.545792749442048
Al 13.663189500993546 9.698971881289612 13.460856199169818
Al 6.448525369857172 11.214254060214772 10.615224233812128
Al 9.571745715264987 14.352703636422305 10.392841951518701
Al 10.944768981737747 10.14164006397101 12.358396816484822
Al 7.20270646808068 13.434618249895012 9.404822626555937
Al 10.574452675431877 12.900691991349003 12.353069168396054
Al 7.797399024638335 13.054671787392682 12.237149441007999
Al 8.095203475208576 10.242470788676538 12.556353568580692
Al 12.347963124911898 12.004840599307121 14.166986020949551
Al 9.251415421265722 7.823600524015143 11.938202982984093
Al 11.744573158434635 9.640325206683862 15.415553571755716
Al 9.627297535289468 11.511175981041104 14.506642779005883
