34
Energy = -106.6687893 eV
Al 12.372086145073062 16.101953987868896 11.605136940516397
Al 13.109268113850302 14.092007637047447 9.811935500840574
Al 10.75685422276467 15.441747978468559 9.420665961212793
Al 13.310704266596609 11.84749182355912 8.47349021876678
Al 10.902906435238103 13.223208299389167 8.068831739030019
Al 11.781800864850048 13.801270545779863 13.127319149102119
Al 13.251361205615446 11.822016010326063 11.250600147499638
Al 11.149388922061702 10.85714754730696 6.947031183736369
Al 13.490654557240024 9.416767542183578 7.408448594935164
Al 9.715101958840783 15.239052903629444 11.892958750728045
Al 8.531702674784555 13.752440171306757 9.767928812740209
Al 10.81767598138766 12.852588943825177 10.810601645090113
Al 14.326755076094939 14.189736641107496 12.309214870792962
Al 13.745732994446637 12.011626728991686 13.893693721708104
Al 11.478007672646891 8.22038717206261 6.193703186082372
Al 8.890192489764624 11.406619943092368 8.541354978794729
Al 11.29216842824864 10.394376418004294 9.709862775905874
Al 12.190483678067373 7.711352311667475 11.484233037744525
Al 11.881525453922686 7.7505943385741665 8.884793767007737
Al 9.490516053766392 8.760556003188462 7.879938751478266
Al 13.989249422708701 9.632877108239324 12.627279395105226
Al 8.825555220906285 11.05019273167101 11.183230535816808
Al 11.119180038265284 11.826373900161027 14.730895816656501
Al 7.390742121766925 9.297394073350299 9.492940364067332
Al 9.169299419642597 13.101876775614747 13.15695520974752
Al 11.213878293682468 10.277892515930693 12.488928954981196
Al 13.928091872173633 9.398875000913266 10.032260160857028
Al 9.740015395940517 8.316486282357682 10.49845090015981
Al 8.597616579242645 10.71723976519993 13.870131313781988
Al 12.49437590226661 8.06545705769783 14.106258523740436
Al 7.559689934092648 8.862250423349403 12.11334501698196
Al 10.445303894279311 9.283164523959712 15.241568777615228
Al 9.958401618352722 7.792183682954987 13.038199782555372
Al 7.912807041473678 8.3138871612752 14.766905464275197
