17
Energy = -32.90965544 eV
Ag 11.001748777414745 8.921926348507629 6.597800310313722
Ag 8.690529050821072 10.528157759053137 6.684001627725324
Ag 8.55614392927528 7.721957836005418 6.872060799363589
Ag 10.993407942712437 11.456251325444446 7.920626049840571
Ag 6.826881671816008 9.391530263170779 8.397764650820049
Ag 10.782504638091764 6.822525720532698 8.893293435194302
Ag 12.600670276661742 9.164777212308863 8.791419201950974
Ag 8.416756476786242 11.683242814086148 9.282670674468294
Ag 9.644840685605686 9.208783161544375 9.221372233740313
Ag 7.861083537862751 6.828888324070745 9.353415815501313
Ag 11.676196583889265 11.137214882318775 10.561083500254975
Ag 7.206983023193801 8.948155671765774 11.079720438247717
Ag 11.79348244729142 8.466070753998354 11.310555032415207
Ag 9.721848372666544 12.798929601046172 11.467618004989374
Ag 9.367537362795256 7.272027043982478 11.593448685298581
Ag 7.231904310914282 11.57350424642722 11.794200455010131
Ag 9.595744807730357 10.044320931265615 12.147212980393915
