19
Energy = -157.04371441 eV
Hf 10.719644269407224 8.866615398424274 8.054312864944006
Hf 10.818993566392875 14.33545768817934 12.230755316680296
Hf 13.36238481005598 13.355214755463072 13.28855980856923
Hf 11.309731464173595 11.36151060736363 12.399879844829993
Hf 9.592455886539133 11.397515158935253 7.59595573265234
Hf 9.993305069793339 12.897255949851095 9.988495773124539
Hf 10.178496279396695 10.460042045020199 14.985646772877152
Hf 12.907510978040387 13.215180003771632 10.575085261850111
Hf 10.87766481129161 13.130054302203941 14.728134753640754
Hf 13.972391362922084 10.675274250271226 12.021547492294912
Hf 12.178143650288817 8.833041154545953 13.677339594759632
Hf 9.468614068740287 9.009047343742488 12.750006256853036
Hf 9.129198473794547 10.08963567954964 10.212864301098158
Hf 11.784594708420201 13.17588563584732 7.6642368229902775
Hf 12.42117903766052 10.845204516358178 9.11389994369186
Hf 11.677701146217332 8.729112326300067 10.942900162999829
Hf 11.903364578693374 10.72253862263307 6.277945990012183
Hf 12.981021237710618 11.166864340594548 14.912565289732628
Hf 8.713010285922145 12.037709363820381 12.765272159730142
