18
Energy = -149.29951086 eV
Hf 13.07115152649708 10.168505703028137 10.998337538757342
Hf 13.749519433478918 11.624606406763876 8.910014989364686
Hf 11.690938851940286 10.54425647945887 7.42808993950213
Hf 12.297214390518144 8.207293718205 8.957168687190965
Hf 9.905446088475001 8.520224185088612 7.577326837892591
Hf 11.274101735952774 12.829925420463937 8.871654277106872
Hf 11.515096376488811 12.553836501328032 11.703512355349078
Hf 11.340952196562503 10.187474877007924 13.155175606160705
Hf 11.767326676122487 7.820253073087491 11.65896490089227
Hf 10.021704660971823 10.079004373841228 10.26943191304749
Hf 9.401600112381827 7.1329070084578134 10.080035012669882
Hf 9.339344849126446 8.35746351533038 12.797762697087993
Hf 7.52881502476185 8.991449063977807 8.654147541207339
Hf 9.085770306450236 13.044546872873829 10.44182837595108
Hf 8.928217095469332 11.463728222922954 7.769305276828744
Hf 8.656445784536295 11.2551914504603 12.689236514175876
Hf 7.22747679110344 8.87720546756598 11.3699174226944
Hf 7.109497890322436 11.306897743800716 10.120779659931381
