13
Energy = -103.65118175 eV
Hf 11.286144845995407 10.807620089234934 7.876117734418544
Hf 13.327506267410532 9.244396809413914 9.133863330391618
Hf 10.673462898213893 8.316992294656172 8.784583206343445
Hf 11.696311081589295 7.531949143826173 11.093279594109278
Hf 10.291346510692186 12.884882293480498 9.594830724052766
Hf 13.242628138832783 12.113203167915719 9.205381608880321
Hf 11.68665239977242 10.566909491512181 10.909837147830698
Hf 8.705124786859981 10.345939632510456 9.295664612090563
Hf 8.464474259994919 7.50169093492083 10.341384553124382
Hf 7.2962616612054205 12.557676748969126 10.213986301681057
Hf 9.579428505448435 9.065391152500263 12.158821714841999
Hf 9.169854642131858 11.749736380034536 11.985083240837982
Hf 6.9977062944421675 9.972247564153284 11.426148764493924
