19
Energy = -155.53862393 eV
Hf 14.372294650224832 13.868836980476447 11.354964008276282
Hf 11.96078464784215 13.790055006239566 9.73198141571665
Hf 12.104958101203064 15.488917473101434 11.986859473959205
Hf 14.155209664500255 11.01403799541897 11.092030787281564
Hf 12.148956317709366 13.083193942696802 13.510078918883208
Hf 12.404047989556215 11.010574037688553 8.63814283047811
Hf 8.29913425169759 11.060582418822223 11.23706530186347
Hf 12.406426398322909 8.782022511543904 10.68291128121032
Hf 9.668911809734023 12.346580972553658 9.015610620584038
Hf 14.804126788677078 12.149934532537044 13.612244902285749
Hf 7.744386104223676 8.046494234587717 10.70198747278159
Hf 10.089793446652877 6.747276419588129 10.408045841233102
Hf 11.251539888184325 11.394807270507828 11.240013804930864
Hf 9.889429780997112 9.371036644251728 9.31501937173455
Hf 14.205936035196455 14.942346344236027 13.851155914159508
Hf 12.587711349688796 10.091685648267948 13.470072733595817
Hf 9.934997345942762 8.91729632565965 12.262402431292214
Hf 9.635533364684239 13.74510574228605 11.637847695426899
Hf 9.776345457157573 11.51178918598105 13.725443011633715
