16
Energy = -131.91480781 eV
Hf 10.91608170244599 11.893408125056824 14.851968649749246
Hf 9.568158050826751 13.48520664365528 13.215279037170847
Hf 10.361545846081643 13.607498763987952 10.468202333893574
Hf 12.518051529301776 13.84988201114286 13.076315459001437
Hf 7.616591648282051 12.76534727480849 11.492688690348732
Hf 13.837767609301888 10.451729277577831 9.895944256626436
Hf 9.139915972736903 10.963258825370826 10.174781851644884
Hf 11.275463003608172 9.013997886781357 10.883721885785093
Hf 11.89416570580924 11.432158839943583 11.985217133309355
Hf 11.534437380960405 9.271935511413304 13.994404237078355
Hf 9.12816690853618 10.601880884301638 13.012838366873835
Hf 13.230043855301501 13.286253343858412 10.082382112102714
Hf 13.566763965633584 11.285270325143294 14.489666300199048
Hf 14.776334135918203 12.025466575221067 12.056191003327106
Hf 13.89421484940362 9.324991851088031 12.473870400289679
Hf 11.445307026027871 11.411793291047541 8.953042865048836
