17
Energy = -140.68599826 eV
Hf 11.856776697488467 14.439940196534055 11.209874209359064
Hf 13.693761879851792 13.736177019889176 9.218857445570602
Hf 14.030094632680317 12.523164172198904 11.787963481757377
Hf 12.118735928931239 13.483092291296293 13.699995968326819
Hf 12.977789592637311 10.865878570863963 14.011455742325996
Hf 9.421588630780079 13.435769496386584 12.521747480318652
Hf 13.841832474947484 9.589361658477836 11.77141555240843
Hf 11.180966970207278 12.798289792451227 8.768289497326338
Hf 10.318249585149383 11.42666244869685 14.502864170051902
Hf 13.311534979845009 10.83206623969593 9.189335492012454
Hf 11.261466160653503 11.257927409202116 11.513341191751909
Hf 8.701646830761582 11.944365246008443 10.07289736001577
Hf 10.56333021799102 10.21316213574581 8.541663141842072
Hf 10.932358579205411 8.869745049102319 13.129261429154809
Hf 11.855771087955077 8.473429807486564 10.315875735309557
Hf 8.516972516564167 10.749361313135365 12.643441613629772
Hf 9.199835253174449 9.045095706720339 10.720072639064883
