13
Energy = -103.33554318 eV
Hf 9.943104858694081 11.971010105229063 7.65962497389544
Hf 7.881215653492083 10.147292048620118 12.148031700139512
Hf 12.29881192864538 10.070269078075087 8.603869378928815
Hf 9.481975461522575 7.916189632427525 11.715200547686809
Hf 8.357195084131925 7.373318993511928 7.305482590095473
Hf 7.45049970094579 8.748626671389818 9.729580732156728
Hf 10.378033182875495 9.307952800070131 6.7923613030223216
Hf 12.092938474698874 8.751425240455426 11.254479514272434
Hf 10.71531024896824 7.665975953967472 9.039876796842794
Hf 7.7784294532971705 10.170934206785635 7.3321331205172715
Hf 10.515842599331645 10.180930915052494 13.051042155551789
Hf 7.494805095479797 11.660101578477354 9.626470814410046
Hf 9.937305757916947 10.361440422693724 10.067313578969715
