12
Energy = -93.09361028 eV
Hf 8.831412052401081 11.07445608505402 10.29566430616826
Hf 8.635492353100219 6.390292736713256 7.168788922291975
Hf 6.450766078149014 10.326451277035602 8.804455621506229
Hf 8.860111966346023 11.260204584390841 7.465402825774177
Hf 10.114253088034035 8.523992045259494 10.952673572662778
Hf 7.3122124447512205 8.657360008911223 10.923558212572553
Hf 10.151955773417026 8.808675293446974 6.5458987863652105
Hf 6.318028756377218 7.364366747077347 8.623817328752182
Hf 7.3526042474904045 8.942821776611709 6.514914891927587
Hf 11.149395628382923 10.102734083370695 8.842473496937044
Hf 11.016196800601652 7.140006816430183 8.66242948982144
Hf 8.606852831777347 6.2079205248707225 9.999204461908086
