18
Energy = -145.36947102 eV
Hf 10.598075987719614 13.98282071378678 12.634349848736242
Hf 10.234267366554253 11.00741979915346 13.102602536840287
Hf 8.557727120419205 14.96484533603542 11.05167845191113
Hf 8.319776787635902 10.002023725662168 11.40949924391325
Hf 13.65432846191907 10.3904517818415 9.35477674434689
Hf 13.162942386101916 9.48356510395217 12.023140518269486
Hf 9.25981677418709 12.40473203379315 10.082551900327736
Hf 11.091223261421387 14.725563741595673 9.87856450777238
Hf 14.999551942727363 11.806874551225121 11.825697183080406
Hf 10.869412502210567 9.767044480166359 9.970787430140906
Hf 10.540225118090083 8.344290018124433 12.515957363858432
Hf 13.461728822683186 14.566321074625844 11.964249108926094
Hf 12.392502849964444 12.35883928042877 10.799896606728144
Hf 7.944732177670128 12.702597384636805 12.621954581755867
Hf 11.425993188803734 12.052403779459146 8.24431426285277
Hf 12.922291036713062 12.25518780298021 13.795195794362737
Hf 12.147204924764415 9.56402541223497 14.713997102131009
Hf 14.820069474047447 10.283954317078415 14.16566976922713
