10
Energy = -78.32308633 eV
Hf 9.219628028258457 9.962905937708259 5.940275835157957
Hf 10.104888208539531 10.02376710394017 8.437525512155895
Hf 10.593771229870171 7.667799145808246 7.230203485377721
Hf 7.680891905751405 8.255600942371661 7.25199255078387
Hf 7.556646663456017 11.026405105541295 8.202268351200571
Hf 6.786543397004318 8.92238520543471 9.96048218719682
Hf 8.891481213178995 7.114163215693704 9.407189382249756
Hf 11.138269981298876 8.311716700194987 10.400930806344036
Hf 9.0010756196893 10.427070626317336 10.873237079426737
Hf 8.71153668573804 7.972918949774449 11.98062774289146
