11
Energy = -85.8619623 eV
Hf 12.4629320808991 11.670276699563045 10.539316932107715
Hf 12.253293450276702 9.743886812782575 8.259599206995697
Hf 11.561614942961116 9.23042424289765 10.955211267197111
Hf 10.71176296726626 11.057584336975294 12.668607914796537
Hf 10.00189028481214 9.750659960206589 6.667766070477768
Hf 10.15300731848545 11.434801033972366 8.799019399516448
Hf 9.17427702054248 8.519010107095761 12.302393292210802
Hf 9.620703292642528 8.377128707272073 9.19106338897265
Hf 8.452840108429683 10.747770562720067 10.905419761618573
Hf 7.625684402754213 10.034445462961246 8.183564581708183
Hf 7.0358723721924505 8.491999084759668 10.522032130474551
