17
Energy = -140.57928149 eV
Hf 12.145142513159916 13.9566691443207 12.208540440568688
Hf 14.23994697450929 12.745366568653616 10.961824502955595
Hf 9.377192777673908 13.57204000189684 11.37266789598321
Hf 13.272480704467752 11.464516248977088 13.39369154099941
Hf 10.768975796663254 10.109790056688583 14.254927680947631
Hf 11.53416902278472 14.499239781822642 9.625071664727693
Hf 10.505767198366977 12.74674592127559 13.872569320447262
Hf 12.71982511593083 12.194485178088998 8.783015028508027
Hf 12.642339858746052 8.668607671437172 12.78827874366452
Hf 9.833790969221756 12.294985162577722 8.794325046564103
Hf 11.37133154638135 9.936021846657415 8.435002312340075
Hf 8.52821489794985 11.038623828213908 12.661576301653996
Hf 11.267610603673441 11.08860224596255 11.335256166818457
Hf 8.909262747914502 9.751607252233823 10.008896850199157
Hf 13.737788347913245 9.903202772311072 10.398423114463878
Hf 9.619257844374708 8.411263575506974 12.465811590936934
Hf 11.328128400000764 8.146604393118292 10.391517690640915
