15
Energy = -123.58624628 eV
Hf 7.002230401423732 10.442601134631543 7.454718088386107
Hf 8.537198579992364 8.741858896149607 5.808211881496427
Hf 9.929559045145032 11.33449851067163 7.972795820264691
Hf 11.097891016607768 8.628319328802508 6.994627302414409
Hf 6.693287945796446 7.61375756802862 7.646189380644983
Hf 11.22822557484412 6.9167109545597825 9.23299848895801
Hf 9.24913622523941 6.480021827252743 7.357206896365682
Hf 8.168096969503809 6.805938412299924 10.216780680532212
Hf 11.97419679841012 9.710562680550947 9.434577676256568
Hf 6.078559318645756 9.2002531760833 9.81975031259838
Hf 9.033369582987069 9.02909533354317 9.094593575687995
Hf 7.679266358338589 11.616649799787236 9.922180399627457
Hf 10.162132507506218 11.084688869660399 10.997407967180633
Hf 10.526809161894192 8.3119168416299 11.554832629844322
Hf 7.990293711230858 9.433379863914032 11.843382097307929
