16
Energy = -126.07671914 eV
Hf 10.004717886992607 7.952384656579453 9.25601985383996
Hf 13.62797867869712 11.318863471196865 14.376979508108397
Hf 11.743355116508202 9.950323741511115 8.854309551494996
Hf 13.273769825020212 10.080213631512512 11.831335775767396
Hf 11.730296105177509 9.39159099063062 14.082714497523263
Hf 15.160284905275711 14.081865621574721 10.477492593283841
Hf 8.592669237087549 13.814513012221276 14.033151595179914
Hf 8.573176291035972 12.18685113026286 11.65867043133911
Hf 9.039480380364742 10.607925167436422 8.986292795667525
Hf 10.162431436295922 14.49263193012911 12.027863385499357
Hf 13.201988391676348 13.244402601392316 12.311988616715807
Hf 11.020228920660859 12.38406545355139 10.190127226977422
Hf 10.26472915497151 9.7814926552648 11.392557596397953
Hf 14.047440548735828 11.793937936880434 9.777154310802425
Hf 15.568529821622445 11.811654325707076 12.145332845390227
Hf 10.879477241163917 12.064322366410407 13.392057174355767
