18
Energy = -147.83468853 eV
Hf 13.01260401777256 7.962637260456817 10.70656556486307
Hf 13.066121776343028 9.358045237951302 8.316568973355176
Hf 10.448479015245852 8.465116739176871 9.269688698712262
Hf 12.914300659512138 9.7953962020617 12.883884525680706
Hf 10.970451929878399 11.18732313398423 7.724723529532781
Hf 14.523081836216255 10.383638054684328 10.663762204800209
Hf 10.589015911329263 8.259826300918467 12.248054806241807
Hf 13.514537741889253 12.12459107902261 8.718875130003182
Hf 11.557969580010749 10.716344730377257 10.478203549509052
Hf 12.941985144856583 12.696073654928894 11.655153309157955
Hf 8.684174313449416 10.388477186856754 11.03436230000088
Hf 11.314688384112912 13.625160444096117 9.288504472806816
Hf 10.316187395294284 10.84860285937612 13.494182357113175
Hf 8.704581994090674 12.598993666048568 8.904810816996804
Hf 8.104667485435222 9.164572627328587 13.628219567593668
Hf 7.694890541217663 11.872441525497646 13.421390724867662
Hf 9.582446693172901 13.144897616955264 11.569536274453753
Hf 6.8617915607065205 12.610722522969391 10.908458771236967
