12
Energy = -94.33731572 eV
Hf 8.045670278745806 11.910826155150671 9.302318711989003
Hf 8.133941997447735 6.37341450178052 9.226434221920682
Hf 7.611892307281625 9.16745994341079 9.700903128006894
Hf 10.619163772224201 7.491180626230471 8.40840336082542
Hf 10.297845136938584 10.378003569985568 8.596260346548648
Hf 6.318620585214942 7.688349609151097 7.421694545095409
Hf 6.614115867582515 10.576275811738679 7.519162690565529
Hf 9.72396125762026 7.793761620117118 11.086292561886474
Hf 9.637396909389265 10.643454189350512 11.33435729948651
Hf 8.746239234644491 8.951053469666265 6.727968481764583
Hf 8.635521505112846 6.198163887728965 6.55759440034063
Hf 11.97389940722312 9.186324356264587 10.476878251570227
