19
Energy = -157.70557471 eV
Hf 11.131434610572656 9.555960452661465 6.667551208337774
Hf 8.555283959369405 8.461938597161692 7.61498858405603
Hf 9.005674450795707 11.34387341076877 7.320000270393306
Hf 10.994933678326232 7.168905930094207 8.397903966034793
Hf 11.841354510342617 11.983738131824623 8.490309890655842
Hf 13.138501942114804 9.129232655260767 8.634790313618774
Hf 10.408782611981954 9.780413079594975 9.26981633036073
Hf 8.992464991756256 12.79838814627089 9.883982714229425
Hf 7.458425452517071 10.369761024695904 9.459377360284636
Hf 9.016724344597536 8.030411943709979 10.682960520363116
Hf 12.104351814569629 7.912906176402864 10.948340691523377
Hf 11.688750151216299 13.20095848304309 11.064072436574099
Hf 13.150086870962735 10.614160780515036 11.177320711167168
Hf 7.522246405791093 11.326177401909295 12.120979853741677
Hf 10.226705596835671 10.786442768750785 11.772152268838704
Hf 9.430866255608546 13.297664988690594 12.827195914289938
Hf 11.749012209781426 9.17923225605091 13.467063035689193
Hf 12.00559828838787 11.982267582073447 13.627816692739644
Hf 9.477292585642953 10.976056921691487 14.471867968272045
