18
Energy = -147.77440629 eV
Hf 12.860301490989166 11.97818636565236 9.255718608944719
Hf 11.672095268748675 10.78463943572378 6.919476500080411
Hf 13.458481396744348 12.090169696367782 12.25655420206456
Hf 12.35450093957347 9.092843920011394 9.35487928451171
Hf 10.665642084474742 13.189018198086194 7.998481898400426
Hf 11.307926502214896 13.455117580493301 10.963793501909713
Hf 10.079450699227639 8.511379415948905 7.4081384735289735
Hf 8.836690894826003 11.008119068639049 6.852220760645251
Hf 10.048679842589024 10.68813381641052 9.324196291191848
Hf 7.748367418598163 8.98724048155156 8.92862639422956
Hf 9.90981337899235 7.735002043816462 10.180762189569599
Hf 11.11817123240611 10.497007032736851 11.822151587249717
Hf 11.083441930557854 12.725871437063384 13.702252258318193
Hf 12.3331382600434 10.275670799106786 14.382549692709874
Hf 8.815283829871731 12.135275140135436 11.835743306989636
Hf 10.589611011837205 8.012318679177776 13.10875156971837
Hf 8.339879931987884 9.230006630837313 11.904431338429507
Hf 9.512130503478664 10.423235256878284 14.230286631980551
