17
Energy = -141.5488803 eV
Hf 10.912052930720707 8.367825668531037 12.778570310539983
Hf 13.173875100779636 8.87597477655757 11.528799117453593
Hf 13.874522777162255 11.440125541775853 10.976782359387474
Hf 9.280623209529375 10.410195379690826 13.52041791759919
Hf 8.509438488674778 8.725226190692313 11.490338133978227
Hf 12.254226014052245 10.985678698057429 13.494929452859298
Hf 13.142276140630754 9.764610916636233 8.92630624466129
Hf 10.890654235180778 7.9202700875184044 9.792899017511965
Hf 12.296422343735621 13.420585055361322 11.699273968983215
Hf 10.800751246690501 10.804974450687713 10.796431528910539
Hf 9.962671144649839 12.898065731537985 12.985735043103775
Hf 8.497079893559121 9.61817595249492 9.004052728460632
Hf 12.184709338768219 12.64157118176975 8.78109515966463
Hf 9.905922134389648 13.822774695041806 10.397104923502843
Hf 7.894668336862774 11.681293695285992 11.153704734453408
Hf 9.200330818201572 12.178309531846379 8.454527102964516
Hf 10.822964277303804 10.138983270926879 7.715025833940279
