13
Energy = -103.73455798 eV
Hf 11.646615700920012 13.026984074730972 11.29469813726281
Hf 9.40948179525589 11.310192766651486 11.840264628758934
Hf 9.485739499445176 12.967046286507983 9.50959729039655
Hf 12.301973202639758 10.60054057286306 12.55952777455987
Hf 7.102394525484203 11.281423427041121 9.859307653313211
Hf 13.96740609523122 11.477751515188558 10.577288704664788
Hf 13.316660742458923 8.746158864746944 10.636640979581454
Hf 11.452644182980524 10.580770638910604 9.687526604701564
Hf 10.79437875703321 8.450119196429815 11.835373377701687
Hf 9.109500293710079 10.482072516178086 8.191123622996711
Hf 8.311702610958674 8.900760509299838 10.816097516686503
Hf 7.2478734240784055 8.630657821356959 8.39506771880789
Hf 10.256060145020138 7.927212142994138 9.05089369348357
