16
Energy = -131.45198519 eV
Hf 11.266050943309343 10.598811525083057 7.774316102120473
Hf 10.753932448665466 9.925240943469438 10.377159886748897
Hf 10.932464618013318 12.959793386189451 9.851999796813299
Hf 8.754772850847552 12.23602011002271 8.40089701647311
Hf 10.439633631190546 7.696910200421328 8.641017250360568
Hf 8.619236820087544 7.998342300377606 10.91780612085381
Hf 13.02974272798967 8.635726679778658 9.363546671704606
Hf 8.362470687575302 9.54293246514857 8.480614286751784
Hf 6.482567819118211 11.497225256665088 9.765726635156716
Hf 13.19516298430442 11.371821010279431 10.134661007511644
Hf 11.385474891028958 7.175258350398237 11.312157894033522
Hf 8.160447058651352 13.679951961277343 10.675064846432074
Hf 11.47566718739663 11.842925050354177 12.464662765597103
Hf 8.652964560099784 11.090639285511585 11.36709866186734
Hf 13.034718361677525 9.387852825517125 12.210980438603489
Hf 10.28035157605187 9.186207815514038 13.087949784979715
