11
Energy = -86.46350779 eV
Hf 7.919452738022938 7.8132975383445045 10.849427802841237
Hf 7.9430458999388085 10.283504605111697 9.683450562157502
Hf 8.096006647430803 10.870920329069257 7.122468170169934
Hf 10.023532556591588 9.817052934796715 11.386550803674474
Hf 8.779554216354933 8.108594067347953 7.394700640104975
Hf 10.637934752579671 9.868792779093164 7.886051847759184
Hf 12.321542117125674 10.113735800857294 9.9684183024188
Hf 10.1741446712191 12.02487933161707 9.458907860188145
Hf 8.012482521192146 5.973908191773403 8.848002850313131
Hf 10.536568113779017 7.558488380512702 9.66585257258354
Hf 6.294505765765472 8.305596216585434 8.474938237570925
