18
Energy = -146.54958686 eV
Hf 14.697889054493356 11.611724849336076 10.653676708271183
Hf 14.022678923704266 14.50365633955094 10.713287851503253
Hf 11.972992070350303 14.37937288946387 13.149560534436512
Hf 14.738784743852008 13.34293587100506 12.996069391039015
Hf 12.241767826971364 10.186421642196999 9.338084261870142
Hf 13.118619383778409 12.935180867435506 8.593161712541777
Hf 11.984610598264775 9.894519661655787 12.397476414928983
Hf 12.207059329946539 12.378493771808651 11.37753206485989
Hf 13.011730910975865 11.963703970404003 14.413170156183254
Hf 10.40386744517986 11.76684114289468 14.055215795711598
Hf 10.92757569994635 7.857822808442815 11.142565582075271
Hf 10.200837238530816 8.436862368143947 13.985990398118888
Hf 11.227635231457924 14.652400193627576 10.06898073024101
Hf 10.426643956893322 12.370095323629931 8.632699344559189
Hf 9.317900328880938 12.723816777094916 11.300244678002242
Hf 8.67289411896972 10.266140451424993 12.602144750618022
Hf 9.416428412702796 10.026478261831258 9.911264108436464
Hf 8.365228951318763 7.712329918302584 11.820158026784485
