18
Energy = -149.54861896 eV
Hf 11.430832772647296 11.654741501724638 7.547601312963168
Hf 12.803922269277907 12.064874077635242 9.96281117435737
Hf 8.712294617005893 12.572365893916853 7.256165573968653
Hf 10.443440834456323 13.497345748957727 9.359151951544296
Hf 9.3711699347 9.838265126384059 7.665497944338633
Hf 12.067618915380196 9.002547531820133 8.401889727977936
Hf 12.514314626003971 11.488936114150407 12.726128934570212
Hf 13.558983520627686 9.50648254310568 10.862896697536916
Hf 10.48971499392485 10.241491206509794 10.660643048654821
Hf 10.108007229211724 10.517028300613536 13.73815340022145
Hf 8.06422855406975 12.270116309576386 10.01056782334148
Hf 11.7554340497377 7.391778868210817 10.746336049219183
Hf 10.003326590208234 12.845515449183488 12.094185543850724
Hf 9.55854488773949 7.6566467885750935 9.278382000910705
Hf 11.944851827213355 8.640192801073198 13.136195120193758
Hf 7.901421284526167 10.740308681498274 12.26694775476455
Hf 7.500887059097872 9.363999491061051 9.922834271595743
Hf 9.147695295947232 8.054025002115829 12.189682581798307
