11
Energy = -86.90161358 eV
Hf 13.151450621722473 10.907998514097974 9.878026498641683
Hf 11.655858053762499 13.335902547476453 10.111981119308075
Hf 10.385878527080978 10.78304426420962 10.620997975817076
Hf 14.305479479460425 13.187048739355975 11.114822338566146
Hf 11.946739921904317 14.663601824043532 12.592760419436233
Hf 14.808331733651453 10.504023643825578 11.999207473991339
Hf 9.639628741773256 13.086632231924465 12.110589372669793
Hf 12.293649754864944 9.12949010730629 11.91121219132958
Hf 9.937059571316725 10.584203225984272 13.413752077204483
Hf 12.397496801908952 11.856776663822542 12.76394557025656
Hf 10.626589500607436 13.109440946006881 14.630867670832247
