15
Energy = -123.61599689 eV
Hf 11.905832825464536 11.365628850713437 8.14380666255513
Hf 12.830442448227766 9.997822937884072 10.358918546033038
Hf 11.443248538727016 8.24183796590059 8.2600701308557
Hf 11.263179434497138 12.428096671496853 10.787395948353089
Hf 9.615842840561584 10.565087986363148 6.806066024388029
Hf 9.387467142052959 12.675772401901558 8.784067065581544
Hf 11.507288670115063 7.792368065772652 11.332057335682295
Hf 7.310339380046394 10.879846335263558 8.543996489781575
Hf 10.96870039121004 10.385294133736144 12.590353474494673
Hf 9.869818797688165 9.880517271342951 9.832607725571853
Hf 8.384311163256925 8.28320103785025 7.758093063728567
Hf 9.281290348086866 6.924112742593464 9.989953317575967
Hf 8.30147205534781 11.517902885062728 11.400324116084084
Hf 8.886655013257673 8.597553624535868 12.358458253220245
Hf 7.059784186676015 8.79203467820908 10.320364079496398
