12
Energy = -93.87242012 eV
Hf 8.64921563039325 9.099176807995583 5.88489088020911
Hf 7.4592412980604115 11.293834113783436 6.958935638927976
Hf 10.221788161917843 7.69076119971039 7.57845473048577
Hf 10.059932994186351 10.622668643937022 7.855887124727557
Hf 12.139038452503618 8.932516974990614 9.254837294921062
Hf 7.7628312616198905 8.968030879858492 8.590738300590983
Hf 7.902102853169138 11.698127366538762 9.596520658058607
Hf 10.314441701863071 10.592182249943063 10.885472417779745
Hf 7.603670010114247 9.48683883491693 11.503554258124625
Hf 9.80373452106355 7.746560301705996 10.574522771523048
Hf 9.705715468974413 8.947946371057478 13.139296388241888
Hf 12.142157591887482 8.68522620131519 11.94075948216289
