19
Energy = -157.52533234 eV
Hf 8.188654947596941 11.044923471795206 12.180665326296642
Hf 10.146967276483428 9.158561631496742 13.334224275091076
Hf 8.521541462617455 8.581503899202756 10.977969688778654
Hf 10.337675938239464 8.713451577060635 8.422054224578266
Hf 9.39155920075096 13.26494001358283 9.872345366351535
Hf 10.816080921535397 7.273727060734347 11.054030913261078
Hf 10.41941454161188 12.637378827473823 13.107176655935444
Hf 8.222707367208416 13.963763020264686 12.147001357638322
Hf 12.546120401517696 10.80876195017674 13.464947189971394
Hf 12.943099457441233 8.453453780782976 12.379470483287413
Hf 10.911638156723034 14.9634013771383 11.583820133208519
Hf 8.145087269723556 10.627089444253157 9.271042426466016
Hf 13.137660047767023 13.28945531191025 12.394965800479607
Hf 14.036042720783467 10.794209971117152 10.92407126568615
Hf 10.981484007454343 10.35324069436792 10.731250620152526
Hf 12.338031021219585 13.014590603077504 9.730303783057945
Hf 10.352648144646649 11.617221339110756 7.954203580423277
Hf 12.98751250389198 8.274386158136354 9.61717075609886
Hf 12.786960124250843 10.591848047867977 8.271712576241518
