12
Energy = -95.35820996 eV
Hf 12.131061004552896 9.643763717737267 8.147890621494092
Hf 12.262307995602843 8.47833953179304 10.68650203316012
Hf 8.339504302977979 12.13623642073565 9.837126345728516
Hf 11.519065942863728 11.321310508271289 10.496575839203302
Hf 10.418724556673038 12.023252651568967 7.944220152035799
Hf 10.370121799701034 13.888942869459854 10.068344862694785
Hf 9.64485964368099 7.554741993520879 11.311514785877774
Hf 8.141713159163851 9.999760217181953 11.77564234144766
Hf 10.97553279316477 7.123121223025898 8.750583130403367
Hf 10.726017601657682 9.667558405620907 12.803879719405824
Hf 9.500080694187336 9.507668306297465 9.242004197484974
Hf 9.608019649580337 12.301045502088217 12.380219854592566
