11
Energy = -86.95285636 eV
Hf 11.161722576233545 9.542122029225661 9.381353526680947
Hf 6.227391820369044 8.192262185160969 7.230882594316469
Hf 6.526501268548367 10.969287112860627 7.9390041183185085
Hf 7.581456746908719 6.635285277703243 9.177734732614423
Hf 8.8334208823163 6.660730562984382 6.62900163348794
Hf 10.42988180995768 6.796175416396981 9.005726067404845
Hf 11.271956995517991 8.18122024402387 6.843822631711
Hf 9.029295563676449 8.42719150552772 10.889474739379082
Hf 8.555065688345266 11.073020258882782 9.982247549474092
Hf 6.435635150040841 9.146288926040434 9.924095733491086
Hf 8.796128518914047 9.22487354367787 7.845113693949854
