17
Energy = -132.49656958 eV
Hf 11.703281184957214 16.223065196079446 14.356192080242847
Hf 13.143982941239969 4.454059911521088 16.0778424087502
Hf 12.648400538940736 18.981852554708865 14.524323606836582
Hf 14.791699816193733 19.46294029082662 12.539293941029113
Hf 13.597259429182827 14.855211888418491 12.377164020938132
Hf 12.69246930931555 17.581592106588058 11.90247545090311
Hf 13.966268992146686 14.5328519952044 15.541720860313204
Hf 14.388229820795408 6.603396792832761 14.970487380902927
Hf 14.342175203602313 16.87714153399295 14.112178694678033
Hf 15.49750951188032 16.8670842112731 11.519492990206805
Hf 16.325687466049096 15.01670734449617 13.691228459336173
Hf 12.944804086987192 4.896242278980484 13.424403415167768
Hf 15.287190540954924 4.085860700813791 14.482001079182316
Hf 16.057520189757977 16.380317091074158 16.316993138468348
Hf 15.199662810410294 19.109574640755596 16.019884076468845
Hf 16.91013562309381 17.864658245166417 13.910236456166073
Hf 13.258017582968842 17.090185356144875 16.737783817663075
