17
Energy = -140.28268229 eV
Hf 14.849650983784956 9.238382184142887 9.232369631805797
Hf 12.285078321722018 8.525875536262928 8.330646257028368
Hf 12.981538584800205 11.222831292788099 8.445671353575465
Hf 12.922253827316467 8.257076342433335 11.03337778184379
Hf 11.819654516732594 9.694785271115785 13.254790236623283
Hf 12.186840001382347 12.594029223072075 12.998528968663473
Hf 9.718986689408954 11.546454407922003 13.763960528253872
Hf 10.723323756222667 10.86899274636789 10.886869392611679
Hf 13.72705739269835 11.031086242172158 11.278292168203178
Hf 12.054719753103418 13.309353282900306 10.162408578043475
Hf 10.12397633226196 8.076084699028923 10.113315928294126
Hf 8.845601333025465 9.178482549952808 12.499211998353491
Hf 9.85660541393229 13.696559900197219 11.882460737150959
Hf 10.187082586810154 10.376919625776509 7.993095006597427
Hf 7.724980427504219 11.854245821860742 11.755753790252244
Hf 8.113319925411618 9.999777539837352 9.774140556016517
Hf 9.105647632180634 12.7809002140674 9.296418033631147
