19
Energy = -157.45621501 eV
Hf 13.287374631592611 9.514750746146097 9.882464639441437
Hf 11.259570125156054 10.782384572808287 11.801111441662975
Hf 13.47583174779661 12.276502554839482 10.142503562327457
Hf 11.461030577175803 10.849743928473742 8.092205283965864
Hf 12.299078489338227 7.971485276113836 11.82518388133597
Hf 9.54315971610148 8.29265277281244 12.434453848396055
Hf 11.857090798059641 13.721623797910967 8.175234183614368
Hf 8.56135447733253 10.482276991165037 8.37881046573161
Hf 9.58476926968921 12.587049549292262 7.016930737265429
Hf 10.387504670665708 8.685148264758139 9.751599461319685
Hf 13.89340198954147 10.340868770932786 12.689178646697865
Hf 9.669344838524605 12.647714538518521 9.826096961433759
Hf 11.615347955429788 8.992819088677717 14.30215214647247
Hf 8.252756434779407 10.486813926462693 11.313441521907489
Hf 9.2632317912511 10.649478967364091 14.022488478559517
Hf 11.660017072540146 14.455339998152123 10.846534516370916
Hf 10.074711475587451 13.282729014160662 12.953562269934405
Hf 13.026492544094536 13.182955610793979 12.79484120519103
Hf 11.763219474639344 11.712006833340995 14.620054848022793
