18
Energy = -148.66615793 eV
Hf 8.574000175196742 9.970180452804309 6.468188306658666
Hf 8.028459819087006 7.387040458567343 7.161598013371031
Hf 10.905891503841145 8.31192798015164 7.202172298650981
Hf 10.761938293048473 11.26607422370832 7.04724806890649
Hf 6.327478150528751 9.836917774741341 8.02725865686687
Hf 11.141772119563003 12.497009937271331 9.495334706849224
Hf 8.313412616553531 12.038840801975377 8.552461674980655
Hf 9.852727950580302 6.331696974876768 8.983856122924047
Hf 12.72669718704426 10.222040992834103 8.687358851593325
Hf 6.695529131218499 10.85583200595915 10.598789840544635
Hf 12.101363483774133 10.67788359262916 11.3498258549249
Hf 7.650631299452528 8.149402166445046 9.842514725733132
Hf 11.907005328469491 7.8450171269690285 10.376713715723348
Hf 9.268771015553149 11.616664133945523 11.698899654355033
Hf 9.970144899593535 9.815365458490014 9.543066318596287
Hf 9.401242205763548 6.799145845434109 11.645421883413723
Hf 7.752504586784284 9.166513453556934 12.50017960426571
Hf 10.492722811616186 9.084739197309093 12.691404279310529
