17
Energy = -137.39674037 eV
Hf 12.631545181088654 13.019318013395049 10.836995926688747
Hf 10.832190161298154 15.075523390849805 10.99694894927983
Hf 9.683983505517666 12.722329629880887 9.567757251473212
Hf 8.270270638271603 14.770092409434183 11.084160423871797
Hf 12.369613451605911 11.453721214834244 8.429087907337665
Hf 12.61429635995432 11.405893323594805 13.225371383609145
Hf 14.148874031628017 10.285370179958527 10.720369857458062
Hf 9.790715542968611 12.657647776496677 12.40529820240789
Hf 11.30005665275591 10.480483106926108 10.883798651427218
Hf 7.123676487592663 12.456971962791359 11.066588223046537
Hf 13.557281888496995 7.2802475302213585 10.720573801159556
Hf 12.449527838682261 8.713655387730418 8.7813582421301
Hf 12.676308622043583 8.668607691051795 12.807602284922714
Hf 9.873719405179713 9.706141719569475 8.55444770002417
Hf 10.143821684682806 9.636131245510274 13.343740606201619
Hf 8.463778441892325 10.07001734517556 11.04011950578459
Hf 10.531293801606374 7.726420346823866 10.902118431443308
