10
Energy = -77.53346607 eV
Hf 12.232146953919521 10.078137101900412 7.996786436652329
Hf 12.693302317599974 10.055793207477754 10.70191936506276
Hf 10.386540850001474 11.38242797674837 9.732803665786657
Hf 9.658618540360184 10.065258588977127 7.2646266313661645
Hf 7.9995052443755545 10.509297031730512 11.265000476011375
Hf 10.543476632950775 9.604592054908972 12.22054695485029
Hf 7.71778626711174 11.596483702202807 8.694271857231225
Hf 8.527498691887521 7.7630433845693885 11.485685758267673
Hf 7.789522872238792 8.842467990694995 9.004855377049763
Hf 10.657327951784072 8.364989403724184 9.612396447193303
