18
Energy = -145.18470423 eV
Hf 9.971234005741552 10.372215014625512 15.302960120376527
Hf 8.929664209582748 8.17501691169046 14.46625584628025
Hf 11.351250665842498 12.199859079934871 13.778769433982372
Hf 9.533106040828253 13.406106500325278 11.85956890740617
Hf 8.814093563233037 10.380370232530025 12.561330000589544
Hf 8.980757817467895 7.442856675865921 12.008283964523702
Hf 11.323074413090186 9.005366032217378 13.011352856592003
Hf 12.56029205038834 13.78562417157599 11.669138617299613
Hf 13.693873726706135 11.06100509936316 12.509879557793724
Hf 11.237629685659712 11.265280295079416 11.085020183260388
Hf 10.08027752064519 8.908902343758532 9.951315530934458
Hf 13.659259565384374 12.082178342447003 9.589994561212901
Hf 8.810486349995774 11.511808078583018 9.621125107014016
Hf 13.619418394811088 14.894423930371437 8.999451451962791
Hf 12.963071008669953 9.149106754126034 10.294815765882529
Hf 11.099537764266923 13.53015145047118 9.181570305376706
Hf 11.447957131612139 10.811222658549118 8.21794240554536
Hf 12.980614054218908 13.205636508550642 7.037059793927856
