19
Energy = -157.47305873 eV
Hf 9.17300480206896 11.737632539364906 7.303643487507333
Hf 9.890807590862613 9.074400320202047 7.054716884037666
Hf 11.92505531902869 10.981592134526577 7.798296005434465
Hf 7.35956446390302 9.73728211645453 8.894564389972802
Hf 8.020679991233637 12.625606181537398 9.650397805400159
Hf 10.742682953026279 13.204557973217165 9.236331271948627
Hf 9.319053672247204 7.2992038499665295 9.102233483231378
Hf 12.012316733655085 8.341031683280972 8.870333839459084
Hf 9.82672738672107 10.174533965665425 9.776486829214365
Hf 12.233281245546113 10.731415182119557 10.946471954641588
Hf 12.87438975543619 9.16557258537426 13.214103896675361
Hf 14.470522524689416 11.440858642902665 12.520654758590961
Hf 7.585619872238464 10.88685334518693 11.712938073381967
Hf 8.163629074427927 8.23080009199202 11.431039447733891
Hf 9.904655949603736 12.763495429028469 11.922473207746927
Hf 12.733780610303672 13.465226549418967 11.476830460641843
Hf 10.922088203701525 7.681934623022313 11.474017727355989
Hf 12.0394427273759 11.83661098740409 13.69731969276645
Hf 10.000419906702183 9.819114582106849 13.11486956703024
