12
Energy = -95.04391599 eV
Hf 10.843526960793817 10.255596592831598 6.761365364451988
Hf 13.281987937567505 9.37848620017913 7.904833576938099
Hf 10.97677039560465 8.20999516374996 8.648822772464348
Hf 8.971284815001743 12.635845898171796 10.069516831968803
Hf 11.596049381629335 11.09720351195612 9.233605620028042
Hf 8.834741123239638 9.983752593555788 9.012728147804415
Hf 9.89732534021245 8.56296145670103 11.287253897535116
Hf 7.846394207034237 10.48471827088828 11.631848089297588
Hf 12.690941459303504 9.055453847699715 10.807283320008944
Hf 8.58202352366784 12.664144052982 13.024528705878689
Hf 10.704027384737255 11.335558550902308 11.86991130868897
Hf 9.375176088932808 10.102528255732365 13.911199816101362
