12
Energy = -95.44306722 eV
Hf 11.117723951467715 9.07343012237085 9.60324960069153
Hf 11.316026833006523 10.763109564295158 7.564614186268158
Hf 11.888170218097079 11.439480077735576 10.530513161621677
Hf 10.01257062257127 7.957951365316925 7.4574991123020515
Hf 10.938992225966343 9.0607358320404 12.250094367991602
Hf 9.779378339275139 6.906467055347202 10.353621038806914
Hf 9.46665641501459 11.461496907740958 11.993600793314013
Hf 9.699801946682479 12.513510299261654 9.096628766217135
Hf 8.540436796822048 10.360675354409604 7.198043864283769
Hf 8.165189336500687 8.656664970367284 11.882982126674607
Hf 7.591389609140605 7.979116685754134 8.921688388538938
Hf 8.354011256139598 10.348663675528881 9.848897723665683
