14
Energy = -113.13213547 eV
Hf 9.64778693641472 9.549182955651679 9.844135513903188
Hf 11.686352353576009 8.015632197622233 11.240083573801058
Hf 7.362307042068344 8.18635799819696 11.084831849395385
Hf 11.627984899398763 11.026725254396215 11.292681024075744
Hf 7.713721629577554 11.20206451765203 11.153099552100093
Hf 9.754668090902191 13.135912074109985 10.590575640580587
Hf 9.465748021319646 6.308914717681604 10.580409820538932
Hf 9.690606418028986 9.61954268588882 7.2203554371284016
Hf 12.501295686233084 9.568153244454983 9.046297629803806
Hf 6.851260341004264 9.80826562671488 8.862930371400598
Hf 11.167641584178835 11.917855606674422 8.582534031347178
Hf 8.362527577132658 12.049959745545111 8.464266404712822
Hf 11.061865031343979 7.24687557452326 8.577366112121197
Hf 8.113520426520624 7.371843319737644 8.46771777966607
