14
Energy = -113.66468403 eV
Hf 12.114075061074882 10.346721734258956 13.38389642871967
Hf 12.6100158336523 8.829478546064149 10.483457405965115
Hf 9.320766633275696 11.436208900939247 13.182216099283695
Hf 10.068179053720275 9.245105134244367 8.954038641293078
Hf 8.147464868772103 10.856595387856267 10.529966127104746
Hf 13.687114609602727 11.544532922580181 11.144334040966157
Hf 12.43938212042344 10.95777576017586 8.529997336627176
Hf 11.703099566868044 13.115290935231915 12.681405906056138
Hf 9.769986316116611 12.183536442419056 8.468331552302937
Hf 9.315452637895744 13.50898072053836 11.015801749162787
Hf 11.949974962920743 13.56743732237085 9.78751168119295
Hf 9.600855435144519 8.750415027090517 11.863710436039142
Hf 10.918994583436096 11.114578326276972 10.8802159056926
Hf 11.905861857303151 7.661822982747747 12.870762149674517
