14
Energy = -111.15963982 eV
Hf 11.284757874977162 13.598521752616293 10.780529216004382
Hf 12.784252470124365 11.584213926818302 9.36281897502513
Hf 11.583077589384859 11.181058646086301 12.034877196551323
Hf 9.883226114317818 11.98759306375007 9.063867581863848
Hf 8.889614310652243 12.35283456029205 11.812655675112461
Hf 13.534628830196588 9.460673422195079 11.170133437523809
Hf 9.571848027820701 10.243730429026233 13.622575963023891
Hf 11.23138389612333 10.5406371466396 7.190156952913174
Hf 11.562118418230154 8.910638677165975 9.350662024504562
Hf 11.107586895030154 8.284579442625493 12.204016205569358
Hf 8.619366025124366 9.484277471657117 11.187378722052891
Hf 7.2874100995945374 11.318813429355101 9.644794241580552
Hf 8.862202939554301 9.338437286399909 8.258119783260645
Hf 9.556579234986138 7.1755587341024 10.041811972799062
