13
Energy = -103.44832501 eV
Hf 7.924617569615615 10.21019692431852 10.450032423407285
Hf 10.890309823766648 10.28474318676295 10.429787829774506
Hf 9.67877771877099 8.215913273215882 11.810494485906771
Hf 9.490917773413614 11.985787982463425 8.789145816340517
Hf 6.9376986243061065 7.857757876504556 11.544595988351524
Hf 11.459762792909348 7.743614303291721 9.570581384632018
Hf 12.133136779913235 9.889363142838029 7.918628830506698
Hf 5.934491029122083 8.471236808584145 9.067976551258335
Hf 8.560418235384073 7.348586380188848 9.286839487716353
Hf 9.565596210876452 9.726343782745978 7.342544797565831
Hf 7.025208380395925 10.617995631115551 7.700843915193693
Hf 7.53422746869045 7.954564149318419 6.674955181606363
Hf 10.498477732753269 7.2525086489403785 7.01031200730935
