15
Energy = -121.76229473 eV
Hf 10.50380735753504 7.745717406957929 6.457961360850172
Hf 6.60017864125176 7.73559052555451 8.989138077880641
Hf 10.342486561165693 7.7423598105424345 11.754695904691184
Hf 7.825729386444424 9.083253933154213 6.538748226939879
Hf 9.254494147254492 9.0643438765599 9.069326710137437
Hf 7.674204297066849 9.08023137898355 11.512010488894965
Hf 10.380622172177551 10.343858750833245 11.748468391680161
Hf 6.633043879763251 10.447018176399219 8.991985546100672
Hf 10.538959418771537 10.34924271555632 6.467274093599442
Hf 8.632031594734546 11.789525890879489 7.623871079953064
Hf 11.012832430321376 11.535546287555407 9.124480880876026
Hf 8.544973929571793 11.788050354122348 10.480035271625303
Hf 8.486019386678636 6.348416310061798 10.472627740416051
Hf 10.969376150306939 6.569328523169385 9.12203757375763
Hf 8.575003146955456 6.351278559670125 7.621101152597472
