14
Energy = -113.31732598 eV
Hf 12.72391145157741 10.247427249947826 8.545776807160433
Hf 9.963152182994774 9.73848892611977 9.63333615910746
Hf 12.436757564631915 7.847979957103857 10.247410197084273
Hf 10.53409364860584 11.798941881867965 7.305889742865989
Hf 12.462076851038532 10.347753574074433 11.3289786250543
Hf 7.880622374256171 10.589813922683891 7.482725321461383
Hf 11.488453328128417 12.409785837382307 9.790860417160198
Hf 7.423233062472508 8.05614314460938 8.974056867522751
Hf 10.725384131538695 8.379064547945948 12.316642118664461
Hf 9.754018365263073 6.734198653843892 10.288146046223314
Hf 7.0336916053702385 10.526836311083052 10.097627136395456
Hf 8.040655296438313 8.419278138745785 11.622670743259137
Hf 9.527849621316681 11.167609616833053 11.860078795146372
Hf 8.744354143959237 12.549042227424367 9.23938754875627
