13
Energy = -102.92868271 eV
Hf 7.601527145338952 9.432721308872214 11.99505916883888
Hf 8.925668332784566 7.071989610668236 10.877154699505171
Hf 11.73603980673399 7.579872884505235 10.241227782973679
Hf 7.5967447070271525 11.450983929687359 10.131810140549952
Hf 9.91922164341977 9.747585142892447 10.39509044754585
Hf 11.908800490986456 9.524166322153121 8.309091826520373
Hf 9.865204778644177 11.611770283370172 8.29889786439266
Hf 9.82361126066266 7.505669195360205 8.16223675348898
Hf 9.784436745445115 9.61223112959839 6.31400476346627
Hf 7.134852008283927 8.706930236795495 9.301858893051724
Hf 7.469598683844092 5.993368942925679 8.568900351909416
Hf 7.383624078010605 10.684627541341591 7.3291929945135355
Hf 7.450716866098677 7.864784675227092 6.55459699156931
