11
Energy = -86.48276571 eV
Hf 10.591662124867556 10.855510471622098 11.91268395199174
Hf 8.694993033237804 8.844117553283626 12.080188645802167
Hf 7.561823172823152 11.105182684025014 10.963496752597575
Hf 11.435216061086098 8.33066089035517 11.151000215918842
Hf 12.351974714014341 10.206350084948914 9.343125822872514
Hf 9.592515249543906 9.903472475313286 9.486286437610962
Hf 7.462003428617806 10.709001632040867 7.858527818772833
Hf 6.922437900334749 8.71859211590262 9.712543253108139
Hf 10.469704849680257 10.145869595631446 6.84138114331897
Hf 11.31228681288529 7.898607008963847 8.227071320028402
Hf 8.533588988051044 8.234924407324712 7.283761590761228
