11
Energy = -86.27520299 eV
Hf 10.808290811508604 12.926312037694466 9.43478243991547
Hf 8.39576471334341 9.069726611816517 8.26911706950293
Hf 7.257647408583657 9.566913742883353 10.69543563867613
Hf 10.46552111316206 7.4549991956699575 7.8328891418471365
Hf 8.809859897736851 7.163322658792692 10.298122200482855
Hf 9.420459813567573 11.23190941059977 10.931418468170751
Hf 11.37226504401412 8.32335841434663 10.178962696753553
Hf 10.965109407589143 10.458804595362274 8.227810989326285
Hf 8.275354988516648 11.783013101817307 8.527057369258777
Hf 9.832573651399423 8.922254400812045 12.347660620633956
Hf 12.110099821394048 10.821965819977365 10.990897095428522
