11
Energy = -85.67562311 eV
Hf 8.007566955166654 9.308460963326675 10.925809787238174
Hf 8.0096972249393 9.30182494953333 8.038600875878874
Hf 6.8267839574073905 11.431099114452831 9.476482334187086
Hf 10.15745462323319 8.004782118247022 9.486955417110089
Hf 9.790841202376589 11.077002483524444 9.479310934001347
Hf 5.612438370640345 9.018658972898674 9.481114034606698
Hf 7.360746919194174 6.962482455620717 9.487067738709456
Hf 11.38876803537489 9.716784870319632 11.406153571090913
Hf 11.391945424043492 9.707485455068442 7.5616347222491145
Hf 13.04805156025627 8.503802691808001 9.488184149492836
Hf 12.718210986792531 11.280120925200237 9.481191694860506
