19
Energy = -157.47405496 eV
Hf 11.767139095246272 9.044053535036358 14.165641018295995
Hf 9.303857569900403 9.029325156906214 12.777310077891567
Hf 13.43086194960416 11.265543152228831 13.631972638548865
Hf 11.436776557654978 7.465231603960783 11.803285555438485
Hf 11.5429947230756 10.464055003128811 11.53756059409132
Hf 10.428305335712787 11.623271573657549 13.877483108108466
Hf 13.942442038767602 8.823309752870525 12.322947673266162
Hf 12.90843127910639 8.655119957705795 9.67019795811869
Hf 9.880148301394915 8.911865627772652 9.797803077174818
Hf 14.163446606423268 11.232615452339584 10.685025802732364
Hf 8.452619572247531 11.29795020530046 11.365625790197038
Hf 12.450927626066726 13.465064553616346 12.193507912058061
Hf 11.974160343672901 10.839517383682587 8.464286083823039
Hf 8.82517703454047 11.251394835482367 8.461737135713749
Hf 13.203951117227355 13.624456820383157 9.368872185069717
Hf 9.523580441836547 13.867568085108758 12.372714304356789
Hf 8.092555362837965 13.779927479537996 9.934231591248032
Hf 10.602943772311093 12.875160254682823 9.76311534557542
Hf 11.060434389671729 15.388363778145878 10.54939496813106
