17
Energy = -140.65314228 eV
Hf 9.777404922152291 7.45222171713714 10.385574071479438
Hf 11.424655978478324 8.197242412722062 8.076150412561669
Hf 12.745257029565611 8.111369471559986 10.348317412221224
Hf 8.750128687330225 8.89990891568186 8.05503208209263
Hf 11.514640990661086 8.105139747989604 12.797184146057063
Hf 7.430041727215278 10.180475126118225 10.423737328392775
Hf 12.832125324470042 10.714760113673849 8.97031456561495
Hf 8.939715145750217 9.09475767374362 12.709175921369264
Hf 10.726630219828122 10.519903289148365 6.864699599829818
Hf 12.86780011500462 10.382552271634742 11.896269345502919
Hf 10.2966120622565 10.28975329333856 10.256871385236828
Hf 10.863546871375542 10.854974160436445 13.728649303628064
Hf 10.67897972610184 12.744888385502595 8.51560115778201
Hf 8.171619451363837 11.608876551421856 7.91497799901015
Hf 11.206016094291652 12.783494456735795 11.395398615364808
Hf 8.576313656782762 11.819267161097715 12.58271247137848
Hf 8.520707160474327 12.98381576275606 10.227462155031398
