17
Energy = -137.62477707 eV
Hf 13.890765737739546 10.522398239860635 10.597499298986435
Hf 12.888779228744522 13.31613876500505 10.696787944337347
Hf 12.05820891475074 11.56109535494631 8.444308928830143
Hf 14.779659397166618 9.600074627317824 13.268965808083072
Hf 9.573243117529147 12.549707836266906 7.143427954178952
Hf 13.024732480063474 11.808096647489041 13.273015957071793
Hf 11.693057888745749 8.824148190003989 9.548229528237718
Hf 10.043481169728235 13.48046498103645 9.76590171194307
Hf 9.23435647448287 10.44855805973573 8.99440369310848
Hf 11.127337621774707 11.12288485377632 11.130043468222507
Hf 10.568195095580851 13.416992050074796 12.719694428367314
Hf 12.208529067360034 8.745957406983196 12.489014178215205
Hf 7.464994482343859 12.645782420226736 8.981128174899096
Hf 12.674324394872563 9.692038956870705 15.104060886879623
Hf 8.365120159156358 11.72232213873814 11.662648766763303
Hf 10.197095069862325 10.683606010695932 13.81832320603961
Hf 9.370996020914614 8.92563844335885 11.572514790668372
