17
Energy = -141.54741359 eV
Hf 10.040344822550301 10.69524578616349 7.644493267914028
Hf 12.768510283606727 9.855279969700447 8.624829137791922
Hf 9.043165081844014 12.79311962852298 9.045379968984907
Hf 11.72745803795529 12.704777270737598 8.462197467398166
Hf 10.174156794190074 8.311009028735269 8.76059357970703
Hf 7.894403856029013 10.066370529853776 9.68844079019093
Hf 13.60358560017101 9.774839731973605 11.54441099305013
Hf 10.712392173351018 10.71518407814957 10.716757631353238
Hf 13.463422141578869 12.226171977300568 10.398354801562736
Hf 10.9404513921039 13.723574970587444 11.206744193956096
Hf 8.36767470918364 9.993917038393793 12.680550557783762
Hf 12.011729477755035 7.821629160218607 10.747019021278486
Hf 8.219175631680928 12.448752736293994 11.524134729313943
Hf 9.328207110289691 7.955429034616857 11.31654296868921
Hf 12.617924834709575 11.872392201353918 12.94525843963836
Hf 11.209993023202417 9.207129887994837 13.327659887417074
Hf 10.042847323730632 12.000619263335233 13.53207485790212
