14
Energy = -111.28557933 eV
Hf 12.414255806237476 8.212478974820268 10.457705194182056
Hf 12.739956992997618 9.36787432722954 7.857307226578967
Hf 10.216604423470596 8.624612059851131 8.739164252381594
Hf 9.742058204706721 7.947848777316429 11.627598209473078
Hf 12.750717251910494 11.052203668626518 9.972586055277512
Hf 10.557547449712782 11.502049055641944 7.917798010474608
Hf 7.711878913983831 7.618833363345218 9.359829415485908
Hf 7.9531352110798545 10.167624329045479 8.075422451268842
Hf 9.116652302904667 9.99175273495381 13.372244311067089
Hf 11.834922001788144 9.833541392168476 12.694141468729722
Hf 10.078633213343435 10.88792900811891 10.87248991775471
Hf 7.460134112375149 9.813562024068494 10.912684856952021
Hf 10.931461045559118 13.39506933319136 9.88969963335192
Hf 8.279571352899149 12.52231269515848 9.595345728747972
