11
Energy = -85.14269492 eV
Hf 11.655983815227968 12.05722485217396 12.056929954737585
Hf 10.966793854887493 11.761304344641571 7.142867087850213
Hf 11.463189530163403 9.370164802623293 12.338186170188727
Hf 10.325556697343293 10.53636963192202 9.818633413228648
Hf 11.143867196929676 7.803945343524531 9.86439984142868
Hf 8.485220233894857 10.712514330660175 7.45598202204877
Hf 10.738820156491757 9.063906776381243 7.233702213145727
Hf 9.20665331705239 11.012857416393869 12.56620796540585
Hf 7.507351838573636 10.457042829479807 10.222299951556506
Hf 8.55171833776576 8.243068206710923 8.754459437292455
Hf 8.955317696172536 8.41272769668294 11.590891863212667
