14
Energy = -112.18579613 eV
Hf 6.989486495804617 12.69162135939195 10.873887476049877
Hf 9.551008218547857 9.763223443958966 7.70235497137199
Hf 8.075548363762202 10.499266139248082 12.119152894831924
Hf 11.604757645917152 7.9164880929486365 8.54681325228958
Hf 9.522925556648103 11.894135957684963 9.860656588377958
Hf 7.266914960242711 10.24959255901723 9.413610742399273
Hf 11.929574648750878 10.600195134583833 9.381250376903479
Hf 12.210326998094256 8.27584593748347 11.292165812237585
Hf 13.692911414239532 10.672834248284406 11.59027732296092
Hf 14.160051013243603 8.839765197404493 9.446161050507452
Hf 9.479396521939192 8.67933424538511 10.29547770656151
Hf 11.979241994502269 12.984885412550767 11.25671548503155
Hf 9.353809425521323 13.006488633033845 12.456201846352712
Hf 10.981953907721278 10.660901493790758 12.483092415956015
