19
Energy = -155.56800393 eV
Hf 11.452998629796586 10.724183015671272 7.243746946660966
Hf 10.705931074170017 13.465973488500193 7.935581832583205
Hf 13.131354739103019 11.547500334359832 9.321467620833635
Hf 8.939113815823475 11.296319693612777 8.230572877787033
Hf 12.906406648587462 8.770419868176903 8.617781243015346
Hf 9.88937570327128 8.573905336444367 7.988973738317382
Hf 8.26420519154816 13.444420669496573 9.944537184332743
Hf 10.733223221686817 12.805987009158239 10.594709332506916
Hf 10.947850743421293 9.315680155225444 10.388463946728587
Hf 8.305072109225325 10.681399357935877 10.875705046243958
Hf 11.354723482375405 11.04066414260414 12.41354357933068
Hf 13.717451447083418 12.775811724823646 11.904033545350034
Hf 13.890861749717132 9.9041633771007 11.521618219084042
Hf 9.130380415397664 9.34637680507002 13.270938361555345
Hf 8.859893854458349 12.24512745299425 13.153843945428056
Hf 11.587960333799133 13.393999342642026 13.770683682833846
Hf 11.961120678851193 8.638483080554469 13.479846455337656
Hf 13.470116891261348 11.128945833188272 14.200467490353704
Hf 10.70228691188191 10.850966953901054 15.093812593175352
