14
Energy = -112.99433674 eV
Hf 9.350811396492363 9.146725939888736 5.746935262272993
Hf 7.961603270919481 6.764459032555668 6.521283700052202
Hf 8.456983927853102 11.395681459819238 7.147812187847292
Hf 6.670244254116207 9.24572143284642 6.525191030283622
Hf 11.057494344826928 10.481773614028402 7.6108008857873255
Hf 9.871828186506233 7.948290368038152 8.30906459981449
Hf 8.287179001349905 5.716421131101647 9.171932066091307
Hf 6.063245291004912 7.271898722807126 8.503294526318157
Hf 11.377953690176701 9.440699955100474 10.252370268736243
Hf 9.629102170892056 11.56472703341015 9.75557442817793
Hf 9.997029305946299 7.061837787314806 11.039838119299024
Hf 7.655147650183702 9.559744106422984 9.204059402528236
Hf 7.233385507571072 7.440944628467624 11.103464135256333
Hf 9.013608931583473 9.586691717621145 11.73399631695741
