11
Energy = -86.6105476 eV
Hf 10.982616977520848 10.065701715433882 9.082139693371454
Hf 7.835822443338758 10.841238715109075 10.37149976285478
Hf 8.379375556745178 8.332564859644272 9.42917005384767
Hf 9.927943434025396 8.139094961475106 7.262443050351467
Hf 11.702508851750402 11.612835253335948 11.488854509830002
Hf 9.155630982704935 12.254219807672971 12.361507729000675
Hf 10.927165769895787 7.290631894318095 9.872124698158547
Hf 9.956564019736676 9.320421480643617 11.79958608161759
Hf 8.607202997726779 10.609188444597269 7.689682901830069
Hf 9.744011405521514 12.703087689609681 9.605273533909285
Hf 12.659788405270465 9.0864284081403 11.13912320110737
