15
Energy = -120.92025864 eV
Hf 8.930571377657317 9.603816034896486 11.492237308094007
Hf 11.801526208499693 10.036733613767428 11.867392876880713
Hf 7.6719352363267594 6.9616011536941835 11.568115039746205
Hf 10.619344184112714 7.345923584468891 11.388324838288254
Hf 6.500717753721361 8.989105717379532 10.013138165698365
Hf 8.870615614726427 7.377464891888901 9.087275948073657
Hf 11.29634930233062 9.183823560502235 9.263148332019297
Hf 8.300536102055439 10.732323713989492 8.588281092224054
Hf 12.937577668138902 11.45995272851147 9.669586038824546
Hf 10.340985277140303 11.848494452102116 10.291290141933594
Hf 10.799324918422966 11.46068784758964 7.462599471813876
Hf 8.477230303009144 10.771860807993049 5.749412392898829
Hf 7.004300608652127 8.63486123310753 7.187546605816442
Hf 9.881353576321835 8.781386222596854 6.81859116358408
Hf 6.196136643858428 6.440469437512463 9.18156535907786
