18
Energy = -145.07502888 eV
Hf 12.047856629084468 13.101849977188316 12.65360005625379
Hf 8.380165808751926 10.756989553674845 10.251193887283675
Hf 9.875871907160304 14.830347724106986 11.81360286136098
Hf 14.615922414129413 12.836986624042769 13.49262161981196
Hf 12.220783088914276 10.665589065677624 14.061568947262007
Hf 10.190497735758896 8.925996527268376 14.655911171699572
Hf 12.571665687171429 8.451471531650393 10.233981168324286
Hf 12.059219644827119 14.245768609077567 9.91011997108472
Hf 13.554722059799142 15.257960307838783 12.15690604552957
Hf 14.34671410186945 12.890239092148736 10.727984979779679
Hf 9.512679251979513 11.88202241464428 12.48366667156536
Hf 10.500752995284767 9.211211358681572 11.998042097133553
Hf 7.371449566856404 13.2443246590123 11.292847277929008
Hf 14.111317257244725 10.249653162219987 11.884915606355234
Hf 14.062367156391046 10.418498812033542 9.069444170072547
Hf 11.598359316645562 11.255168666724204 10.170208659315373
Hf 12.642187675497468 8.022998594317293 13.273715042319468
Hf 9.454864791502835 13.19370580282742 9.595853645698773
