15
Energy = -122.97803113 eV
Hf 9.93259167070086 8.531992518411277 6.826055276144302
Hf 9.512068081866754 11.39430348545401 7.34390389356059
Hf 12.075028069729692 9.8909549131877 7.799538436563844
Hf 7.409836333702468 9.372820494818965 7.400279292667973
Hf 8.53095264223793 6.884150550508926 8.490259882024056
Hf 10.634658182101616 11.116605126373992 12.041990962560474
Hf 11.322203430783503 7.325662588967217 9.119311930097526
Hf 9.582489593163135 9.585199471634636 9.58896320541227
Hf 6.540354582621837 10.16276063015901 9.9292678377512
Hf 11.325881093761728 12.027097789858043 9.47376170761377
Hf 8.564626293769182 12.227025662218836 10.186078811276642
Hf 10.323386092194735 8.11611225188103 11.953676768635336
Hf 7.599050545987789 7.661808004520049 11.001229687783919
Hf 12.412899587416847 9.524726657675672 10.584089111672625
Hf 8.12706742138295 10.071873475751234 12.154686817656374
