13
Energy = -104.38623792 eV
Hf 10.96709727951067 8.921644641923242 9.61582238561862
Hf 8.284378559553225 10.13392707423812 9.862650901335456
Hf 10.18307289621932 9.996687973100599 7.210349667328233
Hf 6.491858424957446 8.011227874933914 10.847383332136372
Hf 9.1146147764124 7.674721750207474 11.090344700564101
Hf 10.98630662049538 7.315495418781406 7.213470404996427
Hf 6.033753722284593 6.173418112259177 8.6558022279433
Hf 8.299976906530034 7.942476439859005 8.245412728492228
Hf 5.462202128268145 8.912347367767591 8.472584099059938
Hf 8.377037544607324 5.641677366683941 6.613305412843298
Hf 7.378501155218951 10.163132317803154 6.762255648364813
Hf 9.002537240229154 8.134443193435864 5.405493842234185
Hf 6.273146823996897 7.4994807064502265 6.164825324814898
