17
Energy = -136.31802412 eV
Hf 13.539384752506017 10.12112201519934 8.535635053377831
Hf 8.923491788106292 11.404302728489194 9.694060124297527
Hf 10.795219081290256 9.392054475944647 8.388120368514482
Hf 6.2338787920931304 10.991107894503257 8.929297111939537
Hf 11.78664390021655 11.941815507553017 9.6685075943919
Hf 15.462209274351238 9.197940989261218 10.103670168530774
Hf 14.590673413854784 12.07609678250218 10.253625712837156
Hf 7.191530647601332 13.552104663172814 9.660926593794036
Hf 10.710967623837105 9.517695720187751 11.052596286092417
Hf 12.914281935238742 7.866605770966626 10.1867722567755
Hf 6.698708447213548 11.617908507926273 11.572467840224256
Hf 9.043822708656803 13.231919937996947 11.879977062919131
Hf 7.795474555268519 9.078473321082253 10.520835758494213
Hf 13.722303666836451 10.106563706518093 11.97694473217872
Hf 11.544419670325606 11.816870192769473 12.602488084471357
Hf 11.648408123250746 9.043000577347144 13.470487425327736
Hf 8.888844760409093 10.534680349635135 12.993850966889292
