11
Energy = -86.80975367 eV
Hf 9.836001703070167 12.407054298095611 10.174562805965992
Hf 7.61814844905104 10.767455406738575 9.492611881914295
Hf 12.330316375622361 11.003755000239952 9.344983703820718
Hf 11.43586294514426 10.947967100130178 12.024645643150416
Hf 9.949409137280965 10.634660191133536 7.894125702886351
Hf 8.401990736545521 10.846920330096438 12.186526092999376
Hf 8.382708993593218 8.370223219567416 8.2650792835717
Hf 12.831072192759931 8.727683658222055 10.81415980492624
Hf 10.006709199386219 9.088502083612108 10.53296942896709
Hf 11.667249001459382 8.46423212174767 8.251164228100416
Hf 7.28510707299094 8.487537276233864 10.920793814227133
