19
Energy = -157.68285986 eV
Hf 11.660163811279961 11.36246343301413 7.792419300119847
Hf 8.169729425384492 7.945206145369188 8.476839441893691
Hf 8.92826348684138 10.707052834934588 8.11897194922118
Hf 10.998163945440652 8.587974611417613 8.2990800985711
Hf 6.8223738525104425 10.068906904051136 10.00624551229626
Hf 10.632754417307666 13.587700127277829 9.417882973052048
Hf 13.55840946243734 9.882814170455582 9.264207645620441
Hf 13.322374163151107 12.500212881050041 9.703300281428241
Hf 10.23985233675201 6.4900271700999435 10.048546244766351
Hf 8.05031885945277 12.467531021084193 10.187976190658752
Hf 10.871482828015075 10.982966390577763 10.709077102797359
Hf 12.372257015772831 8.114340501009199 10.86476174231692
Hf 8.795865248316504 8.509931481179418 11.02915755214642
Hf 12.253857705083298 13.337793290756672 12.015364343451344
Hf 9.507096106764491 13.381224082484463 12.222105482340396
Hf 13.327569248932008 10.581882128780913 12.180137552194273
Hf 8.39381843620846 10.79561102157488 12.645305804866643
Hf 10.79695607085195 8.876899380934411 13.003868529738572
Hf 11.002158477789594 11.522927322239486 13.7182171508119
