11
Energy = -86.43640241 eV
Hf 11.73448775851866 9.749580958035152 10.17161466374038
Hf 10.323930690329444 10.744422796291957 7.828422226172755
Hf 11.772539959378308 12.448204288987743 10.018885457042963
Hf 10.40976148126568 7.967466850820551 8.760441525351235
Hf 10.435817394339177 7.5784768263854705 11.550072841783704
Hf 10.765524841426833 10.88857687800351 12.365485920909185
Hf 8.640921484234516 9.457805543933114 11.10004541597864
Hf 8.623861874793088 8.318666354425615 6.8072992968839925
Hf 7.90437925279113 7.231478286321608 9.464582356123774
Hf 7.644767339739701 10.052681667932449 8.628636268394354
Hf 9.169492597632349 11.970064353998204 10.201822319739573
