13
Energy = -103.95482359 eV
Hf 11.057276374294204 9.817570957130494 7.519557257098274
Hf 11.45668887978085 7.655411158150072 9.31038065064768
Hf 8.98286118456438 9.148017338359223 9.396449132252291
Hf 8.925161332091122 11.641131656213052 7.935307240980065
Hf 13.234980817672625 9.85580756493409 9.35185619102454
Hf 11.585387495641877 12.453792212290667 8.455230073936578
Hf 7.029640358874609 8.579443854008082 11.344780822938608
Hf 7.070672898068468 11.082932793883733 10.187597252746716
Hf 9.471403788165897 7.303656009229921 11.491410244144298
Hf 11.255016383832013 11.02235161663086 10.650823985300555
Hf 9.2599085811904 12.782600108074156 10.466245056467015
Hf 11.838023285312799 8.724623835933103 11.866288438753363
Hf 9.045300176796962 10.170254583906486 12.24506214884101
