18
Energy = -149.21912861 eV
Hf 12.459241913003087 11.47653265608949 13.882370652757597
Hf 10.174218139608326 9.797137108240452 13.430061878078137
Hf 9.883401321916512 12.60251101588571 13.882718039325605
Hf 12.451604751124382 14.151034239969855 13.039052319929326
Hf 11.076766259869487 7.915594677337817 11.458682895776777
Hf 8.32250806261616 11.769011137514926 11.592408970746288
Hf 10.203695268511218 13.954297690490858 11.536684079840244
Hf 14.107551254924736 12.286532096615488 11.806016971156431
Hf 13.476729022835887 9.505715696387774 11.973300580288546
Hf 11.227318203612528 11.082317251534937 10.964935189776092
Hf 11.440402610450215 10.932651106233035 7.915074618133999
Hf 8.834810737640852 10.38671277329598 9.112781606629676
Hf 12.693184697252313 8.688907244362214 9.347989438900175
Hf 9.678310709510589 12.905109857297997 9.149131438412214
Hf 12.468841547650188 13.577107315541491 9.724983201303179
Hf 13.868759573293222 11.079179842697984 9.445984954172978
Hf 8.441192983480288 8.883022156998532 11.354530293614781
Hf 10.049950905914901 7.973184911853914 8.852341556517183
