17
Energy = -141.52030071 eV
Hf 12.297738124683006 10.610597303273199 13.825601020835634
Hf 9.585880364753434 10.205580139505813 13.58431340307277
Hf 10.568084226074882 12.745579048979303 13.612005940113335
Hf 11.389079708666431 8.295015584258703 12.087009901064988
Hf 8.28939646845677 12.19982762059245 11.703188774529538
Hf 10.560159641221896 14.184568715928949 11.405836122337334
Hf 13.213052933504615 12.94663296944491 12.141302123963623
Hf 13.884593977233369 10.002737364046808 11.805484923433701
Hf 11.064173772477755 11.120371096003565 10.955134858071082
Hf 11.336329378432527 11.04582445007718 7.916504699460741
Hf 8.568861221738063 10.711552180806569 9.08769573299632
Hf 12.868348080685161 8.968524150068015 9.51808797557248
Hf 9.538961038793078 13.156554888959604 9.115794132472695
Hf 12.248375099436732 13.572903804933347 9.331742953615054
Hf 13.868020957134304 11.493572311847524 9.540954850231543
Hf 8.605850035100714 9.20463414997742 11.3479747002544
Hf 10.272389314120975 8.55425837685946 9.269458773071468
