16
Energy = -129.68997365 eV
Hf 11.296818005384466 9.647254784223033 13.319929622376616
Hf 10.06903805925073 11.896257687881313 11.926502098323176
Hf 8.564742792458249 9.689800253557515 13.022946431870356
Hf 12.980228918350067 11.078604210637293 11.661717456231067
Hf 7.089900450418258 11.556590742414214 11.354920151275772
Hf 10.035415239910177 7.451017758640753 12.061310195316441
Hf 12.989054151869528 8.201773704751307 11.63916033936515
Hf 8.970962986267246 12.252460155992868 9.396899797040408
Hf 6.964599356712509 10.962212041854277 8.239393501417698
Hf 11.778582678928128 11.981024057983811 9.004125679969967
Hf 7.8427824709216285 9.142548469112256 10.352403946186888
Hf 13.611301705106337 9.86875801206146 9.303269174120176
Hf 9.701654607336854 11.591390288299058 6.779643856208727
Hf 10.876789437664845 9.496608095149545 10.247169393589688
Hf 9.08467200004801 9.161483220603786 7.87584527492102
Hf 11.772392304592765 9.698000720774857 7.209157496320712
