14
Energy = -112.0932318 eV
Hf 8.278361642183498 12.252142350376483 12.080699316374359
Hf 6.699776020962238 11.789119315180773 9.812421369467943
Hf 10.154594599243996 7.73249652704818 11.756358094206862
Hf 10.41292038329668 10.519614548694074 12.477273601651445
Hf 12.688164290929786 9.126768804938468 11.376861269262657
Hf 11.759530293350993 7.17085627833584 9.501811017819696
Hf 13.282949807859657 9.856751491671387 8.78113980304144
Hf 12.17747613115671 11.897836941208885 10.41256461125948
Hf 11.310191552660031 11.612523570514599 7.701864156562274
Hf 7.844570899003652 9.541834419730788 11.064987064734092
Hf 10.471600079429052 9.72457290771505 9.661547302069852
Hf 8.775360385716889 7.4537423411721395 9.339020235734093
Hf 9.366924713079275 12.488226240670528 9.47659984403675
Hf 8.10084526341556 10.223618851979 8.074051342291785
