19
Energy = -157.75350279 eV
Hf 12.859785738587837 12.361044490485162 12.262467609856605
Hf 7.520041981547651 12.114119601282438 11.284506990984475
Hf 12.2059264077444 13.41700011021979 9.604898163775987
Hf 11.10797655595983 10.597168494676282 13.68884889096547
Hf 9.27091713406994 13.354499094557712 9.635873293606066
Hf 8.349807336522415 11.324922747691264 13.919196638215181
Hf 9.249307706576474 8.628582584833739 14.263863875710733
Hf 11.186631193492055 8.119892413772195 12.051029084825618
Hf 9.787016064562545 8.069111462593945 9.729583014292936
Hf 8.337527568743582 10.624885192643829 8.809505575314459
Hf 10.705949370124015 9.418364069270213 7.562548406260087
Hf 8.451839898155466 9.535020579768396 11.725799470828816
Hf 10.101664734058053 13.024483086696241 12.321533275381938
Hf 13.460853789716715 9.576149240713836 12.089229509038233
Hf 11.074367262977963 10.79320051566902 10.278922770677173
Hf 12.793795721445136 8.56186412302267 9.398023601914797
Hf 12.897154020019919 11.070385400561339 7.751024899225958
Hf 10.400035117535447 12.189968255028498 7.538240356215847
Hf 14.121682981574432 11.25398263385182 10.104777694275215
