16
Energy = -126.90966186 eV
Hf 14.027173905017978 11.077533084496595 12.25471920284061
Hf 12.431591055471237 11.20104718682731 9.44429453205395
Hf 10.930445133738065 11.744976382181084 12.022418879372683
Hf 13.002888543719262 13.754079344669801 10.978874473709043
Hf 10.491728031368476 14.709921025088498 12.665545083447071
Hf 8.398129717198449 12.89094876196264 11.930992449771411
Hf 15.147744258594297 12.249512797687549 9.92498302854516
Hf 12.68182671383193 13.235865692944513 13.832135999472316
Hf 9.77659947161776 12.776283497941002 14.472597232322416
Hf 12.161156343409369 8.972351252729094 11.471846745813087
Hf 9.92096949964609 9.795243457703416 10.041598079689928
Hf 14.460978169277007 9.358808786732169 9.89704494202066
Hf 11.968634758099459 8.53162622656897 8.691632449466756
Hf 7.799488607246695 14.736937156349164 13.638689030862059
Hf 11.99503750269027 10.532218438102532 14.310094267725116
Hf 15.319415685459179 13.648413367055229 12.391933157401057
