20
Energy = -162.17637289 eV
Hf 9.687709118882095 10.216774581371668 7.102700941549968
Hf 12.096396415156727 12.082895623853632 7.719247910501954
Hf 9.565556705637448 12.227401265551288 8.883802252996851
Hf 12.056847344217326 9.640797168138612 9.013944453929703
Hf 7.301427398032447 10.508976190102313 9.081975960263145
Hf 14.3641974029781 11.321167518062941 9.637177315839146
Hf 12.240402577584703 7.3418590800232195 10.584612841098007
Hf 9.47439699824715 9.06736923720769 9.702191220510432
Hf 11.803037301815303 12.240385384557573 10.725257242187844
Hf 14.55376485190632 8.39480727509753 9.290884409933122
Hf 8.712565907279973 11.872099158189453 11.452801312063006
Hf 13.699481026106897 9.507698779934936 11.709587595390193
Hf 7.8180795522891176 9.33903045106501 11.956927466522542
Hf 9.700865259262905 14.47828315752599 11.337318159047397
Hf 13.90378804087685 12.251059285662441 12.489139831867718
Hf 10.780558044099253 9.56829492763731 12.186582256742925
Hf 10.90509451527537 13.070716424953586 13.44315374634093
Hf 8.202871518334286 13.593444825395045 13.63169184753204
Hf 9.247192822653002 10.916781870539614 14.239580673179745
Hf 12.260530057183143 10.734920652947444 14.186185420321168
