29
Energy = -248.03588825 eV
Hf 11.991664665391584 12.689836337506762 7.468381376263368
Hf 14.262930886801302 12.67759742159081 9.306604183951174
Hf 11.977150145673098 14.347951289084735 10.133992425609039
Hf 9.520973569911027 13.998489273401873 8.481287537685365
Hf 14.258476144108545 13.5192274536836 11.987007345380963
Hf 9.045303299147845 11.746538043726027 6.860491837661894
Hf 11.102644347850331 9.842928834564422 6.838554421749872
Hf 13.422402483275132 10.023359857379722 8.540786484974584
Hf 13.590843472770858 11.561977571216177 13.882166069465093
Hf 10.351610596171666 11.337691871667525 9.205457632377884
Hf 14.806516792662292 10.48349080882475 11.366489296990265
Hf 12.358953590246607 11.71672139212209 11.27362233010274
Hf 11.539153251345795 13.604628211258778 13.33627408993573
Hf 9.034389589035147 14.036696762879991 11.328241173624178
Hf 8.850672426374928 12.978096573418862 14.160511945848711
Hf 13.774025853444522 7.893939083124232 10.448493520714724
Hf 11.160355808702993 9.094407965393033 10.857672631036166
Hf 7.5436822736142455 12.054220337076465 9.471452467170126
Hf 11.344783887044224 7.515037389566926 8.624877592597251
Hf 9.563540398160585 11.267841439383194 12.022976810570118
Hf 8.684709627671708 9.117267277036197 8.351609611801882
Hf 6.893231585628317 12.188987002121236 12.267911648893794
Hf 10.885887331815152 10.830466481647463 14.554430351461104
Hf 12.881121775859482 8.775968917632047 13.164497006902389
Hf 7.929276434552847 10.295267104385976 14.114022430173089
Hf 11.604975558025862 6.517300769026231 11.587796844162494
Hf 9.081633046629477 7.105635194143713 10.507715052499512
Hf 7.501182544085069 9.381376613678244 11.304249030175914
Hf 9.661666388006166 8.168791787425313 13.194957542691695
