28
Energy = -235.35400305 eV
Hf 18.426866018309802 18.192174277698378 12.039862779250726
Hf 14.960148815274831 13.958878991931256 10.924989065642505
Hf 14.20465829092378 11.90419325725518 14.714142848159925
Hf 12.997853855049081 11.922250245620708 11.708237111958823
Hf 17.128191361353846 11.211799885268574 14.106254929163606
Hf 11.967211384521434 12.521277672203004 16.524861615844962
Hf 11.759833819254927 17.365594511053335 14.240401787494973
Hf 14.25518467466621 9.73124952139497 13.23761263066445
Hf 16.628587473535767 16.085524286284166 11.706810850735675
Hf 15.78197225527469 11.435762343305898 11.723469462342006
Hf 18.629006410808273 15.820024161328247 13.770715164276886
Hf 15.953409775869343 14.163972205596927 13.89983236236046
Hf 14.226241989251982 16.404848830644468 15.017199762046985
Hf 10.023532448442877 13.377784674902921 12.237061318272103
Hf 10.752452127155902 16.276971914842203 11.833228578596055
Hf 12.314689968474912 14.318705445461566 13.830196300179791
Hf 11.408753776418571 15.424650896949363 16.431787933787422
Hf 11.435265873072039 11.288040740409764 13.953781650182147
Hf 14.186061540988723 14.24675823116581 16.587975633517782
Hf 12.21174255250791 14.426907358346192 10.610876373155294
Hf 16.476719109338127 12.581648872571618 16.504283316143187
Hf 16.57485209931756 17.688740011221757 14.099397516734244
Hf 9.537979203210728 15.692797827615035 14.189945033726415
Hf 18.6803874912436 13.412563241930204 15.071283396833822
Hf 16.97808724547539 15.525943734177469 16.282414208192346
Hf 17.966480096470825 13.343944600682478 12.093254382163469
Hf 9.766730951557905 13.22296643872961 15.118061920342786
Hf 13.713361594274748 16.56690704129674 12.088315760770127
