26
Energy = -218.36473851 eV
Hf 8.006568268188806 14.264409379271072 12.9521224494821
Hf 9.394969446507313 11.977042593776984 13.690810789137014
Hf 7.8285462535346575 11.66973639882909 11.347832634706501
Hf 10.540005901264506 9.30827645595702 14.177738313890043
Hf 12.0811579312704 11.704330090533581 14.940925449972623
Hf 8.563108213571509 8.674167220410402 12.103890357812956
Hf 10.90713585532598 14.344818173864418 13.906028097063084
Hf 7.541304622866244 9.474916831503652 9.560453772529538
Hf 13.633114122334735 14.21778704379428 14.441642281257117
Hf 10.040503370352356 13.512333981036667 11.188810131624395
Hf 14.823838715593567 11.686857508599685 14.077054409311115
Hf 12.756455613946123 12.486583356601178 12.156148835491525
Hf 9.081801585747415 11.680001790929548 8.665083262691237
Hf 8.754565309700554 9.259012742736594 7.14298576192448
Hf 10.093622343827796 8.103548215518847 9.518475387881004
Hf 11.227908548362334 7.7157419053741005 12.067616825508384
Hf 10.592567659067544 10.523836378977313 11.235251087904503
Hf 13.219343131046477 9.511281501134462 13.134725541343505
Hf 11.844526601294564 12.603118346825976 9.098914826881732
Hf 12.832916953954886 15.318900840751313 11.854252628364316
Hf 15.35838680187594 13.860176864390578 12.31635902212791
Hf 11.441267425039463 10.067942485465588 7.91791986074368
Hf 15.163104108464438 11.13450467459303 11.187712935994888
Hf 13.044549304949468 9.071433389103209 10.161102977712558
Hf 14.125948522704755 11.246977432565956 8.53027902664593
Hf 14.434093556216107 13.745977416460779 9.776881547029234
