29
Energy = -243.79285075 eV
Hf 13.202173160596908 15.379509789698291 8.158387951860444
Hf 12.790317407236236 12.62193842852085 7.811686994684689
Hf 10.403681038672735 14.600281372197294 8.335774224843464
Hf 12.130687921311607 9.814440793942989 8.119636077058225
Hf 14.551105831260667 13.546033951059242 9.893875317049082
Hf 12.084683216605425 15.246343590708683 10.69044598276887
Hf 13.742351591066898 10.747965052500055 10.208382206859191
Hf 9.956261639469716 11.745495246391462 7.586200523375609
Hf 11.180752739182553 12.455388358797709 10.356814118281635
Hf 12.398040771577351 8.197791583930114 10.708905792228219
Hf 8.043267977100122 13.167527639397992 9.12332233838042
Hf 15.995128460118226 11.416120453230425 11.843275593715266
Hf 13.553919381733103 12.893629092163152 12.357177961051134
Hf 9.959816961278348 9.612510229720177 9.83206717589045
Hf 7.435932838881658 10.489918175941064 8.781481308681013
Hf 9.275709917005534 14.62069353090433 11.105851069067786
Hf 11.53028561307803 10.463480798036676 12.80208086541851
Hf 11.107419534454383 13.96593588259045 13.15105674894258
Hf 9.880231581624509 7.45877890174681 11.639308167575608
Hf 14.307508553869866 9.035382509000863 12.73324509012056
Hf 7.428072580484098 8.74325430890843 10.850179884126717
Hf 12.08672965948315 12.196800881200554 15.289885633218688
Hf 11.563586456339456 7.717059485808908 13.812187993478592
Hf 8.457033049111711 11.5281583119682 11.455681569314985
Hf 9.343191912744357 12.031464193634024 14.21769704323861
Hf 14.779245596423529 11.34959288862064 14.353041433928992
Hf 13.136172213359487 9.481086217801366 15.299693849849254
Hf 8.750813290633381 9.266290469206437 13.460403826385507
Hf 10.461507151662726 9.884198641778191 15.633847425670726
