22
Energy = -183.75677732 eV
Hf 7.3962243295242684 13.340880506696164 11.572874511101867
Hf 9.093208650320982 14.079861691480954 13.931891337718781
Hf 9.854589035686995 14.972047977772672 11.325375889038225
Hf 7.799461693074135 11.440038017814018 13.721783054831121
Hf 8.020110923673114 10.473579268594992 10.841163899510743
Hf 9.066337745088115 12.958685497003522 9.345015675291922
Hf 9.930133511018862 12.215243196545119 12.017542818055356
Hf 11.995189897775653 13.786597888892931 13.085917084572483
Hf 9.835218546686143 9.357074965646978 13.29484336381969
Hf 11.903189187047294 13.639401513883103 9.972311760060487
Hf 10.438615759575029 11.787013148351773 14.836791952234844
Hf 10.162476197206018 10.389145709154217 8.674353005219826
Hf 12.719752771711882 10.69426077424184 13.601429519074651
Hf 11.768211846713434 10.509918519084103 11.005704192272667
Hf 9.890168779838511 8.256775037710945 10.606508973197991
Hf 14.078905219589288 12.398997339779912 11.426794800176916
Hf 13.37632733868413 11.204060689781958 8.798348085789238
Hf 12.261677259534771 8.00687033769464 12.176644989701789
Hf 12.424903103922487 8.402911111604874 9.242451706068508
Hf 14.567056860098392 9.650577600857693 10.995203648042457
Hf 16.147182885696893 11.424729935524558 9.452683813010047
Hf 15.261005568780766 9.225547361638672 8.220978130776977
