26
Energy = -215.23890906 eV
Hf 13.298744948428489 13.303408975064446 12.400339664065529
Hf 15.338764374981826 11.26439421826381 12.937523763831953
Hf 14.484001278698937 12.2086391470048 10.085986098618015
Hf 10.717903423141468 14.720707188846161 11.86905769913544
Hf 10.984637907182735 13.07478055985427 14.069222655889051
Hf 14.223652281357376 13.16832028833823 7.442099854147307
Hf 12.745744357448181 10.55969840656528 13.960627533326655
Hf 13.636036725255641 9.691342464310349 11.23796127867258
Hf 14.716643542094966 8.657084772681468 13.595997203976856
Hf 12.560889229937887 14.366368388799494 9.628345260079277
Hf 8.60838817836273 11.849555065358203 14.966009357101717
Hf 8.731295683855643 14.596197984482385 14.223813279075575
Hf 11.251599199023897 11.867240774958562 10.69355729868291
Hf 12.061328343310665 7.956202275378089 12.938787869834885
Hf 8.531548614366773 12.752666369833879 12.165702068831651
Hf 11.546209320117303 12.976458992003476 7.393639289506592
Hf 9.592044504228427 13.740565348887996 9.35420825827794
Hf 9.988227283705928 10.122072734605865 13.021589879176515
Hf 10.916154712455077 8.740347188212095 10.265808561506917
Hf 12.837783727345164 10.572476358407929 8.25328954254411
Hf 7.171223917019133 10.238341608741719 12.991197611156052
Hf 8.441536852133384 10.529664586008135 10.401080963926304
Hf 10.013735078238964 10.616821968777986 8.085108343220552
Hf 8.669285593487603 8.095442202012272 8.712446290437901
Hf 8.591224650015336 7.957029609448701 11.733822802309502
Hf 11.178826219919014 8.11798059705169 7.50509562559531
