25
Energy = -211.35349449 eV
Hf 13.95515195414663 8.500855451875255 8.937958452319732
Hf 13.934216780742727 7.733152676801152 11.61742804735707
Hf 15.162997929874795 10.41100771581883 11.061330876292391
Hf 11.664214094407066 7.329104627533487 9.98614299508052
Hf 13.940273848474122 11.130213549901335 8.359583613223066
Hf 11.229837904729889 9.618434608723293 8.20400084691168
Hf 13.603440233717079 9.58021660512335 13.55826316934027
Hf 12.433396094335594 10.164542977626327 10.769443267838234
Hf 13.173867253612135 12.21564005487042 13.096683148873165
Hf 13.830860051101869 12.98772285160433 10.31895562264699
Hf 11.273686249576063 7.995941223658746 12.783167718072152
Hf 11.05309921318843 10.493678997716444 14.62738973498646
Hf 9.231055699505815 8.720797164893622 10.478188561590674
Hf 8.695046665294809 8.967781751763832 13.388380985914802
Hf 11.498798120341611 12.644647589265436 8.471449341058245
Hf 10.0756754731239 11.163243305995824 12.008931514902464
Hf 11.3531978149084 13.753080632653885 11.364442766063409
Hf 8.906358124861148 11.354713219168866 9.270932659008883
Hf 10.416710506994642 13.411669422933889 13.980250470764421
Hf 11.716204769973716 15.496447770861556 9.300341183969438
Hf 8.28941243010337 11.606942035932008 14.175255522916181
Hf 7.30105935381688 10.63661850509194 11.60022856772065
Hf 9.250973307008884 14.232896493010424 9.329973780059493
Hf 8.2036758441334 13.493995378147519 11.93066669934092
Hf 9.760109221879175 15.960575454150515 11.450385411774127
