29
Energy = -241.82690917 eV
Hf 12.3042517285387 12.972692484399197 8.297061359547627
Hf 12.623868784986284 10.032085041222663 8.48202300286611
Hf 9.897172705963394 11.269346144355831 8.189151793742043
Hf 9.66191116377843 13.866357512346436 9.59059295712821
Hf 14.497421890807539 12.211856115799298 9.982429156103743
Hf 12.456692141310164 14.38185283703891 10.780889310984858
Hf 7.719819068779784 9.503880231864764 8.473770796751184
Hf 13.189881173418744 7.141098893984852 9.144109197165207
Hf 10.29682067323728 8.274456419073326 8.61652590943512
Hf 7.501237098647167 12.038174432946043 9.749648071054816
Hf 14.798373095727358 9.218032483599423 9.991995080697528
Hf 7.537199972554393 14.531452125078639 11.545043676681864
Hf 11.83918975913153 11.558719029193536 10.961885926389511
Hf 15.202136597208009 15.06490668383237 10.736703411149113
Hf 9.21472758611863 9.872291139214584 10.71098711203071
Hf 10.120754772297044 15.493963706231757 11.977790205094276
Hf 11.873975281809061 8.415325203997284 11.177365097283744
Hf 9.261243748784802 12.53230884569936 12.327964833184856
Hf 14.39321912508261 7.327152502681443 11.871074374194144
Hf 13.503248678459094 15.835274495498156 12.888893581036555
Hf 13.97104930927908 10.173380926289015 12.525222799599224
Hf 14.447176875787845 13.193978611189266 12.651204251982458
Hf 11.7092461367463 13.541604681293071 13.664011840812808
Hf 10.60516309580388 9.96695065504098 13.495421964016993
Hf 8.96818298586105 14.613436234356456 14.228745054801506
Hf 12.78053218333207 11.164206494145734 15.05041169289304
Hf 12.748954001651644 8.330013443719194 14.350951751439672
Hf 10.015916520913473 12.007094917471145 15.462884766796709
Hf 10.940451062202964 9.464261649544707 16.229866934248648
