24
Energy = -198.10448982 eV
Hf 6.827311155605209 13.606303771396417 9.148761400445618
Hf 6.623569596749391 11.493504307657417 10.924230302808285
Hf 8.57028415355992 9.195708389046082 10.818763650030636
Hf 11.062161153048637 9.356779922980973 8.574678201544925
Hf 8.90494773644733 11.757199671202011 9.275271519593645
Hf 9.452357960811195 14.50006088074919 8.887562665713608
Hf 8.38431074479887 13.740495110007918 11.468207626774188
Hf 8.511111483454123 11.22883577276722 13.148480567055048
Hf 9.847082123773982 8.667205501585187 13.274209883965302
Hf 13.604233012667319 10.038082932969367 7.463773031505856
Hf 13.327294606614313 7.686109290413138 8.838557043839945
Hf 11.856324808982833 12.11274516298832 8.698148692848486
Hf 11.175720875741197 7.820008720219718 10.87255626532127
Hf 10.906979037243467 10.80044111658468 11.577860094537911
Hf 13.424785974031755 10.108677727629479 10.26099892033402
Hf 10.696999873210284 13.376684342052894 13.671006723691805
Hf 11.218593760243525 10.69036602552215 14.605401865323604
Hf 11.29430623223024 13.712630616086873 10.919971076137093
Hf 12.94602898642084 8.91585451368358 12.946882528142243
Hf 14.089315571549163 12.94276944191897 10.525378029438237
Hf 13.262445614766166 12.086372811459372 13.274816789476693
Hf 14.347533374501026 10.126048040135807 14.999695398337739
Hf 13.195077632636213 14.793016296748053 12.58268522762382
Hf 15.379419707161698 10.527296214163927 12.408360930372053
