20
Energy = -166.05147152 eV
Hf 13.717863333391731 13.801223553201602 10.02970675109459
Hf 10.860801962210902 14.778021554568754 13.715181439001197
Hf 14.128021846169334 11.676442201795064 14.874155959824352
Hf 9.546804677209211 9.436688750380616 9.924045662686689
Hf 12.259006816536784 12.310319467705703 12.521689961440504
Hf 15.180421304794573 12.92594244169321 12.42001521636655
Hf 11.848416757046422 9.990457463179014 14.432066371492951
Hf 12.049897844318712 9.241674695079588 11.309635714198734
Hf 9.553657969825197 12.214189243695817 13.958009863130943
Hf 9.590295460979782 9.794811583436415 12.70443384126738
Hf 11.70531986062025 11.967841970331625 9.361520986368465
Hf 13.67027952111917 14.36475419491163 14.637781242152478
Hf 14.177637405968849 10.99781308233368 10.160960799811814
Hf 11.639486898668109 12.675290601167019 15.622692260666435
Hf 9.468600904071234 11.406065468752923 8.042352741630019
Hf 11.85990315461976 9.478247991832623 8.361788803097639
Hf 9.176703407634394 12.025984710958538 11.041188628484317
Hf 13.142951242870192 15.24479550071187 12.171463634445594
Hf 10.874852025793441 14.359845602142466 10.76669673184595
Hf 14.328324751041485 10.088837067011202 12.723860535882768
