22
Energy = -182.3328846 eV
Hf 12.475554329070816 10.732616674903785 14.212825643530167
Hf 13.897383879970663 12.173151757907585 12.180689082954528
Hf 10.995562329469617 8.366357153509592 12.932074752698796
Hf 12.172376736118482 8.226890445115542 10.005160842940402
Hf 9.761550452777739 10.476111596801603 14.510618197046483
Hf 13.728051913437852 9.156143565293856 12.335624259980833
Hf 10.864209061830254 12.919505208062375 13.265418966701358
Hf 14.204476572286634 10.35828295859161 9.942876995155503
Hf 12.276528899115235 14.714056031605447 11.431017942060533
Hf 8.079214780050291 8.82261197485747 13.05054192744392
Hf 9.117722595491424 7.910766857663879 10.479114543660803
Hf 12.958821108537478 12.929516825733366 9.37957567788811
Hf 10.266875790483292 8.477820793956278 7.800896991962367
Hf 8.51785606606463 11.438592800935298 12.260527095531154
Hf 11.53767239043216 10.788991873529179 11.343653497326066
Hf 7.54745523353057 8.676701186498214 8.288331490033306
Hf 9.980977219207594 13.43698284339132 10.366843683301425
Hf 11.446466485428633 15.18664300212408 8.79881295154423
Hf 12.213887298508027 10.44436572070888 8.060758587671152
Hf 6.7573844013589905 9.708530286925864 10.678428098980898
Hf 10.55764583983912 12.791948957369211 7.6284711234979685
Hf 9.208941654348967 10.658951071446875 9.354010874589214
