25
Energy = -210.29149098 eV
Hf 9.885419265974422 11.10637839563536 10.289868698814622
Hf 14.679871622198673 12.201957139117653 8.528862863117748
Hf 12.81581721099596 15.122557222762847 10.757871244413709
Hf 12.644875297045362 10.052762466157516 8.98177165479228
Hf 12.041235863351329 9.687275259659677 11.896212449845054
Hf 17.078617573061695 11.710319555284336 9.82554207418916
Hf 9.92516680351361 14.211374246021368 10.947339239412578
Hf 14.814149322526452 10.431045820686943 10.854235833927195
Hf 10.607626781049404 12.253272111528895 12.887420129157809
Hf 12.394084849184154 12.434046563166385 10.170434008294304
Hf 16.848089147757094 11.499930804924519 12.590628250443203
Hf 15.37231756695509 13.541768948265922 11.148125337098524
Hf 14.393513106380952 15.759929420780221 12.970121128526584
Hf 11.414287049852542 15.619025700603624 13.270041822607423
Hf 14.31191588265351 10.558128389643569 13.773889469755957
Hf 13.19579481268237 13.191170727507966 13.092478028798123
Hf 7.910114185462292 12.254647822793054 12.099782965598271
Hf 8.811974895984486 14.339802367344948 13.720074213973389
Hf 9.28524727368553 9.761253108269404 12.767904838625167
Hf 11.383385126407871 10.370784205667901 14.898112933009035
Hf 15.62206673811119 13.425760467843734 14.471388906164327
Hf 13.330849322709906 14.96811521528997 15.431997929604956
Hf 8.696200022193265 11.67355218494139 14.853270998592853
Hf 10.877165283903055 13.451602639586282 15.64356810101469
Hf 13.45347078458832 12.166795004745515 15.922312668452037
