26
Energy = -220.31755752 eV
Hf 8.50957079608903 11.819643009980418 13.92091148415945
Hf 9.511034421911422 9.170762085480153 15.151897563786958
Hf 6.986955733765874 10.947367692715936 11.432516987603165
Hf 7.24772595895124 9.15467217493992 13.426004845124046
Hf 11.72236341607439 10.993543296491323 14.415999365917648
Hf 11.03680334057276 13.006500974619074 12.469882068464731
Hf 8.549297974172124 13.088415097152925 11.16500328282283
Hf 8.080860927950564 8.413833439572253 10.546529457887944
Hf 9.86330654493864 9.892763994831462 12.512229825172202
Hf 9.227654135678133 7.12533166341916 13.04400353474173
Hf 8.064462603069869 11.115697441599146 8.704176004912782
Hf 11.793515089270265 8.145398680526869 13.759904783505899
Hf 10.246690807152605 10.707737667905935 10.071645528080378
Hf 9.983247763632892 13.545828998278758 8.827331987917908
Hf 9.978727368604597 8.706968960143781 8.241875663295245
Hf 11.072038204924828 7.686981594052408 10.827057384468448
Hf 12.326960223243846 14.861847265337408 10.504372884770751
Hf 13.01310912653325 9.960098377975607 11.965467522104205
Hf 12.516932334353344 12.137391638424445 9.839644759506793
Hf 13.918312039841066 12.869627437840014 12.204369760671637
Hf 12.522634022555504 13.995377122454725 7.711932510121311
Hf 11.104908041473058 11.34074126881305 7.284278007894978
Hf 12.819579284507432 9.275915665573521 8.859389836145985
Hf 14.808364112117177 13.687487654096524 9.485081352043826
Hf 15.078967308937912 10.934091891596289 10.263096757856164
Hf 14.096691280957318 11.565337980574634 7.570037751049909
