23
Energy = -191.22630201 eV
Hf 14.622985072471383 9.180879783468788 12.30946572057322
Hf 10.984346786388253 11.329669106554604 15.099184906810727
Hf 13.383152783591305 11.694856780357478 13.385046157732777
Hf 11.99601383817303 9.07950652732379 13.529177986127015
Hf 12.94747035821741 7.108617323016764 11.7829952417744
Hf 14.737702217435556 11.726662741652998 10.821301430134602
Hf 9.674519097085978 11.063307452510777 12.547161064037853
Hf 9.966617008196401 8.092980962494277 11.772291260883012
Hf 13.7953778727137 13.920575093279894 9.225110869894005
Hf 9.241224975222053 9.070332998483376 14.390935548009145
Hf 12.420467661173182 9.394227730164838 10.38177401410155
Hf 13.618711485059467 14.11444523485361 11.957005204151661
Hf 11.620906475597852 13.34150030307593 7.6775896197532605
Hf 11.721169390680858 12.226103079321977 10.491703795173411
Hf 11.218423362927844 13.687590038482439 13.237186717119364
Hf 7.373477088269698 9.280091477307224 12.168473972341543
Hf 13.523089817680624 11.275310572906918 8.245527191437196
Hf 8.870370451658816 10.051867685541424 9.85936513843127
Hf 7.098701958611075 11.833253535387163 11.012149246279742
Hf 11.207303063489759 14.957832161564857 10.255853483826698
Hf 9.123936799542316 12.854061121939411 8.959815259709886
Hf 8.988138444368664 13.78783642544225 11.636789465550576
Hf 10.852234257700847 10.672999966996574 7.95217138572475
