24
Energy = -201.4735585 eV
Hf 13.716831633521908 8.431319651197258 10.449090223386877
Hf 11.71563885271791 13.695784805772048 7.95142180375771
Hf 12.471512953900483 10.938431258359875 8.67745974925098
Hf 11.239567604719715 8.230106707069151 8.983940883429705
Hf 14.073438294127016 11.145705570977642 11.174226458707667
Hf 11.698677122679602 6.92856844934625 11.474017672894405
Hf 12.986202775616537 8.833016309514555 13.46892257459976
Hf 9.847203452403912 11.650397610583289 7.234406277586887
Hf 14.208657186041947 13.2073800670806 9.186878251699989
Hf 11.35734866247594 9.90386423102837 11.61597270881569
Hf 14.510497448378764 13.74020567880649 11.93221548371632
Hf 9.148299758183446 13.714870223477627 9.333174641858275
Hf 10.593782366045296 10.418809303650049 14.459755750964728
Hf 7.283479119057738 11.759103118405594 8.398608823600323
Hf 12.648803462215241 12.018867490470821 13.48986741840886
Hf 10.13104334909147 7.911489125263209 13.512265401599972
Hf 11.884296618043317 13.127976230140753 10.80840750768018
Hf 8.5334807601539 9.114542020183194 8.102526046604757
Hf 8.978164987905673 7.831111441543841 10.73670751353538
Hf 9.380726866600229 10.938487158317827 10.081738144936478
Hf 9.705436406055652 12.602531485329738 12.806821268546326
Hf 8.212348192368614 10.09506146513305 12.844403600549215
Hf 6.735738795117812 9.686580708078003 10.259566046474918
Hf 7.2380296979672405 12.373402236758926 11.242895324921683
