21
Energy = -176.7239404 eV
Hf 9.875242213240924 11.947731379670072 6.8799005971742995
Hf 10.139353325212836 9.108201512663362 8.105434327522449
Hf 12.38660219679937 10.934873620303874 7.552518434137861
Hf 7.809234986571991 10.927691176065032 8.569237059588497
Hf 11.726739920997838 13.684487277921734 8.427483235236847
Hf 8.75662624261442 13.61359640390911 8.90490578732694
Hf 13.493530361093118 11.807701785307739 10.012746165008206
Hf 10.608854731445273 7.207564982408543 10.249527016906587
Hf 12.936974203320169 8.912829245752217 9.61764212964837
Hf 10.468508204132354 11.550370745939349 9.63206291547245
Hf 9.757662200312325 7.5512812111691 12.932159505890649
Hf 10.419775265724807 13.951871098385137 11.227310001267504
Hf 8.239610550350744 8.88870975059997 10.638985517794534
Hf 7.9890699730279335 12.017277335624215 11.28354146842201
Hf 10.871374721376775 9.839182936456192 11.648986758329482
Hf 12.447179209752722 12.370705362234137 12.714703778972483
Hf 12.538238733905127 7.6340182517467605 12.288728372973884
Hf 13.786727311899933 10.065584836909144 12.261523756223168
Hf 9.861219428171633 12.248774812386644 13.485982536965652
Hf 8.462259058234274 9.978311968893795 13.36391843179234
Hf 11.503926856642579 9.83794400048112 14.281411898172655
