20
Energy = -168.07890885 eV
Hf 11.2289409594126 11.364232260025668 14.74973852101043
Hf 11.118830644367444 15.325846827542723 10.58505654242175
Hf 9.020735545063495 9.899675979249311 10.762632371321876
Hf 10.364275438444588 14.034490425460502 13.304172934055181
Hf 11.377341849558569 10.687489748067925 12.085835043981492
Hf 12.151868370641699 13.288605345025436 8.879548162269582
Hf 8.770593953805466 11.655990186718395 12.99283515365947
Hf 13.061333728062468 13.5776251382965 14.6226337188011
Hf 12.492346008512905 13.178840977980022 11.779152729400415
Hf 11.723351683187243 10.48502619979384 9.367662091983822
Hf 12.502061755870148 8.708119004018094 13.747929716001416
Hf 12.926616024984241 15.751127216442615 12.81179907082672
Hf 15.10180684350322 13.796904645832718 12.640158247662832
Hf 9.672901697385091 12.759876005420894 10.402471488090121
Hf 9.628967650898339 9.00051012650978 13.483225376094095
Hf 14.195238316282786 11.108145009540562 13.462059850549494
Hf 11.18069318499518 8.024739303260366 11.224747784577312
Hf 14.002926450942862 14.959922299320297 10.224713728013706
Hf 13.753472127241547 9.215201292363759 11.235011114440507
Hf 14.408834979646254 11.860769221937158 10.321753567645034
