24
Energy = -201.83931769 eV
Hf 10.749020286562617 13.868243869904104 8.02616562944728
Hf 11.744159906667726 14.70528007716551 10.449578355220998
Hf 13.640622795726758 13.609693766329256 8.64535584407225
Hf 13.565204124982412 13.152465097403642 11.994348683049335
Hf 8.969653550441196 13.783109081327579 10.145243841155814
Hf 10.609149757928176 13.04626829826646 12.508723884783501
Hf 11.250208792706639 11.409236431078016 6.983144028237872
Hf 8.407173254576584 12.131775013254325 7.632054680245413
Hf 12.281423215976066 11.831454518024232 9.94776591564922
Hf 14.106071772539089 10.232976971519284 11.72695514295769
Hf 12.405387592190277 11.133766151895392 14.109961683963762
Hf 11.031202741774251 9.824220964319666 12.041495906441018
Hf 7.966224474594021 11.699772164819835 11.862779654815004
Hf 9.830635499319353 10.926298615801699 9.66168822182389
Hf 11.919251308407318 9.100123920523343 8.38332496055495
Hf 9.30209410850927 11.121223327641202 14.159625323501013
Hf 12.645958376814098 7.767458385228308 10.717207177866303
Hf 13.034449298381407 8.318572459184761 13.471371867405296
Hf 9.189265018306303 9.340673781584677 7.4542209972557325
Hf 7.348710985196391 9.766509937372541 9.700579560487828
Hf 10.629488355148043 6.963591743045209 12.50658460070126
Hf 10.512651305375755 8.766438599845387 14.677008442781839
Hf 8.332286264583887 8.819819330723389 12.482328278454096
Hf 9.69486118483148 7.789785408754604 9.875065004384194
