29
Energy = -245.95034495 eV
Hf 16.31988796220481 11.881041386657348 14.11439132375988
Hf 14.872957071261835 11.806848411825431 16.48649955962836
Hf 15.426877872255215 10.605367920189662 11.663905034898747
Hf 15.030267093104435 9.451035466457032 14.50922085016685
Hf 13.00731801303206 10.21024052475757 9.596985794990948
Hf 15.17304503382189 14.436559145320029 14.87819715037363
Hf 13.527126681611602 9.36069663010659 16.893932272082246
Hf 15.130936313006723 12.401916887275759 9.382430807618096
Hf 15.776278258403682 13.620018141564554 11.998615827164896
Hf 13.315136721017831 8.887932927667222 12.288493359694792
Hf 12.979335360125587 13.952618421393186 16.536683603042384
Hf 13.112064936631448 11.635251724745721 14.153731916076792
Hf 11.781000121638986 9.0820786312488 14.69484147183371
Hf 12.860816018453773 12.259456748766048 11.17254377333026
Hf 11.626178346946736 11.435555218533915 16.670035935161035
Hf 12.716680633951498 14.437436212117234 13.000037851941505
Hf 14.289763382771481 15.124359394743834 10.087066151192762
Hf 14.869831594036262 16.347665384763122 12.692179915331797
Hf 10.811641582052934 10.076616338631293 11.925036900232984
Hf 12.601314644302857 16.34681011847535 14.744725843795813
Hf 12.602558356361536 13.169329866964965 8.428541837175153
Hf 10.557584700436141 13.912514805005225 15.143413130047726
Hf 9.945134055239656 11.156192594714094 14.475245437199588
Hf 10.43394721795049 11.864928035409118 9.646901299076621
Hf 9.833161126529227 12.943578035364824 12.336215728151073
Hf 12.351765083410871 16.956623616678524 11.605618551198726
Hf 12.271885879035674 16.184051219983655 8.662075302083547
Hf 10.172534985493858 15.815479961116027 12.96128752245357
Hf 10.716728592456189 14.71794378162832 10.289993833821587
