22
Energy = -183.4955003 eV
Hf 10.885019291449186 10.904214675366942 14.414232115344783
Hf 8.803507007937323 14.106223753077172 12.813411647800278
Hf 13.051831661004375 11.781597149122245 12.103039980166885
Hf 8.081918258150166 11.239006130794866 13.518860744934603
Hf 12.14096210909097 13.84951114621055 10.38971655525733
Hf 9.255457568246843 8.5687365279294 13.626482039939555
Hf 9.265080949340383 14.10824318453806 9.85982189606961
Hf 11.893448347504522 7.169365750701165 13.09623318574329
Hf 7.402065424394892 12.40677719778334 11.042830082906855
Hf 10.163645791359924 12.077519001646577 11.829429111280353
Hf 11.301650959936929 9.448334755376472 11.919192287750839
Hf 11.06424010634571 13.2730536420738 7.838581902242946
Hf 14.001817639249635 9.606391789334722 10.566255126198023
Hf 11.411331016787178 10.965909216025484 9.624597631058494
Hf 8.244347708222103 9.616815363527904 10.938116429865504
Hf 9.733958839477175 7.1201959403835655 11.257551128157692
Hf 12.27807644333928 7.278837405231144 10.13595463004204
Hf 13.558823404275467 11.854230579196695 8.272576112399792
Hf 8.716595845084072 11.47530348730967 8.534165820131996
Hf 12.931518711434398 9.031627436706978 8.010701688631825
Hf 10.005516028181065 8.554328400371492 8.651780653702346
Hf 11.089393744004685 10.708575289696105 6.841405320565544
