26
Energy = -217.00697266 eV
Hf 15.953727439211253 10.887258674099046 13.081965598966743
Hf 16.275542162039667 11.374028365781662 10.382895354290417
Hf 13.552531450851783 11.387086350233218 11.48502090616191
Hf 13.264213655610247 9.708891396473096 13.852668709132091
Hf 12.146731290939968 7.381720155600093 12.864049260808118
Hf 14.311869396827634 12.478798345755068 14.485721611024294
Hf 15.197706042311205 13.649511152181782 11.887934024325613
Hf 11.323314976214528 11.763482793181346 14.479521439782756
Hf 14.928772284840779 8.718509614459883 11.558563298722044
Hf 10.649968709207105 8.890555892754554 14.898068028899022
Hf 14.464415344854691 9.829135454833816 8.987977477144664
Hf 14.160595314918615 12.802088887652058 8.941027866630536
Hf 12.32628820472374 8.743340645038636 10.370872068944783
Hf 12.502675895359067 13.933535243482023 13.149348486705183
Hf 10.79655925987008 12.197899327358247 11.14660735104977
Hf 10.372552294182245 9.564188902456227 12.270988461652601
Hf 12.506397410704727 14.642563822072532 10.59369582116096
Hf 8.619409799264293 11.097619621746666 13.95831869240921
Hf 9.342581521429366 13.838283019056082 13.18797544204167
Hf 11.949971492474821 10.889937976923067 8.386688193536829
Hf 9.156774486092528 11.73371928563132 8.832157822838026
Hf 9.23345707958972 14.356220694085705 10.18180064572443
Hf 11.254258262365934 13.507679172879719 8.389643496735594
Hf 7.673305564314951 12.298974211426005 11.458157822047248
Hf 6.645936361139908 13.196568307690182 13.955392805115567
Hf 6.995478154510909 15.019291646509934 12.079284640727387
