20
Energy = -165.71080695 eV
Hf 8.41183873601774 10.501618161410015 11.35309927715605
Hf 14.874808687533937 10.14411004783036 13.540095635282977
Hf 8.312962917984397 13.140543116877845 10.722852795638346
Hf 11.167814560747475 12.147155765208831 11.40658927644736
Hf 13.587353005099278 13.446889599476616 9.865926882870243
Hf 12.250358854660506 11.356846961439773 8.580336526141052
Hf 12.897414648157044 8.603832465885242 14.873267636489752
Hf 11.570574866677868 13.883140791552378 14.046214163984063
Hf 14.078939565666698 13.02088279969176 12.743144530322214
Hf 10.745210552643032 14.141866067573643 9.334698145347852
Hf 9.762472993122964 14.806538725612285 12.204004197949555
Hf 12.372283488061074 15.108896579572578 11.610672222132258
Hf 10.253076224644648 9.532482000623453 13.13224538493501
Hf 10.743767137512322 9.244161918787968 10.189904341130402
Hf 13.428816772876282 8.707066284115923 9.295035760061507
Hf 9.085550957198853 12.298700478738557 13.551605534745386
Hf 12.370133968025153 11.190147233973027 14.140243236601657
Hf 12.75633648140695 8.72628102984466 12.157933530074
Hf 9.520691988945865 11.457525213449703 8.89729488158659
Hf 14.200473076050848 10.932194241368984 10.745715524137315
