28
Energy = -236.86790638 eV
Hf 13.21156584008972 15.593987441847464 13.950691524598966
Hf 14.463391270359487 13.454626709954661 15.146553675754095
Hf 15.54224667392877 14.559906751456912 12.770573548182217
Hf 10.746555355437657 15.343171306243411 12.79400607655668
Hf 11.44499876240387 13.437491937270206 15.027819622300537
Hf 13.152597481457995 15.36984368423516 10.975510552092157
Hf 8.307103879642723 13.918858739348725 12.575712203687786
Hf 13.22728932050493 11.016312692087954 15.248959117277943
Hf 10.384682919866663 12.386125824864564 12.200337362492387
Hf 15.554688529133337 11.576429152009485 12.99186945765901
Hf 15.125707900057902 13.214054068685149 10.397905553535049
Hf 9.97451550918971 14.515591558430716 10.219061325478076
Hf 10.576167515292036 10.339555504991322 14.47754526095371
Hf 13.141709617398552 12.981181549186473 12.626256833113722
Hf 8.09913228936882 12.41912341582823 10.190175411216908
Hf 12.607449403460848 8.339079806993945 14.535354175644578
Hf 10.02651235440065 11.830299506876411 7.945930086823825
Hf 12.765961348020447 10.037777682494736 12.43351788919002
Hf 10.647545552582764 10.269975833114438 10.32898696996199
Hf 14.357998103581137 10.53057130765719 10.171767484254586
Hf 12.385577653704036 12.737639428676646 9.628918035527152
Hf 8.202735821352618 10.069949043987151 12.016525515643739
Hf 8.022789840215744 9.937001694674338 9.034911976544773
Hf 10.43214509691745 8.1360012292224 12.700065599733689
Hf 12.572925067660131 10.329612714804707 8.035676880280858
Hf 10.300618830374194 8.762587813059225 7.891500066581601
Hf 9.177346428559382 7.783371209814542 10.305955882094397
Hf 12.23322188011259 7.95958200760785 10.039335433794339
