20
Energy = -163.93733963 eV
Hf 9.797431446047451 14.198653922651264 10.356237851069011
Hf 12.278069307214476 9.786344552724778 10.137670099091997
Hf 11.092132769641939 13.27831990762734 15.038965001562834
Hf 13.488428853200281 13.267015497859976 13.462848007709518
Hf 12.976646177030952 11.220578327370326 15.476028116224178
Hf 15.039032056623299 13.476965018229523 8.610885638307417
Hf 13.004846234450424 14.405377374171689 10.763681345872609
Hf 11.228776983597196 12.19655982583226 11.688853827085289
Hf 11.218602776689393 14.971549983797946 12.84691501347475
Hf 8.943649572945708 13.454707976867667 13.166926338500147
Hf 11.418025823611746 8.001655357928168 12.574858110191663
Hf 12.290185227176721 12.656761337736784 8.769195640400863
Hf 9.519203723985854 9.561432285841942 11.212464427934918
Hf 13.435720159723324 9.905232623109995 12.946512039229784
Hf 12.392600638952471 8.540620567082655 15.11919515386414
Hf 14.215766220006797 11.812791543475692 10.798180848742012
Hf 14.473806313223434 10.9201559535253 8.170758860678207
Hf 8.112469201198714 11.959162524969143 11.096528872645836
Hf 10.597725192173261 10.425336784949069 14.016596013392864
Hf 9.8487669299651 11.33266424170713 9.118584401481579
