28
Energy = -237.20259605 eV
Hf 17.716786890533232 11.994950687814606 11.377988673680873
Hf 16.52214087232385 14.491019128710231 10.412228919143766
Hf 13.694802549127433 16.65643760508757 15.812885594402546
Hf 11.096251309749233 14.2606231023885 12.315989477829733
Hf 9.302599370931963 13.508449475196738 14.379722501798378
Hf 12.397957398567854 14.862130346779036 17.610863987228395
Hf 17.36154892534853 13.41532089650687 15.786099131122635
Hf 18.26525974388874 14.25750272598144 13.151830941733802
Hf 10.331689567141503 11.102890387576037 15.825010744702386
Hf 17.83605023367565 11.412932267232492 14.032058314272376
Hf 12.223513869680183 13.21079048160057 14.82537403298849
Hf 15.57422344165579 10.297052667211796 12.650594079419573
Hf 10.573398019728176 11.369822970479897 13.054100872451468
Hf 13.57746729091329 14.186542160605082 10.506437649948728
Hf 12.812399693659989 10.336459920746377 14.650033877486957
Hf 16.69595257988488 16.552986008241277 12.228041382647879
Hf 12.638070638515659 11.887690459236476 17.352538742770196
Hf 10.987020094501451 15.786186005740882 15.057984283281884
Hf 15.593092224102824 13.19006852531993 13.168879497400077
Hf 14.70099261567866 18.105634447196923 13.307191835547163
Hf 14.476411983384866 16.876676296675583 10.625728335829434
Hf 16.327030929775052 16.04111037378789 14.86319070645669
Hf 14.73063105772918 14.045869086323338 16.34977041586339
Hf 13.050241505342779 11.765411168113438 12.052568182055422
Hf 10.199312199512852 13.614807973489667 17.0026516252676
Hf 15.232013221112867 11.9876717211154 10.298764296262675
Hf 13.638038123072429 15.586677843776775 13.100881807755579
Hf 15.381708236484624 11.2969504482715 15.536843277622776
