21
Energy = -174.8602081 eV
Hf 12.926244307864346 12.723154251932476 10.1105347676743
Hf 12.927040674639345 9.491646895351645 9.693980430038636
Hf 13.135933198328312 10.604274888414572 12.17856914454215
Hf 10.871325528332955 14.566305488785776 11.297527197453226
Hf 10.49374908896422 13.649664202073776 8.693589630718636
Hf 11.362785817374998 11.198056812335967 7.981883699381222
Hf 12.164367413086133 12.95456598979275 12.97403094743096
Hf 13.858536432240323 6.890660964609866 9.281741229281778
Hf 13.050978409262312 7.7110093285721595 11.906942288420767
Hf 12.127978707961258 8.114238498797063 7.388539023019332
Hf 8.378965559198194 13.940392793836235 10.44131630927648
Hf 10.2115977567538 11.503725663982417 10.987141538619253
Hf 8.364937364750968 11.592919211336191 8.62124402230919
Hf 9.135125442934598 13.115619534212959 13.23414711756337
Hf 10.953537229278293 10.696079670454514 13.963564265257325
Hf 9.728760358873183 9.039711480640003 8.553880247921459
Hf 11.206849484118429 6.967391856475657 9.842011033320507
Hf 10.314359663020264 8.477455848430324 12.093112300511427
Hf 7.116460983436067 11.807444524782692 11.382720038687701
Hf 7.896627318030255 9.289076455532273 10.58282087273461
Hf 8.40487361264293 10.24160336809526 13.182869203939566
