27
Energy = -230.42120942 eV
Hf 13.529707439278617 13.107351996396744 14.047263965096498
Hf 12.677685205774974 15.464200959984696 12.322815919681746
Hf 12.6130570239418 10.406069813381164 15.048945946811456
Hf 9.782429652917207 14.580268109813087 12.43646578245177
Hf 14.866306709066198 13.604125062835683 11.721652304245975
Hf 10.813866480224563 12.885474644700114 14.51458311224072
Hf 14.431615835147568 10.886051994039146 12.392629554704238
Hf 10.876016685710931 8.023108964730328 14.257736159049392
Hf 13.334024676939213 8.305989644497217 13.003319322596512
Hf 12.012577021254362 12.928822136518745 11.28684407416193
Hf 13.593316817297428 14.74680681095552 9.56730799737533
Hf 10.914092437987689 15.300714106632965 10.018512556646222
Hf 11.297253082964176 10.321357773975022 12.702860282762494
Hf 9.569293494137849 10.420042834966338 14.988812953063753
Hf 11.459350355663013 13.145275183748527 8.186750828168744
Hf 8.991604415289661 13.243724194254757 9.810533816502964
Hf 8.577088733294726 12.00870600593557 12.744986238165044
Hf 14.161192498994616 11.834552065802031 9.504276738263698
Hf 13.331884896305855 9.021439724162086 10.126581047698693
Hf 11.076598691919434 7.5721484586934995 11.283950385592084
Hf 9.362302670245592 10.715518756473479 7.761386290501907
Hf 8.61355393214585 9.099356802148762 12.454757345861426
Hf 10.62490693588628 10.488043047483833 10.092210219484349
Hf 7.679632286809864 10.83184669101322 10.299359971060873
Hf 12.356675505806006 10.515317506668563 7.660141931884614
Hf 11.124884134784775 8.228958398025892 8.397841874518692
Hf 8.61929904054516 8.39768339331211 9.534867291105634
