21
Energy = -175.49352614 eV
Hf 12.20755849771724 13.311400531263974 11.812986301659999
Hf 10.931321209725024 12.69104070052167 14.386732329627383
Hf 9.932950208243374 13.327883799512525 9.572861905660098
Hf 13.064247439952004 13.02952188754433 8.844909148903733
Hf 9.341244155002514 13.736324308557613 12.266749564487563
Hf 12.712220288359324 10.405498198321782 13.528690585147782
Hf 14.117684246284504 11.214663185573857 11.121847210302757
Hf 8.161287092328893 11.888505692326977 13.910010466210018
Hf 10.071688094842782 9.991428538032896 14.910620789406975
Hf 10.271364161195738 10.940973531353794 12.217334213892078
Hf 11.59353233489363 10.93983411355676 9.673169131330942
Hf 14.124992707129067 9.633348195444865 8.864071949227455
Hf 7.798685214743398 11.455168818302358 10.942668519611503
Hf 10.743278077495242 8.137206077103675 13.00218551361025
Hf 12.633302813773868 8.560226958979971 10.995011548947362
Hf 10.832193146921703 12.270575690216921 7.130328935711833
Hf 8.099213942822132 9.194389468749282 12.903163615600048
Hf 13.106925728481967 10.940208233360254 6.776232664460958
Hf 8.984061801995363 10.671302585770949 8.403751534747832
Hf 9.468754627585751 8.588664173649287 10.38176225186326
Hf 11.449939407100727 8.836847287018745 8.003231945230254
