22
Energy = -185.53751715 eV
Hf 11.674734338874485 7.442805885717683 9.342720536948656
Hf 11.758487566788995 9.903923277636096 13.670410117226945
Hf 13.431422625900323 12.4508883558494 13.718186567041583
Hf 10.191403103722125 9.896412933410696 10.324762210047478
Hf 13.911110356951983 13.606904304032176 11.0311376945927
Hf 11.342646425601698 14.511488458124273 10.02629841722036
Hf 9.186590349848709 13.526333448412164 11.882590029442673
Hf 10.75747674840319 9.817875258236356 7.604222370198127
Hf 8.906894702118896 10.547210957587184 13.04537932892589
Hf 13.281130539725352 9.688870008892613 9.156043048199685
Hf 7.938184770819599 10.162955564950442 8.423657715256999
Hf 10.036032145342624 7.680213163695435 12.009776915894216
Hf 12.821721298594253 8.379150737106162 11.604915573367254
Hf 9.024824828148459 7.67039246745476 9.006622163179365
Hf 9.542620515965126 12.596228289023058 8.87333740048038
Hf 7.5417412044137695 11.609871302596481 10.7175011723708
Hf 14.271266356223174 10.746526510227586 11.655603831521136
Hf 12.423470053476045 12.292853270226065 8.633461475937887
Hf 10.645586187923874 12.486494935762634 14.267942185041148
Hf 11.60375571642036 12.031024639371688 11.551384280890966
Hf 11.815707748931581 14.636092574048194 12.798361037254907
Hf 7.51796257110347 8.88629456674294 11.025846970759149
