28
Energy = -239.23240454 eV
Hf 10.874619300010794 10.87343267646885 6.982348305002409
Hf 13.31152677508136 10.84724654059954 8.310638969012325
Hf 11.7270571868518 13.441045195913047 8.118100422140996
Hf 14.355970692376355 13.089346680461487 9.990796163724571
Hf 15.399889000003276 10.333251755300214 10.139206848444239
Hf 10.924848805272974 8.770290859086991 9.010216432280835
Hf 8.895593929547513 12.713005145730344 7.520868318254893
Hf 13.523670155644089 8.374547571063095 9.96852392777033
Hf 8.4631863989506 10.014515114886159 8.174661670793242
Hf 15.576090942724596 11.704871647004579 12.403020544238718
Hf 10.350131231874071 11.565986166496359 9.764140801358153
Hf 9.345357737140175 14.340226025900089 9.553197115822167
Hf 11.64127788284702 14.167816974576107 11.092587285235275
Hf 12.896911835435784 11.06052701958486 11.386011281293115
Hf 13.79498650912756 13.699010061693427 12.713790501521755
Hf 14.380182537480747 9.04426791330095 12.653024262849351
Hf 7.5309539817941005 12.027954376199862 10.068522986078609
Hf 8.864598780464737 13.691968399641972 12.283198773379798
Hf 13.501130348908395 11.42249759872227 14.426713958894902
Hf 11.289798815273237 8.192954496324743 11.815350770616222
Hf 10.35842617555052 11.12478086071696 12.718545765482466
Hf 11.275510581257278 13.505508046453288 14.08896921325231
Hf 8.594137022451848 9.17026874164606 10.90079141246118
Hf 12.00125339047957 8.97419977220378 14.274789838437465
Hf 7.4225517066600055 11.032569513323443 12.688977825086317
Hf 10.90513074089237 11.008104830306944 15.64416939612401
Hf 8.67160024981204 12.143459928803916 14.765321384386574
Hf 9.096061352200081 9.195502425024715 14.172841562120977
