28
Energy = -237.66112989 eV
Hf 11.861736027375102 16.818677671253834 11.405745050495568
Hf 14.40390627973813 15.27866648927408 11.728783206636258
Hf 13.5324686071107 15.647093746016068 9.150201688919429
Hf 12.622098771353865 14.961023858510504 13.73033857077071
Hf 10.888170895308418 15.659161158843238 8.612035793326134
Hf 9.991711627209945 15.368233274667407 13.253926115383141
Hf 9.114159254510652 15.76023460144911 10.673355986699947
Hf 11.6296342933478 14.047349771793025 10.972620934007036
Hf 14.725596201138204 13.187102529522308 9.721605678441138
Hf 13.922793757885405 12.50262987416691 12.530610578625462
Hf 12.239738187546553 13.203108312987231 8.112737092326721
Hf 10.878788861399293 12.528184928035524 13.761210547842389
Hf 9.35563499309985 13.348331727493518 9.096588791500805
Hf 8.611187534504612 13.2484612810313 11.959100581598497
Hf 12.948379718183087 11.150204386111099 10.133369530271823
Hf 10.066624900006271 11.13987043140428 10.86940380087433
Hf 13.382245165847467 11.544389709698834 15.072006195050214
Hf 9.120381435546431 10.104496348462604 13.556379638428607
Hf 14.986560558950519 9.828735139195514 13.274090678541105
Hf 11.398815621558816 8.950217106704248 9.449042769155309
Hf 12.063615754510247 9.651178330599638 12.77220767592525
Hf 10.938533668450958 10.180097964137135 15.604271559347026
Hf 14.054009443946358 8.493955544135599 10.683308447565636
Hf 13.27847578349056 8.735314811326818 15.39203946077249
Hf 9.443754461308572 8.350827504302005 11.555583445072175
Hf 13.740569414293287 7.257452606819791 13.178320884254672
Hf 11.748090899935326 6.897219429801833 11.360063418068293
Hf 10.756255560408825 7.573385364187657 14.153126699991862
