27
Energy = -225.87180956 eV
Hf 8.663254570350212 7.994735975349135 10.671112939084937
Hf 7.165796873244667 9.74657620196438 9.232257267350219
Hf 6.956672419630919 9.621341384015098 12.213433354730963
Hf 9.708692781982599 8.734112555241259 13.183951223872967
Hf 9.005473134209762 11.425083444835145 13.860268972239172
Hf 8.485009827520164 12.095044817492896 8.204265263804958
Hf 11.554104797798619 8.11597422749995 10.762000198063342
Hf 9.984729468004364 9.596837094440238 8.53230516744062
Hf 10.609129926186215 13.476386541301341 15.355522190189253
Hf 8.968167757824036 11.03038781938868 10.973705571282364
Hf 11.556305389052064 10.655877552942151 14.987162556596903
Hf 12.564018564902648 8.313928500864352 13.432145622667075
Hf 11.755707457775554 10.760052202514482 12.0145349150717
Hf 14.228750069465375 9.199339259250314 11.32403768414601
Hf 12.786004898030843 10.353349987865334 8.976367480047957
Hf 11.08860539849439 11.847406641842642 7.042341008328625
Hf 10.866945220648882 12.861682351832986 9.594129419331182
Hf 10.335946371803022 13.593312520165426 12.545896725593195
Hf 11.782135171289706 15.621221616578401 13.76758303477525
Hf 14.23068789778163 10.56039820942113 13.815039147661548
Hf 13.144643733551145 13.133458471438635 13.978043949761055
Hf 14.137933558965498 12.099209483917958 11.127657275557297
Hf 13.397057780808593 13.198372956963906 8.588216888150846
Hf 12.6622731814723 14.82767344152693 11.092134683358179
Hf 14.632049631366074 15.480592903006915 13.071757460544564
Hf 15.498572836612992 14.475699844112945 10.56065937572498
Hf 16.031663996143017 13.007700808445938 13.010233491531517
