29
Energy = -246.46743231 eV
Hf 14.625810913467113 9.485253873557708 17.201954359611218
Hf 13.537495301974937 13.421805355465535 14.077036632849165
Hf 14.608350688682428 12.611003637263478 11.109644394140838
Hf 11.53977755562226 14.338884811229107 16.1598839974548
Hf 12.51463916853256 11.517662963438363 16.170253877038586
Hf 12.191925693408777 13.986129046099474 11.515208937013359
Hf 13.17024238315609 16.753107431970488 16.03048939419398
Hf 10.777934598810429 12.842881763705764 13.902768924917403
Hf 18.042229037314453 12.14113686811868 15.030545026676142
Hf 17.07784574899895 16.598613599023267 12.581980113735359
Hf 12.786623770798922 11.124370761149972 12.654533618698583
Hf 15.756053805208404 16.4602282818564 17.335040736141668
Hf 16.955454956875574 13.579727234002247 17.632277967861686
Hf 14.823421104583348 11.832264502372315 18.61333171308384
Hf 15.37746042658063 11.888070977867063 15.724224428254571
Hf 12.834874322729938 18.386824401868665 13.68973082832127
Hf 12.483067674627737 16.853146409715883 11.271230509112058
Hf 14.289330183189254 15.95691454191902 13.353927544017363
Hf 15.97886087717821 10.862357818731716 12.900045889527256
Hf 16.55842941802108 13.716561415016773 12.751043388066437
Hf 11.232514035620694 15.829527341939384 13.73676513543908
Hf 15.603956922460945 18.064640454058065 14.721113454946
Hf 14.023972560862953 9.413233417958892 14.526008056483754
Hf 16.590556146989258 15.062647874375449 15.148558867211815
Hf 15.026033030344413 15.461705359451464 10.664267873920615
Hf 17.24084804845208 10.710543307861366 17.597504896714536
Hf 14.033147200782222 14.233863837711203 17.437791921562678
Hf 16.76390285517412 9.381292388294813 15.206156020537836
Hf 14.929386994381332 18.204781433226543 11.778772501451316
