27
Energy = -229.10974439 eV
Hf 15.405057526997409 11.936941248977849 8.096992747605594
Hf 14.92774435121694 12.888017692738499 10.962174109930622
Hf 15.360247446301566 9.956732061839375 10.186951808596946
Hf 13.636427111509551 14.109973035859014 8.511749714355359
Hf 12.78796017151807 12.011091439437315 6.734926798276855
Hf 13.880858109602638 9.466699175047035 7.68007446655003
Hf 12.239297513483182 14.67252625493616 10.958426274516011
Hf 13.02578647128682 11.439359516042542 9.474000667205402
Hf 13.733188835782897 10.515516695505829 12.551919494730416
Hf 13.252928070092851 13.29570524494967 13.287313823299746
Hf 12.825902984832975 8.601448068259518 10.237527020375456
Hf 10.797833223651272 13.30912177405643 8.534369348168033
Hf 11.268024190924342 12.060460660934504 11.449381501351887
Hf 10.948301266943947 10.131378263225947 8.094960703897499
Hf 11.82405901952819 11.399155567135448 14.859660762255684
Hf 10.386166854995146 13.890360923590805 13.540406204411436
Hf 11.646730143310934 8.658084575943448 13.421882917362101
Hf 9.328345043403731 14.16669225072985 10.856326213297955
Hf 10.04156180607822 8.925402948100519 10.699862236045258
Hf 9.617785972973754 10.660879806651447 13.075538028193689
Hf 9.766492080254347 9.39576948106191 15.567400334298378
Hf 8.95184399872733 12.20230931213032 15.377699237321753
Hf 8.732081035469283 11.524447610396056 9.838541303426917
Hf 7.6372400347757265 12.598007117507576 12.627902546536415
Hf 8.814914671766992 7.944192779573317 13.223977045406283
Hf 7.335319201580985 9.75281226049523 11.546719893921289
Hf 7.19557287850491 10.150847275315078 14.352525220098114
