26
Energy = -220.08468979 eV
Hf 11.934576912398702 14.36334773524333 9.633299862478546
Hf 10.815376785187098 14.762246225725491 12.644757017654486
Hf 15.364278388093725 13.414356480347992 13.323208243394486
Hf 13.656395722720468 15.210071843740657 11.840368112871372
Hf 14.336434214452508 12.90552005020574 10.29837052272366
Hf 9.836316534797179 12.956345250366438 8.181708263023799
Hf 15.954463389065449 11.04727892821933 11.68395914222588
Hf 9.155622494633057 14.589529235741361 10.363420569506669
Hf 13.965677055543487 12.877726100299427 15.808583740277777
Hf 12.997778779037759 15.032113363828286 14.458294428089202
Hf 10.870478349387506 13.24440272043556 15.197496519982321
Hf 14.887669573577943 10.313723039308767 9.105910575880925
Hf 12.358479436867137 11.651033095408412 8.381538981916544
Hf 10.596536441796175 11.962667350045136 10.859866105991179
Hf 9.603163582976917 10.126861410138181 8.89258959303732
Hf 13.439139274204113 9.916820489274262 11.431225116824914
Hf 12.296300062180258 8.89635944359252 9.090748417659752
Hf 8.48213441096729 12.914673296514053 12.717902457418914
Hf 7.766734511431834 12.257958927915329 9.921316508807598
Hf 10.697784725785919 8.835477896724916 11.451863790413807
Hf 12.732743214490199 12.362156514287262 13.112900327294183
Hf 14.761991201553293 10.570522529802084 14.347092433086798
Hf 12.417827712492867 8.919002353084574 13.827470786530698
Hf 8.282199510256754 10.190700742562607 11.596053111665256
Hf 10.085962590125144 10.672037849352952 13.78423660231099
Hf 12.192282863364724 10.797271513053596 15.772677304482267
