29
Energy = -246.29367368 eV
Hf 11.618984689637845 7.179567974676386 11.3743036565671
Hf 13.5338204193145 8.478544146164733 9.565300439720875
Hf 11.747927273481707 8.336025123112037 13.971734012554368
Hf 13.644794357065809 9.524641692371143 12.062368549657242
Hf 14.729816492536644 11.129397863105067 9.361263601779203
Hf 12.91960993927731 9.767672025848748 7.285223292529558
Hf 12.724794367932276 10.884871734778374 14.486208436905153
Hf 14.435775787695482 12.430842169877696 12.202603759704413
Hf 8.796773264260999 7.582477858023132 10.564769439231045
Hf 10.793643147846618 8.337064484939935 8.6173280789683
Hf 10.27763375817189 11.113617169686155 7.32660496533237
Hf 10.475233226238789 9.773835691843773 11.624166897468273
Hf 11.952531147655193 11.297009027320055 9.61465367433664
Hf 9.14077245930754 7.795465757925046 13.251745059651219
Hf 13.140629872815872 12.479531057796864 7.266104251206066
Hf 11.587446463715652 12.538636598131957 12.429444909538446
Hf 7.717568866602437 10.059590914104344 12.000960254258977
Hf 13.517769812018843 13.531253017545266 14.678961457351047
Hf 10.883207087745177 13.759247214547631 8.188092282709274
Hf 8.952765038575993 12.371748012873198 9.927655079665147
Hf 8.372562467058806 9.837891924775514 9.16696773955621
Hf 13.396149291915522 13.898049669127095 9.746194027632765
Hf 9.625627569252302 10.373854491665188 14.407785113562497
Hf 10.564679321852637 14.667698653972835 10.79267858901727
Hf 10.697081177914107 13.051557074385647 15.273690091499281
Hf 8.7837451546111 12.861166337038163 12.903472067877575
Hf 13.05569096131693 15.171240633899819 12.457209757079333
Hf 10.328787290442472 15.195054608181017 13.50976337436609
Hf 12.179725320527352 15.729444042685117 15.347778411176234
