21
Energy = -173.64842441 eV
Hf 8.69566884367233 10.13567413827248 9.164900239794061
Hf 8.364582797567627 10.012017212174303 13.464731289913438
Hf 6.801959401383896 9.49437770575359 11.166898034019663
Hf 7.7869891155076125 12.168117764298326 11.201323113131945
Hf 9.200729071105695 7.956197305845002 11.189486485432683
Hf 10.195348737775747 12.609253110070517 9.19652236578669
Hf 9.84133302511686 14.343727929056541 11.421199206071645
Hf 10.824957907280579 10.856328882076687 7.004833544738581
Hf 10.403572515648785 10.701870065562797 11.622036731128029
Hf 9.296607092533112 12.772600901365255 13.59509706715626
Hf 12.578884192222487 12.991889673720701 7.451884098977707
Hf 11.383995788121528 9.067290934190048 9.186451970396691
Hf 11.136448088902876 10.940015400769203 14.426866165083212
Hf 13.512707946639157 10.209278426124609 7.444003158878659
Hf 12.098441657181084 12.997670132022492 12.598008899902226
Hf 10.773774009563885 8.37267389741214 13.582761506641258
Hf 12.152247974180597 7.459652193622763 11.401894146407011
Hf 12.298498578460805 14.34707059635692 10.0367405949987
Hf 13.183821280456463 11.639989223456425 9.887222199482022
Hf 13.142135597916704 9.888902447749143 12.589224313815903
Hf 14.111175324276688 8.94626116146607 10.021262990954181
