24
Energy = -201.80745174 eV
Hf 8.265113295449222 6.758119915449496 11.040551741385396
Hf 9.306289433932744 7.232202648289379 13.567444258071243
Hf 7.299144663894373 10.40233623443721 9.428412907709975
Hf 8.332100005606456 9.424964721351287 12.023414084410167
Hf 9.47845502926754 8.795744863598255 9.182047637306257
Hf 10.931063852190029 7.7520783306025285 11.293225057742736
Hf 7.078111416948259 12.253800634549767 11.6160199972267
Hf 10.61582713322972 9.947124112102399 13.495979768372461
Hf 12.096895545213282 9.084943316195425 7.967281715259068
Hf 9.664595608146561 11.285394541457844 7.709404701838115
Hf 7.838790535431004 13.212131700472522 8.997758398457954
Hf 9.698736469739615 11.745916417474293 10.66002123775077
Hf 13.059985097472365 8.854196152215312 13.031632575213967
Hf 13.887993141495308 8.180590046773501 10.363308194996659
Hf 8.855508684913065 14.436056303870414 11.327529331912247
Hf 12.173311317348608 10.420580037134581 10.61928891742297
Hf 9.555131881650926 12.650181320531413 13.479139884051886
Hf 12.395908918726152 11.968767146857347 7.858175174078384
Hf 12.73342047270607 11.893635045702746 13.154964630359762
Hf 10.74034109880713 13.95870242119006 9.032507904623728
Hf 14.45553451786881 10.489382876732792 8.829120019111189
Hf 14.886736670723954 10.58706890302546 11.61440332773938
Hf 11.496153734995191 14.067174350833643 11.846023305889023
Hf 13.61461994461146 12.966828880475207 10.307123043457334
