24
Energy = -199.78395457 eV
Hf 13.581886883691462 8.020950336832325 11.484736771588432
Hf 12.201123388372203 10.419244879540392 11.94469829359402
Hf 13.094693182264505 9.107607453542457 14.223190434119354
Hf 13.94393638118152 12.319260674714872 9.436533794513203
Hf 12.833530560038058 9.600678877509147 9.072504158793153
Hf 13.950640067954149 15.047442757879129 10.17337930675196
Hf 12.36146758344698 14.300647686690025 8.014841969648646
Hf 13.168218064920124 13.271252703115335 12.295119043259689
Hf 12.423826800411529 11.639340081756792 7.089233674112738
Hf 12.092342216284388 11.791343211506446 14.601360107274617
Hf 10.918406664512197 7.6505740196659175 10.148051444248843
Hf 11.229524745725259 7.513744438840686 12.940519218308351
Hf 10.216949208903968 9.725343799880612 14.254578829840101
Hf 8.126563560912981 8.306868051320635 9.342843389925001
Hf 11.011016091781071 12.160206560449918 9.434924828291091
Hf 10.347018774416096 9.452909005008676 7.889434806577425
Hf 9.499276081123464 10.312260071230511 10.807697144761946
Hf 8.38454269610605 8.296928649284903 12.301215051474673
Hf 10.29183659591048 12.906792757941778 12.785239613416804
Hf 11.224034799065993 14.752194604656713 10.734862897634091
Hf 7.910876771605991 11.182701728292686 13.133154003641089
Hf 6.696229344586438 10.33366749136291 10.758444996900382
Hf 8.19391521742999 12.879555685177758 10.791681248907004
Hf 8.173111292763382 11.170202936192114 8.404370386022237
