20
Energy = -166.77288146 eV
Hf 12.291425755814888 12.182624753331822 7.8814499188560765
Hf 9.573545940661017 11.530785099457578 8.377841166273678
Hf 11.641516057044896 9.712443526030182 9.358410103434757
Hf 10.203567795526364 14.291624755354325 8.458152148024682
Hf 10.466473468143478 15.046690684571987 11.397160333095494
Hf 11.270600121956956 12.591024608982929 10.415478136490382
Hf 8.468996232074243 13.266627831874604 10.413121653742085
Hf 14.136488800705585 10.989647529793602 9.917953635662254
Hf 9.109527082477038 10.426096081947016 11.131119951543928
Hf 15.074730920981567 10.624151807794656 12.599574246170743
Hf 13.578645556169707 8.671436175710644 11.349367846021451
Hf 11.961319666179522 14.011587124848857 13.670928344296888
Hf 14.059013371442049 13.293670891820948 11.768909043224179
Hf 12.181963343642792 11.124177813270347 12.460197855303043
Hf 12.761311314540807 9.253765463874434 14.257375960596484
Hf 9.421308112559888 12.806886227809244 13.092949776437193
Hf 9.804058480073909 9.981071897087253 13.894334194320662
Hf 10.938075477110365 8.382975689813838 11.987372030966412
Hf 13.960343227737877 12.213648100213074 14.517407573471584
Hf 11.307628635240976 11.809603296495299 15.261435442150841
