23
Energy = -191.86262436 eV
Hf 7.138435033695301 11.422714083078258 10.759564153201904
Hf 11.260329455442895 12.248023918890684 7.905621354085793
Hf 8.998596124744633 10.598446495172883 8.610173532093551
Hf 7.753055929050102 8.624922656848206 10.53028555262366
Hf 9.35653041029485 13.162866360760049 10.036230461896743
Hf 13.062341505256414 7.808239178553103 8.28626638048676
Hf 7.340209343942406 9.83709659188533 13.108026779524318
Hf 11.403970767879727 9.52836346217812 7.0865335110128465
Hf 11.6207782083991 15.256526702273908 9.834636315162072
Hf 9.70248788430198 10.497217651477117 11.614527136304844
Hf 10.63220997503767 14.483980295099634 12.25768375613673
Hf 13.360246970231834 14.46367831330304 12.235217360746661
Hf 8.578279680324187 12.581482401476233 13.116917860164673
Hf 13.996515484525007 10.513162089763787 8.507762902393742
Hf 11.89791309209208 10.033293764688715 9.867829634108649
Hf 10.576604977802347 7.866004643224987 10.111790515661228
Hf 9.418464787612573 7.865741420179472 12.829758462324213
Hf 9.815195840768764 10.204001943291747 14.454124170346281
Hf 12.511964855508724 12.824039720035664 10.348060870685465
Hf 11.759650537526289 12.067540406918349 13.35177032976898
Hf 12.143421012735486 9.163281503255764 12.951234592642555
Hf 14.033757346701442 8.320621503806983 10.724366270928124
Hf 14.060045473866479 10.967000998879758 11.769339176640914
