22
Energy = -182.73813678 eV
Hf 10.379234293677845 10.843677560625377 10.759993212631322
Hf 9.086900109249047 7.86125769288872 12.59142195736825
Hf 14.972324718867817 12.91802604048018 10.719634094853706
Hf 10.593927415318134 8.948644177658357 14.694574269012437
Hf 8.50925883575059 10.624006572070513 13.094068319925947
Hf 11.625242771302794 11.332009058898214 13.527435515909298
Hf 9.452993029372369 13.15744239205361 12.542331969402673
Hf 10.350839870838056 13.920141768248843 10.020696753529398
Hf 13.359099475114888 15.035843102910087 9.831373045996902
Hf 14.470607789027351 12.310876885055466 13.449279149839862
Hf 11.796766730639444 9.591966881401952 8.67650659762322
Hf 14.79750455322333 15.127515001787215 12.27666464328703
Hf 13.695453089920825 10.419731815120754 11.381844650841124
Hf 12.400323424174022 13.66486249484726 12.008710449616023
Hf 7.986330638235347 12.147365429986362 10.167249797435105
Hf 8.854374559308155 9.838923694871417 8.352816110777
Hf 12.85973887814538 12.2680748367212 8.999443604233646
Hf 9.886447091871608 7.778659739685356 9.846638904631964
Hf 13.428337469712744 9.435206201654795 14.183334172794147
Hf 10.245924391108995 12.078910437553628 7.9916116729871645
Hf 7.625119927088225 9.304377120784554 10.746908310589056
Hf 11.76122495594817 8.417660130364215 12.121779241143479
