26
Energy = -218.11925373 eV
Hf 15.624397368952186 15.2949638844054 13.43677940399421
Hf 10.709507636446798 10.275964307717441 11.133715165154008
Hf 8.846910994407166 8.107513110384662 10.796418816631562
Hf 12.543668950372801 11.195682234762538 14.784666813621024
Hf 10.51618993078708 9.173835511390118 8.584752348110651
Hf 10.515131353833004 14.073467743924676 13.918993522097521
Hf 13.122489232319513 13.956350118191278 9.627406695820174
Hf 8.179198344878982 10.705824849252098 9.74018364665299
Hf 10.732838357272865 14.849843345869036 10.94955337202426
Hf 13.178369925124917 8.894388434326071 9.679359187296589
Hf 10.966657522514112 12.732261112317413 16.39793433630133
Hf 11.50927251411686 7.44177266028088 11.23930260723723
Hf 12.958369255064122 15.281577379655204 12.700211826663919
Hf 14.572603442202157 16.41376620160097 10.855912013298585
Hf 7.905486715395778 10.055705917291675 12.440762452286066
Hf 12.197928013731719 12.52609126928747 11.967077013502628
Hf 9.675075576141051 11.374434803172246 14.139350117541543
Hf 14.519177072562224 11.2382687162499 10.585437086147346
Hf 12.550704546662601 11.28256635155673 8.555172168069108
Hf 15.47934310606462 13.883129156043418 11.133414849463499
Hf 13.228277215609422 9.38065997264611 12.56754199782408
Hf 13.281264781375697 13.888510810511939 15.119179050599353
Hf 8.807915632289136 12.806500387494095 11.705235362051452
Hf 10.210136773394026 12.64974446565602 9.130490847933054
Hf 10.25994986581942 8.581846937556046 13.482970488521243
Hf 14.870426501309677 12.305910094308107 13.393648003462433
