24
Energy = -203.12221522 eV
Hf 13.577068368185047 11.400437956202442 16.274240355921773
Hf 15.384469168074723 11.74032334693463 14.02557952798996
Hf 15.156929462203017 9.547581128393272 11.95595166834478
Hf 11.046800609563839 14.507650935114745 8.880624514871803
Hf 11.390714768132336 13.231690129136995 16.1341893151897
Hf 11.689614787503368 11.988233267912102 7.8621297561220835
Hf 10.43679777843196 9.719705373081378 13.111838621330453
Hf 15.050585513533669 12.073083903637727 11.181657040133231
Hf 13.628839900949776 10.515211318080386 9.29050103081791
Hf 10.601728205606245 9.904899757902054 9.634598756593665
Hf 13.960879760688496 14.017402594998732 15.337662697795855
Hf 9.498626723400905 14.288242147939597 11.47271167080472
Hf 13.755826038137867 13.60887854514741 9.182092663423681
Hf 9.237946578739264 12.387951752169124 9.129978420728076
Hf 12.576944869287967 9.14725787391717 11.5299910612098
Hf 12.247722728548903 15.381564075040863 11.128663762165143
Hf 11.649803009491905 12.37485998222059 10.84065821242083
Hf 12.525532176955545 11.98902309736463 13.649924496688124
Hf 13.305970829085888 9.280945639289774 14.31636401218917
Hf 11.538920150254716 14.84886452823454 13.787010945194366
Hf 8.828702216847663 11.392322560109156 11.598735877018605
Hf 14.337657467477921 14.299757240401545 12.588257467059961
Hf 10.973495392162409 10.492126504441583 15.7402896074699
Hf 9.568151666587731 12.522422669146895 14.055853627140355
