26
Energy = -220.89812398 eV
Hf 14.762881073803117 13.607542366796828 10.911044808492626
Hf 14.583388866996797 11.385715278171066 9.2267112150301
Hf 14.527528622618075 10.739658070670808 12.10407326856828
Hf 13.074230126791637 13.775843793246064 8.619477661168002
Hf 13.596557796522703 13.295085326997501 13.318526895818758
Hf 12.08648722193615 14.94162757259756 11.328928149228082
Hf 12.205432497440203 12.28670726282634 10.854128967670796
Hf 12.323599129771525 10.811545834009674 14.362088290910219
Hf 11.939817813713303 11.07022611610473 8.044108040327885
Hf 13.32458518704258 8.883434603099838 10.069916726203068
Hf 10.919851464475308 13.316724880697727 13.560970459431772
Hf 10.188811770361289 13.147603495078341 8.817794142157663
Hf 13.15795794585194 8.223767391259873 12.89675538538933
Hf 11.287088413177386 9.967127563541966 11.883025274665744
Hf 11.015273344297619 8.473730138286458 8.457145870232837
Hf 9.107795643174935 13.355832817378737 11.433280372843686
Hf 10.519041367600785 8.411927085196236 14.024377261493955
Hf 9.346627006597561 10.596580063238093 10.113548494785544
Hf 9.252768747619369 11.012486067350482 13.734872769142903
Hf 10.85779008541003 7.273689143420725 11.179317102831716
Hf 7.365981971711806 12.395819309721949 9.203640229999328
Hf 8.570979519862732 7.802359952722328 9.34239197261361
Hf 8.71656539146984 10.174873074385147 7.516163048553184
Hf 7.025887346983936 11.353533214003898 11.879219881822255
Hf 8.207855380069311 8.664951217660349 12.175187738654873
Hf 6.657032690175126 9.672293567433417 9.677086792710876
