28
Energy = -232.94191253 eV
Hf 12.050546568914838 15.415477350846906 16.695993077200647
Hf 14.017019717245377 13.76946633866909 12.298071468597682
Hf 13.719898737348482 11.018866787522926 11.142198340185969
Hf 15.418885988852395 11.265736334284504 13.860363164794093
Hf 12.30464540635335 13.252012508425606 9.738008806449832
Hf 19.25392112394841 16.740789335176242 20.320967526631552
Hf 15.001297631413902 13.141921318673392 9.447062140046143
Hf 11.238372156418384 12.316432494783724 12.00408616064016
Hf 16.480216091394944 16.232297611609262 13.563853192789855
Hf 16.434815523250816 15.062726163865106 11.049738014622395
Hf 16.46205093801192 12.029136678956846 11.382389771680982
Hf 16.01834249644998 13.314355432619404 18.228854721251526
Hf 12.746298707181218 11.39435477366813 14.14376997283041
Hf 11.763483135392613 12.418739986560212 16.537348374400764
Hf 13.303198335409657 13.480064013428558 18.455193724117343
Hf 17.551658813738705 15.857150002298997 18.95361165031139
Hf 14.699270393757503 15.835862535970367 17.968988100025637
Hf 17.281205659419808 13.566430408969985 13.53843077442179
Hf 12.130424083574948 16.47089651676397 14.110364918773065
Hf 11.063621812204012 13.906337588126226 14.284303317626016
Hf 11.498872509464793 15.30401877825225 11.645211734939151
Hf 14.373086823520822 11.158904671891529 16.854614087855943
Hf 14.369085027161578 13.855590552714455 15.568904882325755
Hf 17.020367985261846 15.17571922802752 16.138213409660448
Hf 14.163264597421291 16.920797584003353 12.242628730982684
Hf 14.53291557409597 16.9878414648627 15.410392683097111
Hf 13.801934881261685 15.60894508504293 9.836729327762026
Hf 16.98992915932886 12.19446266992285 15.968475192179138
