26
Energy = -221.30640877 eV
Hf 10.062034696600778 7.965902496549833 8.705339773515622
Hf 8.026531375858607 9.795760289943237 9.48136458730884
Hf 12.13265785531784 7.593478858563861 10.449619230296243
Hf 9.467800346899006 8.21194775593529 11.603387950887216
Hf 9.825102012238226 10.46967550025225 7.390410559449858
Hf 12.555643089128349 9.438133706190463 8.031422297254654
Hf 9.434251052229556 9.487390842392378 14.197526088289772
Hf 8.377008979869084 11.041002656497307 12.044435896861955
Hf 10.871022685826066 10.356247652317547 10.025652178141975
Hf 12.118714615219222 8.245850525597499 13.362476338256359
Hf 13.922999026231984 9.576033171177786 11.240331032744217
Hf 9.051472131844815 12.587812454317547 9.301481361369017
Hf 11.728477803815457 12.555824427263893 8.048880453246023
Hf 11.764221277617198 10.373676328177806 15.521292021044767
Hf 14.124507661661315 10.374101269027788 13.963772710572938
Hf 11.53370506685065 10.922240065536691 12.829007613275264
Hf 14.017417811441572 11.61375251510277 9.3003187145141
Hf 9.733426857578545 12.39090613466381 14.481436202421994
Hf 8.828327799352317 13.835820753605395 11.925789536391182
Hf 11.65615820693916 13.011748515712624 11.073026611821101
Hf 12.833602278810194 12.994033469686553 14.475046586056411
Hf 14.531890365467666 12.520844192598853 11.980343086968702
Hf 10.851931882495945 14.86290375136363 13.387662357345375
Hf 13.658338462673626 14.372152463628305 9.646594655182243
Hf 10.925377057660246 15.503088264617208 10.53690154470992
Hf 13.29266496213775 15.158787933801754 12.305145067802457
