25
Energy = -211.24963027 eV
Hf 6.8457761291477 11.257938244201283 13.240387953625438
Hf 8.09070579016429 8.774790129193878 13.611832727825579
Hf 6.6914587504841565 9.23036915846 11.143664072864189
Hf 9.088483166739403 7.666672385621054 11.236426492171736
Hf 6.990450204009931 12.010459115135454 10.417628794316336
Hf 8.56414591937067 13.307226235055758 12.50496249811047
Hf 9.025948473227315 10.628797084120567 11.607804175815994
Hf 9.098478440068208 9.708881873532741 8.963705516589735
Hf 10.954730682448039 8.384771476195876 13.451541846553182
Hf 9.759887450164591 11.115657670962388 14.376222168172308
Hf 11.630991932122406 10.439262684680461 11.638719367315217
Hf 11.708176074281125 7.890571801968661 10.36469354292643
Hf 11.596001852125958 8.866308315014923 7.622407954378024
Hf 9.64806408392139 13.024018193369379 9.769236866280005
Hf 10.282192194391442 11.3413344708268 6.842153846653511
Hf 13.703334501999665 8.795432424806314 12.246263291804327
Hf 11.746127918987918 11.279402636659185 9.15493849106672
Hf 11.44786070558554 13.03384978554975 12.784393198915168
Hf 12.678443073178988 10.781924699310068 14.113705855852276
Hf 14.053012639530982 9.545011736240538 9.416853765638864
Hf 12.509646198194105 13.895474934091547 10.379400491221226
Hf 13.181320546631149 10.979826176361888 6.773781460697144
Hf 14.143780972891854 11.733404285555611 11.635818070277718
Hf 12.014066230569398 13.534435700475683 7.577820357693769
Hf 14.362655333131837 12.458270037864416 8.843902667281283
