21
Energy = -170.98775407 eV
Hf 7.7289841891335325 9.884972262889804 10.887534785144561
Hf 7.431719770754797 12.25880751520581 12.533547427119094
Hf 8.022954960755197 9.67097856242813 13.670566297062
Hf 9.490901160292747 14.045493664096789 13.48435001575894
Hf 10.18159571461178 11.238311543754495 10.098588183868474
Hf 9.451580145676365 8.662243653384973 8.920151412274159
Hf 9.048247865115039 13.850423051271555 10.717102188871898
Hf 8.31215471737915 12.07147882360736 15.102719847287684
Hf 10.817440966694559 10.901475793976445 7.4079963717607535
Hf 11.087603383271947 13.630852979086056 8.69217532367504
Hf 11.043603319973425 6.553216288628952 10.007641021228967
Hf 10.4614466437651 8.733955732170042 11.708804046806774
Hf 10.227753972832819 11.351631004308633 13.226269129776979
Hf 13.220089514656781 11.78423123008522 8.906045268426977
Hf 13.648845785200965 14.470169214259112 9.641403104716524
Hf 11.942148383961568 13.200468413301818 11.507034808990873
Hf 12.266972241263607 8.902875207975672 9.03967107881675
Hf 12.99994731674258 10.404283137460894 12.110918077675025
Hf 13.196481788865738 7.697914131175587 11.447239686818165
Hf 14.75243597670614 12.397543567563854 11.22454840618469
Hf 14.90589511264056 9.685273110144422 10.190319453702958
