23
Energy = -190.39916022 eV
Hf 12.315710523068788 6.439127514833175 11.227491877219478
Hf 13.559934885946259 8.668208223729431 9.801149923329172
Hf 14.745715259354947 11.227110196146937 8.669462999298329
Hf 12.428355442372267 8.849815114690214 12.539142132156169
Hf 13.278289246476739 11.51902341973896 11.02473462706739
Hf 13.059963561549273 11.087066151628914 14.12875705931992
Hf 10.66394148085914 8.349104107303319 10.10131914124717
Hf 14.903062391063687 13.719434583898956 10.461507794940015
Hf 10.204564188635945 7.283741723120315 12.830966375205184
Hf 11.902586665967062 10.607834124863537 8.474526471980774
Hf 13.822281268708263 13.615521045808213 13.162297113373516
Hf 10.434492529683505 11.299307203343968 11.617716256718012
Hf 12.099215015699125 14.342281914634281 11.088860147988894
Hf 8.76817664241542 10.531868349506201 9.206019554488723
Hf 10.426864079215791 10.072993146309171 14.304893732407308
Hf 8.406188037399943 9.341941929182898 11.91298358064869
Hf 13.006716218998815 13.318374916349812 8.518124479534821
Hf 11.07082187752374 13.097803763072386 13.912347576059435
Hf 10.267467731634516 13.04212381572571 9.201065817350218
Hf 8.433920067835098 11.90722357866387 13.632949689587717
Hf 7.251755156617976 11.858151060826476 11.162898202049467
Hf 9.066757772478818 13.985418665121829 11.721475690624912
Hf 7.547740481069185 13.393743986629353 9.029610306752213
