23
Energy = -193.28707774 eV
Hf 10.49369556196238 12.174735518145539 14.569796934891517
Hf 11.705150400157596 9.57007880668841 13.871612374180497
Hf 13.017619126139373 12.157460530208393 12.932642949714698
Hf 8.698846518072758 10.103440304016484 13.537027005529449
Hf 10.742619758292088 14.301502461375609 12.448295699444389
Hf 8.11950630446593 12.921962857035968 12.998190591423713
Hf 10.323158488769128 11.732264358887544 11.859352170504787
Hf 9.52205920431736 8.32800104971005 11.459265800459058
Hf 12.031343623731548 13.14163903006377 9.938950943716712
Hf 14.335582318780126 9.450281142037483 12.431371296901107
Hf 12.39204302063772 7.282578013986542 11.709389449051342
Hf 14.355502046058154 11.390023431350379 10.250618476645585
Hf 8.765549754600322 13.501429683584158 10.114700494687627
Hf 12.078750014532064 9.87920516485243 11.010423218038275
Hf 7.284112123494569 10.969854004180057 10.948891211312425
Hf 14.034218249341077 8.560059186805256 9.615218593984546
Hf 9.764697385494529 10.608724017295454 9.480154141073937
Hf 10.346371598193862 12.646650463047317 7.594163194745798
Hf 11.071853726890502 7.966136613354899 8.934527751687998
Hf 8.00654159894568 8.661897275756417 8.813131677635104
Hf 12.495492672210851 10.578527508344678 8.020882692871313
Hf 7.680496552224382 11.540652784983795 8.036952611422988
Hf 9.830382334674301 9.873624723679013 6.841115394042168
