22
Energy = -181.37541042 eV
Hf 9.887491001382015 8.69972189951691 12.621522083529705
Hf 12.926310281251384 11.415338807911057 15.477376540918867
Hf 10.466083613072797 10.395319161718648 14.94195375658773
Hf 12.689764153425147 9.627968096608967 13.308936456201733
Hf 12.163129177722736 8.095083521320737 10.787942285864045
Hf 9.577396837085839 7.051344754909123 10.112228207491828
Hf 11.66631961509573 6.647485437162488 8.411313060082557
Hf 13.841793637780837 10.558682780234058 10.662328125221986
Hf 14.11337532506985 12.108050138576587 13.133975341078532
Hf 8.656141861632705 11.418279970473797 12.87493263255436
Hf 11.346875501707428 12.7865447300192 13.58762090183073
Hf 13.316911915147877 8.810527297509989 8.259178534751872
Hf 10.906556585602653 11.077328163116823 11.083919733388834
Hf 9.69695275609786 13.881443262929125 11.308582223049429
Hf 10.480884696891568 9.212685310402621 8.453655511145076
Hf 8.289972705805233 9.761909340118642 10.403567265641058
Hf 7.284717892181776 12.510779783669634 10.526952920109512
Hf 12.71790491920441 13.328915833718572 10.863007966262435
Hf 12.243523069844509 11.622394480764754 8.443902220223157
Hf 8.242140526322485 14.53009711788306 8.986939983789446
Hf 9.22748010352557 11.934478775521322 8.504444106907485
Hf 10.92790283532971 14.226813049502184 8.722692719262506
