25
Energy = -210.67489589 eV
Hf 8.586335990990303 9.160822856824428 12.525038095253107
Hf 8.180572619631521 9.660347243671893 9.811421326485759
Hf 8.620895521851912 11.94059462041269 11.634074855722396
Hf 9.757437055328179 7.457121654411427 10.619651778025077
Hf 11.308123367834492 8.2480230047281 13.06088159676943
Hf 10.124208604504021 10.935501477499624 14.212633289553319
Hf 9.44155314259803 11.75204450411854 8.664113650433416
Hf 10.849673312090655 10.115226248326453 10.79301264703662
Hf 10.366864178417016 13.973613913182474 13.539263804429332
Hf 10.913624632140769 9.138080447140561 8.250071368445582
Hf 12.499689487560879 7.671544740884167 10.391025371712967
Hf 11.249671521916571 16.10639992294849 11.774098635306649
Hf 13.749833541506163 17.00005369293143 12.121079915309489
Hf 12.172303441292543 16.194775738655437 14.395925548216058
Hf 12.260077409510695 11.808823953630835 12.445526483265052
Hf 10.642490376629382 13.653947751747118 10.453832567327565
Hf 13.181870309415107 14.796385247857948 10.025635763341358
Hf 12.396719836881564 12.78751703682228 15.129214945754235
Hf 12.222525930219756 12.063140504327391 8.642763547263653
Hf 12.834396517105406 10.012049693828633 14.702982327386223
Hf 14.118462699806846 9.389948108604772 12.12328629683742
Hf 13.484812611734428 14.319021734124613 12.849241151314349
Hf 13.648657763098448 9.872242379195356 9.302730955170858
Hf 14.792006421334028 11.770663534798212 13.69452863915182
Hf 14.551305130031283 12.206537886414816 10.759083662225335
