24
Energy = -198.29107306 eV
Hf 10.999615384887315 10.88049443324455 7.900821527894891
Hf 10.916060617640317 10.931847295844277 14.096788758232847
Hf 12.537755957710099 8.835436310323129 9.131532995820425
Hf 12.46012011357633 8.822872930087746 12.901978946765809
Hf 13.430509743205404 11.67435944963408 9.28811219246797
Hf 13.320266141782687 11.721780348624783 12.712268145378165
Hf 10.854194653505267 13.468869063014916 9.218022826500489
Hf 10.895383912278591 13.401722074968543 12.601676955901233
Hf 8.521538610173403 11.612178503790828 9.060820316159907
Hf 8.444431208573807 11.615003762123632 12.807212172784803
Hf 9.502946884147171 8.745480434911563 9.03761028814542
Hf 9.461829925391589 8.796558785754486 12.894753122133245
Hf 10.86382827303226 10.74809049767933 10.954345289238113
Hf 13.826090205904684 7.019507849266817 11.038701924546157
Hf 14.513989646729554 9.776934684661047 11.071294214898117
Hf 15.37776942502203 12.877283141023081 11.396077565480066
Hf 13.290138888364066 14.265547802833543 10.366287038126545
Hf 11.231005866446774 15.752211350609237 11.319045010647216
Hf 8.662440898258213 13.843444662451247 10.955118756420138
Hf 6.3250655797399284 12.231634383001085 10.891498270617708
Hf 7.487335333076756 9.62956871949941 10.934568516696087
Hf 8.17710888906447 6.881024890011982 10.997073237904313
Hf 10.994011759127774 7.20938186109833 11.001889349773789
Hf 13.544433277288745 14.69246396535267 13.028439351815985
