29
Energy = -247.47384358 eV
Hf 14.87339690008272 11.796953060896522 13.98991844570714
Hf 13.899332794699601 14.052659061243249 12.66958871238797
Hf 14.883904155928555 11.775225334167997 10.91308119803757
Hf 14.670891485992444 14.160133065888168 9.164456209576182
Hf 14.498294002335124 9.385230300670463 12.742772759179239
Hf 12.513705476022578 12.972674424542655 15.028666393902611
Hf 12.60492314767813 10.036019281027675 14.928648543189489
Hf 10.797476165382163 13.98601559351245 12.932164316662277
Hf 13.435780129318035 11.648110539559376 8.188852935048706
Hf 12.441712818475075 11.486071959065328 12.474348997847743
Hf 13.140187891986649 9.35028341110835 10.202380342279818
Hf 11.343366519545839 13.828062680556329 7.857745622815503
Hf 12.452756300909646 13.649615037955257 10.366660685140378
Hf 11.919615515018116 8.112139016214154 12.626996237142581
Hf 10.785940376863678 11.340846815525044 9.358831130367415
Hf 9.932539197583568 11.741127283320266 14.692139049337987
Hf 10.497366809586838 7.987190126957558 9.950851434547882
Hf 9.045943485524587 7.52487425367204 12.461855805335698
Hf 11.798033180951771 9.14769114180141 7.66126908752089
Hf 9.781043511125596 10.29652830023137 11.942506756505862
Hf 9.88759264683473 8.926253553222653 14.622463973657386
Hf 9.388720950940746 13.862719391801573 10.281092294871671
Hf 8.188390597860417 12.773919931160234 12.671862127142159
Hf 10.884940813744763 11.446324769708466 6.480270401411184
Hf 7.676155336267091 8.73349040898427 10.460906420570158
Hf 8.656393803963182 12.633873960367733 7.76696795181332
Hf 7.443557944584275 9.953503325026388 13.202336636945642
Hf 8.903327236610544 9.710816913973236 7.961357447710475
Hf 7.535296546926517 11.531051011685102 10.178285892413793
