27
Energy = -228.52176975 eV
Hf 6.98210010303716 10.980600975282856 8.963992149811158
Hf 8.98013319055668 10.03029960493538 7.555269023859098
Hf 8.248542762688876 8.556806330062662 10.025371048710916
Hf 6.788207617152675 10.6107048880573 11.626384686635728
Hf 7.380875729721148 13.140166468943521 10.55893521438306
Hf 9.096363273800963 12.95051754730625 8.172947457101136
Hf 11.193170402306981 8.722766024230046 8.780149092583285
Hf 9.735337611673645 11.063943189597612 10.391527191359007
Hf 8.840811046306385 9.38462227820593 12.98273406618575
Hf 11.307887405371325 11.275336515952878 7.533758553010833
Hf 8.501787994897633 12.515515677532045 13.008723706547784
Hf 10.596115383543172 7.925281721026831 11.411933960010199
Hf 9.936005420146964 14.164410115314459 10.927781387483535
Hf 12.133637092960585 13.338499643817254 9.01906464986531
Hf 13.527617512733864 10.653632512480302 9.027331110471827
Hf 13.271189006279513 8.37358611703982 10.98633124481911
Hf 10.390801253950457 11.146022992603024 14.458478988409334
Hf 11.795517731336533 8.869801547379923 13.726603892078597
Hf 12.618310702358578 14.605056450029974 11.32370836063006
Hf 12.717078148071241 11.403645797401634 11.980576428331725
Hf 11.23923308653981 13.700268458664533 13.637320724333456
Hf 15.414304725505012 10.120087087170523 10.996663175447276
Hf 14.852826169773873 12.986632289717502 10.627203700430913
Hf 14.515265909101881 9.188764447966502 13.490594510076198
Hf 13.140977694721332 11.442729172534444 14.886929738621767
Hf 14.072428617025045 13.82695056393831 13.384648778085538
Hf 15.54732341379222 11.663685419014818 13.224831521146456
