27
Energy = -226.62375655 eV
Hf 14.906217673427857 8.396473393076423 11.813265468251306
Hf 13.307339931178463 9.533587114279484 13.88785890867228
Hf 13.280562680782205 12.561620454298433 13.511603376749514
Hf 15.367469590435809 11.023613079445235 12.437557757500233
Hf 15.357186299482281 10.270287396088774 9.602618087143817
Hf 11.267831039441504 11.342727982620719 15.21213988635045
Hf 12.740229420281771 10.447657510963747 11.15198939243463
Hf 12.050647689881961 7.69196478168564 11.52298430259065
Hf 11.08471698076688 14.055696765787 14.518162751425306
Hf 10.464758709598934 9.108883240166811 13.52820486963094
Hf 14.192306214087179 12.970065264999077 10.511095901267279
Hf 8.691083423796682 12.70842045911886 14.873466686693941
Hf 14.022673760900767 7.639502687569576 9.353112062301307
Hf 11.88499455965026 14.579886321154579 11.66907258659741
Hf 7.935033716959271 10.429668748211034 12.905590892731405
Hf 10.304677248671934 12.112430660367233 12.4153138684811
Hf 14.175552791002325 9.021515531605528 7.0752333104128065
Hf 8.969138400913435 14.840863532640922 12.76386815103382
Hf 11.697862251370077 9.059613810693715 8.675921198266856
Hf 9.69830261451391 9.473508258604966 10.859265868836898
Hf 12.237977417853175 14.207306478926494 8.787358086777273
Hf 6.782425675784613 12.924110678945262 12.892262714370851
Hf 13.282853765536947 11.524384619578859 8.101941219495455
Hf 9.528246447470107 14.433542478242199 9.97190397996956
Hf 10.71785792045837 11.937031505912106 9.275615175324862
Hf 6.779506965096588 14.644160937596945 10.810074739539974
Hf 7.889277841983101 12.00416543102334 10.421115601786253
