21
Energy = -173.65002681 eV
Hf 14.493004982390406 10.328427946823622 13.747985798129164
Hf 14.433290412602288 11.332198846172282 11.072772637589496
Hf 12.904917706632121 8.956248232515888 11.762858143017917
Hf 14.697549127092545 12.357313705849418 8.383203194370815
Hf 11.66897785384874 9.91675377498119 14.205139828092827
Hf 12.616145288064835 12.414437730089325 13.046813696488659
Hf 13.039984121913843 10.017711371226072 8.92711465417455
Hf 9.967317028475822 8.467072990967692 12.385996617845217
Hf 10.946762825743317 8.215522183311684 9.687806215478581
Hf 12.048060735048761 12.401084800056557 7.6450193540594995
Hf 8.910023593051978 9.428029613117744 14.913847091026607
Hf 12.738920046638423 13.494732965577805 10.22190438683768
Hf 10.273315968234696 10.211616314773535 7.926552669194502
Hf 10.738086681554298 11.108326668319338 10.807779366420617
Hf 9.677486586040903 11.934997718019428 13.676946532603543
Hf 9.981391871698719 13.580918962175835 9.182572410119226
Hf 10.448712721379168 14.025233872141104 11.854316144423022
Hf 8.431547821662665 9.269537502880627 10.001322045677329
Hf 7.669803989043868 10.193941816765742 12.572069764854971
Hf 7.991258778153694 11.674652666000942 8.654906595912488
Hf 8.142797792801066 12.657191308037381 11.264456136321447
