28
Energy = -238.22259947 eV
Hf 8.863638200049358 13.499614591259345 7.886930455032147
Hf 11.032758940049984 11.474952629388858 7.084215206797674
Hf 8.07972454247828 10.633850291160769 8.184646731136931
Hf 11.510696056658979 14.283924977300567 8.599015045258115
Hf 8.41412596467851 7.405169502638349 10.051587156308445
Hf 7.342635441445403 12.627063014996198 10.144520427554138
Hf 9.36926725891244 14.479198070712592 10.848628194652706
Hf 10.024770416649623 8.675657067896351 7.592818809735277
Hf 10.308699849554106 11.96623162905116 9.592792036740432
Hf 13.59965803669977 12.246381705053745 8.946956662533774
Hf 12.778236052966523 9.293758854384015 8.46620672956774
Hf 7.268884606637623 10.117678143954274 11.119723557153522
Hf 11.23085490985482 6.879421686001626 9.333064460103595
Hf 10.148176089486867 9.263779761975302 10.476550120573947
Hf 7.702496735318156 12.734819212734925 13.113565186266916
Hf 9.828581943921463 11.614071622986968 12.134715382740715
Hf 12.306540756633897 13.896762115431429 11.361489099017591
Hf 12.569516218351394 10.73659622568312 11.216075843785225
Hf 15.066800886807753 9.965487088903737 10.224820509813531
Hf 10.416909848852658 13.873423682658206 13.640971049404053
Hf 8.764283599014318 8.950732035269269 13.123278541859682
Hf 10.571143131863591 6.910863702508293 12.112952908898885
Hf 14.794012807820677 12.384738609798521 11.725505994800473
Hf 13.212218024536893 7.846737066578081 11.303898605154549
Hf 9.902932024911294 11.245877849732379 14.848588627966377
Hf 12.683958609796457 12.040424060730038 13.902429600638975
Hf 11.697572648254532 9.107295892737278 13.735973026759561
Hf 14.490533069330297 9.820631331794763 13.060431409652082
