29
Energy = -247.97265079 eV
Hf 12.12593144742918 8.442052687177979 14.016488543511654
Hf 13.090524119166483 10.328072036317497 15.956876978860558
Hf 10.288802271974822 10.134686442796129 15.80485055986468
Hf 14.610122737078004 10.211865826220015 13.54578182704503
Hf 8.916696797663551 9.73315711001401 13.366651200876442
Hf 10.493993940823756 8.588530333051283 11.57448354256422
Hf 13.28764266382406 8.969670984949284 11.31885023362111
Hf 11.503989194703749 12.692342061236944 16.092806887412912
Hf 11.796415946859058 11.186763013242794 13.466639796001838
Hf 13.771099469071736 9.101660336644482 8.431119049393308
Hf 9.193204028448116 12.613745010263745 14.453513079890584
Hf 14.00097551441647 12.777077808502709 14.804338739717714
Hf 10.743364206661008 9.106585527704809 8.907378324558293
Hf 8.111641970709274 9.913482938477406 10.29178409983995
Hf 12.552561778901104 11.433969649125322 9.690322187249945
Hf 11.92432231589081 10.663860760195021 6.9268382273212525
Hf 7.2979311784285965 11.849254456004536 12.456217312628496
Hf 15.331322372939432 10.86880506072294 10.201466627024201
Hf 7.540537158476075 12.770264120490536 9.924681110889383
Hf 9.514768168946476 11.704202206361336 8.112191683256816
Hf 9.977307305415657 11.846938708278618 11.1703599903006
Hf 14.024572060594926 12.762958370740206 12.057264029288598
Hf 14.445817935261436 11.703360079317916 7.483570206794144
Hf 11.574731467686009 14.170350810991593 13.673871182060669
Hf 14.513326840950631 13.637634489884615 9.459151773984487
Hf 8.922158718815664 14.369216986402021 12.052311776338815
Hf 12.057673359900445 13.530304357559192 7.7995800912143265
Hf 9.62964447999718 14.368064798702935 9.255679514336697
Hf 11.953776321714225 14.417550345544312 10.719029980156414
