27
Energy = -230.49670413 eV
Hf 14.495351992473616 9.699731305760633 13.361976485154402
Hf 12.7651637356194 7.458674475490309 12.826854876771538
Hf 11.877670993679697 9.574932298724486 14.750069855447382
Hf 9.05631867620366 10.17673457101084 14.5936142246561
Hf 14.202624283622214 8.763394798246285 10.501469081516237
Hf 13.204372933788168 12.164221459131461 14.00232763477481
Hf 9.858226014017303 8.289312242526147 12.609842996633427
Hf 10.732753040572025 12.258180380904248 15.489358012484077
Hf 14.551376039092888 11.814010379943232 11.356748293287596
Hf 12.084149227668025 9.971703748037582 11.862931085034594
Hf 11.466740700584648 7.520611861867647 10.372387626526614
Hf 12.877154117029406 14.066634154125184 11.932125556359669
Hf 8.242936456439532 12.804874268652874 14.29106935495875
Hf 10.489516461332668 14.596537520352953 13.620907527880503
Hf 10.341949866396977 12.052996004108877 12.51035807262349
Hf 11.624079393495542 11.78023507586365 9.643805141487865
Hf 12.208855343654445 9.22848805894588 8.179918034910278
Hf 9.42773309330677 9.443971914131533 9.80586278711869
Hf 10.623241521942232 14.652622710613088 10.499693030070802
Hf 14.430148186607704 11.082563013840401 8.681255903101983
Hf 7.783435697427559 10.847502310177436 12.04989544676172
Hf 8.187313941817095 13.938121722946423 11.822901752686663
Hf 13.343341109639905 13.851520853696668 9.02358390248059
Hf 9.899636960932856 10.955511513161294 7.399125990858437
Hf 12.52425434631251 11.896835978327788 6.931137988211274
Hf 8.591992345613017 12.312792760087978 9.532066803911471
Hf 10.539894212544574 13.716153220217727 7.777128016642795
