21
Energy = -174.73976848 eV
Hf 10.04360786475618 8.652398391306596 6.043574259597312
Hf 8.023045132918856 10.3966354690463 6.326305293187341
Hf 10.781622621508244 11.236550113852775 6.803095455850252
Hf 7.515002492951322 7.772479096543787 7.683388555501193
Hf 12.195667951111185 9.018062487997515 7.959846765251386
Hf 8.632692620809472 12.522515479608414 8.273420438075743
Hf 10.312425690273532 6.7103865172478 7.866388325917015
Hf 6.577785514276644 10.468497367461127 8.610226680111374
Hf 10.913928101844602 11.575730092885582 9.812462943943647
Hf 11.652882975217759 7.321032617390528 10.123897517143387
Hf 9.373300641089372 9.380919432615702 8.929185354904787
Hf 9.988888548015186 13.795147512292177 10.887949109712357
Hf 7.865524099599765 11.627711412219224 10.838167190113646
Hf 12.449523274784747 9.64120015792504 11.403313943175721
Hf 8.929271421482207 6.659717314020992 10.414192075395361
Hf 12.327522136634714 12.4726145546111 12.236230169892547
Hf 6.94875447236096 8.64047917837347 10.586815022034594
Hf 9.73051120834641 11.91240983180489 12.877846216512063
Hf 11.316895472381766 7.425280996088778 12.835756039240078
Hf 9.39091464008886 9.16087838802252 12.035372189417764
Hf 11.53945889161985 10.118579360757456 13.961792227094394
