26
Energy = -217.82501705 eV
Hf 14.407643405472284 14.277996839312836 7.882753054550874
Hf 14.388108584620356 9.666968938041633 9.843565133119808
Hf 14.694494391430696 13.119608821821735 12.63192313962536
Hf 15.370865547559708 12.568590747536918 9.91213738597962
Hf 14.509350635492295 10.173482903207589 12.741010976068779
Hf 13.343971695273737 14.793115157655548 10.607853999162351
Hf 12.32139205275911 14.40208145065568 13.420443047218848
Hf 13.805983799848892 11.514375442526484 7.77766585011166
Hf 14.094658446845678 7.538517824661513 11.954056123493718
Hf 9.875796715350745 15.566006117165209 12.76151101182905
Hf 12.642253025974716 11.701903073292762 14.331968281690015
Hf 11.832737341051436 13.370510750691484 8.444651089929026
Hf 12.742299036386266 11.86309044951716 10.992016510514805
Hf 10.090409554217706 10.894466879734509 12.341230306336035
Hf 9.928538108439268 13.149406622990107 14.406935633815317
Hf 11.82392895217096 8.765559088772765 11.002722687617005
Hf 10.533333253038945 13.649933208742377 11.001763694580118
Hf 11.30036050767283 10.48019772710392 8.836112837121798
Hf 8.780306086301971 11.687343085148013 9.726685151038689
Hf 10.275117536921307 10.290544765037813 15.251363194296482
Hf 12.16339442856939 8.79407863355862 13.857269980027779
Hf 7.855249237638869 11.052224554848184 14.236269728456275
Hf 9.078285575227303 8.852509392429901 10.213082327041839
Hf 7.936682508023045 13.119620352232754 12.159252148691177
Hf 9.030687767425931 8.487404382671537 13.310837698504539
Hf 7.264658938109153 10.228408649613709 11.681292952634307
