29
Energy = -244.1375611 eV
Hf 14.120945404723999 10.93838996185498 15.86325054833332
Hf 15.497082210563544 10.959557801760635 13.451766498895664
Hf 12.831913046829046 13.283906661952726 16.595314220239082
Hf 16.3516955878235 12.38945645499846 11.165277562112507
Hf 15.091405987666505 13.471692204308523 14.666456038871207
Hf 10.282030463968727 9.086671764307473 13.33341880359055
Hf 13.047383326333593 9.314489111250285 13.686602950650672
Hf 13.865896967345662 13.283116491231528 11.777377438599405
Hf 12.500892648966188 12.272457873187951 13.889301353171376
Hf 11.170558677719136 10.84406690052729 15.789678481885232
Hf 14.46488146306663 10.202541232843744 10.988781503417798
Hf 10.397985444114072 13.722768791474326 15.403610408179995
Hf 14.01507928768256 12.231060510404086 9.09118340099066
Hf 12.703952334866546 15.170436795928751 14.351418988278054
Hf 12.039880631197914 8.10949487797294 11.044052060138881
Hf 9.540482478789535 11.839353361275043 13.29732724244754
Hf 11.463875790480143 10.987811180530358 11.07566363158437
Hf 10.593232395593128 14.540268164994746 12.541847244415251
Hf 12.610021606843002 15.963560671590857 11.241449729807199
Hf 9.37564460579406 7.181589810627561 11.289790290474187
Hf 11.519783406351188 13.649800014711474 9.799945613965956
Hf 12.716878419032962 9.72552936581552 8.725556754486586
Hf 8.631012065178057 9.900786811180708 11.118626725343383
Hf 11.557577476634409 11.995033099168083 7.339592037291284
Hf 10.080617093119239 8.59056763672056 8.967950133599091
Hf 8.608757590254383 13.35971337103154 10.69403868089655
Hf 9.897634484784872 15.91801436308327 10.121981454301439
Hf 9.26373011976735 11.32023611308964 8.7841042296874
Hf 9.392413803214806 13.996796738437565 7.995212938360126
