27
Energy = -230.38944644 eV
Hf 13.00504940732103 10.324130691018459 7.141834974298739
Hf 10.411707932559128 11.365870623967837 7.490036359621173
Hf 11.06674992132565 8.694562994208656 8.654449558506435
Hf 12.93149030395682 13.083340019711867 7.830203045409193
Hf 14.152786868885217 8.848330001969488 9.198668536693301
Hf 8.130256962244333 10.135607294458461 8.975667839602355
Hf 14.969361219839096 11.562790116059015 8.950526478143448
Hf 12.44768586964391 7.9768126280215945 11.256550242335177
Hf 8.399527000523104 13.131815953871106 8.476999814728181
Hf 12.29105561481549 11.030018702168954 9.828383568672262
Hf 9.559206627450815 8.413997072786502 11.323219930325806
Hf 11.00645671614094 14.138658672364738 9.582352910486168
Hf 7.329776673392199 9.980878772489506 11.82980568823513
Hf 6.740659708921131 12.3346440490571 10.61257523259242
Hf 9.503499639251487 11.724949271101336 10.79081964269313
Hf 11.121132443105889 7.8414070867632715 13.736461473250548
Hf 13.636563385469179 13.359929097899947 10.872576984528466
Hf 14.70272288973041 10.666381561238302 11.607166106629816
Hf 13.73207803882542 9.051917190819239 13.752279688242483
Hf 8.606863678342524 14.46737307395954 11.018166915538027
Hf 11.43792942073257 10.5193898366591 12.694195064325523
Hf 9.054500544508757 9.870117162589299 14.20009868994096
Hf 11.064664781182143 13.847917851459451 12.490392136555437
Hf 8.151277041790275 12.568547048610142 13.207391924309428
Hf 13.393870477032031 12.079667820354883 13.891569046648815
Hf 11.724716158271944 10.037926516645117 15.466422881971335
Hf 10.597813496935315 12.419070237391463 14.818931079857572
