23
Energy = -191.42059897 eV
Hf 14.095547822780262 12.836626350295889 13.474358455670476
Hf 11.745721393486374 11.770403143502453 15.043452472244091
Hf 11.35530892833364 13.418058698240888 12.751845542607066
Hf 15.200609995546358 10.897183720590693 11.45604464484026
Hf 13.341864050318621 12.909137616109415 10.684566874081522
Hf 12.668082537659117 10.755686277523282 12.617677025912503
Hf 8.45381691053235 13.508822840901935 11.960990466414815
Hf 9.357966312982821 11.1988660124359 13.414306677498693
Hf 10.909721800131482 8.723670030089655 13.659862566128936
Hf 10.313370204267907 12.604333386002681 9.901116202049334
Hf 13.061674077291672 8.17108556612424 11.422863002502943
Hf 7.611783523951443 13.405601307569297 9.303227296995951
Hf 13.314581035264466 10.181918707351686 9.301076563354796
Hf 10.577242733214481 9.795786104868554 10.849319756344324
Hf 12.39794032941981 12.488781229281285 7.858814189030865
Hf 8.391744717795293 8.656540505471092 12.3994145611863
Hf 10.356690332351429 6.988785124454715 11.333161678641424
Hf 9.741800494731152 12.856474016585118 7.08752236720577
Hf 7.543420285919263 10.985910310010139 10.942620480293968
Hf 11.656530039887814 7.8155010889706595 9.007365615205916
Hf 10.7439249137563 10.158915441759156 7.613253680659165
Hf 8.09198221254081 10.942113816788492 8.17516806589052
Hf 8.688714387328943 8.392340911876971 9.380076672718294
