20
Energy = -166.77193035 eV
Hf 12.239111364628824 12.537675947254778 8.4627668221474
Hf 10.057938715668618 10.907969789226255 9.418018433352447
Hf 12.704445743377159 9.889301783312817 8.992848397725474
Hf 13.275735636523105 14.488184135657965 10.074361599634987
Hf 14.883483106836074 11.838669693030798 9.832416154163779
Hf 12.691427700133136 11.814998640816324 11.344273855159528
Hf 14.154263972494089 9.16622779852432 11.185112290746467
Hf 8.003875117012905 12.351715705051966 11.044069249699835
Hf 10.338317560403013 13.876364839487668 10.32966327369526
Hf 11.22753301390854 8.728869006085297 11.375639605818533
Hf 8.435826592280263 9.550376885782354 11.531772044467248
Hf 9.191560342613537 13.933856284679088 13.089738704215408
Hf 11.977570406760062 14.641617003148552 12.542841064366852
Hf 14.653214650607694 13.753079244592907 12.371554968129443
Hf 12.821039071438515 9.541993519082395 13.603180383887548
Hf 7.7443128190618395 11.310165496500275 13.636549862045182
Hf 9.851679501710755 9.148695420006886 13.956582146362988
Hf 12.811195392378501 12.417891299608327 14.250675410759387
Hf 10.315872662810296 11.469372521985754 12.548974526339695
Hf 15.102678642812172 11.114056999624948 12.890043220742292
