25
Energy = -210.66382096 eV
Hf 8.619469275595076 12.777872955168192 8.905518782233063
Hf 11.482860211586935 12.972530073354553 7.862279343160281
Hf 12.629429353902548 10.280586615290414 8.7363465849495
Hf 10.078074390023621 14.920194178637221 9.704859379731122
Hf 9.926513487686398 10.554902750513422 8.144732217214647
Hf 12.935517262825027 14.880191053029197 9.81122231230205
Hf 8.369477636383825 10.411059004949852 10.68963494711222
Hf 14.002996168670268 12.280998943891552 10.214306000193059
Hf 11.005532213984743 12.234231317396011 10.52472180743427
Hf 10.618161967793789 8.533240978602956 9.883183266347846
Hf 13.747808436011477 9.739583048953987 11.43816277232467
Hf 15.951660454545824 14.22542746309348 10.350462017232259
Hf 9.080724879095294 7.999178921891863 12.179018135037271
Hf 15.686329297434524 12.079660510201299 12.405184681108139
Hf 8.540682900845605 13.27750824408461 11.71079599333346
Hf 10.991001158965966 10.111606959513304 12.51325656611872
Hf 8.499815357296638 10.410195310724092 13.83592703065533
Hf 11.27689496148947 14.675951154735781 12.275053944936854
Hf 14.161860956681391 14.434252497400221 12.33022707166815
Hf 13.200299594063006 9.264868984275038 14.192509687313724
Hf 11.987997899651111 7.413633747403078 12.227997958990183
Hf 12.989325506883148 12.183116095081541 13.597877407080912
Hf 10.105516491213923 12.849885161112704 13.962528916352214
Hf 10.481117012107195 8.177899187652622 14.5763253784741
Hf 11.091791101611772 10.772282819391704 15.388725775044648
