27
Energy = -228.15522829 eV
Hf 12.84989947041852 8.080335611441628 8.683559630889764
Hf 14.4962572103013 10.210348230380728 9.124622890780797
Hf 11.424362323578476 7.264019872733181 11.050863809416578
Hf 10.161149598366945 8.578298386569385 8.831923542498169
Hf 11.929053000410283 10.122514283139417 10.609619951784978
Hf 13.796952513271238 9.043270111805295 12.536449116660108
Hf 11.893186724003208 10.709576587941989 7.8309472331189465
Hf 11.032458284384662 8.568196184263687 13.585266477701952
Hf 13.313756185108002 12.819947265222934 9.343765800260496
Hf 14.586339125000231 11.921625851290012 14.493319886257282
Hf 9.178133888138388 8.946436288825026 11.37580186368138
Hf 9.401281933170935 11.396764668010283 9.627259969672313
Hf 14.758339566116938 11.569605845377904 11.537815990523836
Hf 12.0761794789135 11.489027168462382 13.304488932996867
Hf 11.140084577702746 13.530573772462347 11.365090379036722
Hf 10.428956959991314 13.976057733889336 8.67400549212093
Hf 8.328034833248948 13.757126499332621 10.791668440977674
Hf 12.830502824713868 9.698116310325407 15.376870533925612
Hf 14.083797480893482 14.21437062634784 12.017633893458065
Hf 10.01816682886516 10.71994249477626 15.252279915629034
Hf 9.031630909832234 11.449749532529143 12.570921352250577
Hf 12.532748434639378 15.61835476708065 9.932572644262583
Hf 12.102565850908828 12.326183438460877 16.098448549870724
Hf 10.129401919643165 13.675595299330118 14.165528963351651
Hf 9.889555430553669 16.070721921981765 10.583916585057752
Hf 12.978749921939803 14.347338019585543 14.618524012581398
Hf 11.931507096798493 16.05923325205577 12.644535915253371
