33
Energy = -283.83255864 eV
Hf 14.761821864827658 8.613166739699635 8.30175167918934
Hf 15.583234372127915 10.877423111218915 9.856096202683789
Hf 14.48470823881417 8.262335631472014 11.270062829960708
Hf 12.62214092704373 7.149455666643795 9.252335742337788
Hf 14.09061864387103 11.141523818842254 7.448213641061611
Hf 14.642712791051688 11.0073667417861 12.487343346205755
Hf 11.97809697842182 9.19379480546214 7.227239202632792
Hf 12.83722967173592 10.063219160840388 9.971970274421695
Hf 11.509234975499785 7.772967087011606 11.680248049486805
Hf 12.329848741903321 9.694174792188711 13.558154028241345
Hf 13.57958491036686 13.086151286956666 9.526708285249825
Hf 13.337777777324552 12.431919001333043 14.618803596915495
Hf 9.868461844038196 8.121824727627384 9.25023307925571
Hf 11.322906440747808 12.137150862950637 7.308829892801126
Hf 14.731720574462663 13.891700274192553 12.296641517909405
Hf 12.120543333295325 12.848290045937452 11.995467157511895
Hf 10.244139512761526 11.076702861175999 9.85124413818447
Hf 12.663322259161875 15.485652019815168 11.057709239538111
Hf 9.234533946354434 10.126113754054492 7.202183064907762
Hf 9.014622034912048 9.159427597977508 11.832983328351107
Hf 12.632220969665402 15.12250756821767 13.81850751498481
Hf 9.416450999178975 9.141958678777966 14.661259533012004
Hf 11.230542546870774 10.903602651532985 15.9602932217486
Hf 9.940049004024647 11.632357712176795 13.399369581352934
Hf 10.653107265199111 14.04872133716028 9.582087302772214
Hf 7.584471625010267 10.204057606017688 9.554588935427175
Hf 8.513132938344487 12.610384382190729 8.199382048099404
Hf 10.030895221971525 14.965221548375645 12.494882865650888
Hf 10.55381417702598 13.768499673582935 15.26233732620646
Hf 8.189049100544652 12.729351527020997 11.174072637660183
Hf 7.219518190796665 10.821858025037708 13.403336501927507
Hf 8.536068723647832 11.637577833135353 15.89441528944867
Hf 7.8820035025176045 13.599120992201017 13.961854815040326
