35
Energy = -298.21372566 eV
Hf 8.106327631420099 10.63608013689862 14.031953398627298
Hf 10.145647850360405 10.03480739029469 9.11406795107336
Hf 15.719074586915205 10.511297850344077 13.091782143795708
Hf 14.957240694685492 12.688421521661093 8.701417823988152
Hf 10.110266497043412 12.839369680520909 8.03759336140002
Hf 10.675817378347057 15.401563408601746 9.671859015858503
Hf 10.546444649452496 12.657472225924467 10.889540450621238
Hf 10.454667883035578 12.504916711472841 14.044559937119654
Hf 8.19289198612952 13.979483665555419 9.905500429138144
Hf 10.338013212858442 9.401963387609555 15.088914844265078
Hf 7.924883357286874 12.922951791658953 12.591719332519457
Hf 10.492280941585046 10.04949162212488 12.246696667637927
Hf 14.698958230097931 15.350913428005018 13.472356896500859
Hf 16.369659324734627 13.11780245466978 14.262882884908143
Hf 15.784121976982448 12.782832005459227 11.435367968102634
Hf 13.204592853843172 11.022163983351957 11.33784461572744
Hf 8.603234745871088 8.073063425011046 13.178408411664625
Hf 12.653512682761956 11.145284676696944 8.36553582115201
Hf 9.589305573362562 15.228514120910969 7.111298368507016
Hf 9.52298372107623 15.058008465917004 12.389818746905595
Hf 14.152214113250452 8.36999922831176 12.15843224371166
Hf 13.32222871080865 13.985175785176098 10.595804303328043
Hf 12.519941820232054 14.105418448872957 7.818589858091609
Hf 12.367281976216928 8.420449195639238 9.984279870352317
Hf 12.170952698605106 15.810733344507033 12.353171826290355
Hf 12.261609904323548 12.158726029019682 16.242749139012854
Hf 13.526186907772797 12.762858496561309 13.652723488627815
Hf 9.576970120914046 7.8131988790211615 10.604671549564307
Hf 13.0455046932401 9.747588348821592 14.46510287230254
Hf 11.493422752408161 7.483565094924086 12.856516885841602
Hf 14.475372843150577 14.08472411904731 16.09055001831396
Hf 12.006163211080587 14.90882106992334 15.031015158785177
Hf 7.988142986703506 10.518580281598888 10.955992916460248
Hf 15.234502079148726 10.022361703831875 9.888107984709404
Hf 15.006430338871546 11.307561769696791 15.92490543623028
