34
Energy = -290.53167385 eV
Hf 14.642342889388598 12.637015934018068 6.637033571771855
Hf 12.149494877995064 11.152219772816279 7.405811098447311
Hf 12.412366865421955 13.98620884039192 7.396719662548576
Hf 11.789842298551156 15.237747436213574 9.869919112101469
Hf 9.954420583758482 13.011203134449962 8.437295133106625
Hf 14.64574645933023 11.132593629800327 8.969201646654387
Hf 9.089752121142485 14.298670741722852 11.166119347425926
Hf 9.499067445056804 10.087469556118345 8.844310660858905
Hf 14.546894145317495 14.059731787229268 9.277407695020312
Hf 13.726456557508888 15.215895602991095 12.143757672893644
Hf 12.245237404813407 12.380290700601433 10.106532510741717
Hf 7.642161353455449 12.213328003521747 9.794568271926169
Hf 10.919105640131566 16.189093717568113 12.352578128697589
Hf 12.329420303288002 9.392064226585289 9.910397476561837
Hf 9.80262101821396 11.150481850129589 11.568589525612817
Hf 7.390883469558008 9.709552043855822 10.783193227489482
Hf 14.726698502796818 12.299989018590924 11.781227272083882
Hf 7.459757125158456 12.262169388362695 12.7202593723809
Hf 9.826466502823731 8.230159837740285 11.257666360879563
Hf 11.615678257844086 13.349101256204113 12.982900289753037
Hf 14.98615691199171 9.245415674688445 11.465289198447623
Hf 9.334214042280493 14.535989126550183 14.183480658980416
Hf 12.620464395928625 10.4127369797023 12.68347167344691
Hf 12.301794044639875 15.667370118321642 14.616914136234303
Hf 8.133501073807121 9.483422323061426 13.392875524288456
Hf 12.798951198148385 7.437380929405727 12.212233869850602
Hf 14.08087445056506 13.391128525206453 14.5787067772568
Hf 9.592031781448766 11.562076215234406 14.775693369644413
Hf 10.729829791007791 8.7361888594958 14.090767926323702
Hf 15.264179337646832 10.428618133480379 14.13603911662974
Hf 11.418314168918632 13.468258041964758 15.956751300960658
Hf 15.575133376737227 7.4788566238401355 13.458456748392106
Hf 12.563793166826397 10.960905076703463 15.522054389305904
Hf 13.449241538652881 8.349522394210137 14.828697880665768
