36
Energy = -306.71489617 eV
Hf 12.228682933415687 9.606432666203453 15.58086577770679
Hf 12.579005626861067 12.96108873693752 17.337617837467246
Hf 14.893114293228859 8.996837467743974 14.948441940179219
Hf 12.687881108696171 15.855235549077348 17.714442411766985
Hf 14.432828898553097 11.74035583033683 15.241114911600615
Hf 12.965191229953007 9.859420861151206 12.762908235153203
Hf 11.57281846368359 12.213523741552299 14.641369006569944
Hf 14.308553935161159 14.643298347017652 15.794882424643248
Hf 16.462123367369948 10.689257059402754 13.112522031829291
Hf 11.109668709763628 14.869799434197507 15.734359656908321
Hf 12.987708232325325 7.215509793995932 13.629051443476802
Hf 9.763182538339732 10.377383575031944 13.282790070302227
Hf 9.216827437959886 13.495591441296337 13.535545988821031
Hf 16.296026810484452 13.733800498356992 13.437310427989225
Hf 14.198527418858696 12.265659555261177 12.167985369693818
Hf 15.466386998541003 7.9887326126063885 12.464064373022742
Hf 12.643064327730874 16.961104607957832 14.79240267986695
Hf 13.351836702685926 7.698158944883297 10.745164547865024
Hf 15.18505836849937 16.382358359899452 13.558060313047005
Hf 10.854957512189424 8.112957723500855 11.65366065884191
Hf 12.902330607156008 14.559131877876382 13.172382482918742
Hf 10.492720787447379 16.03298352098683 12.635985753532724
Hf 10.96569203349099 12.34939360633039 11.54045209232453
Hf 12.991065550338257 17.125297564084995 11.783889103337206
Hf 7.937381374509191 11.984232454709556 11.638264349184102
Hf 15.12526344412298 10.005633740226331 10.299185429708883
Hf 15.06327875618123 15.014089601079442 10.968411182358823
Hf 16.528801471320914 12.535558719918107 10.752134838441647
Hf 12.231370350409412 10.124725758426033 9.698084565754947
Hf 10.395437790282324 17.107017384236677 10.052270183630787
Hf 12.030606933520481 14.86906298052587 10.268446910603824
Hf 9.364858822277093 10.179232219741147 10.070849125326884
Hf 13.826323093182243 12.610528779649801 9.376811366579402
Hf 8.986242564332178 14.547257272610144 10.587512586228803
Hf 10.543918784452366 12.604581897638063 8.733208622981042
Hf 7.802967359394055 12.386508641330874 8.912960063364036
