37
Energy = -318.19504037 eV
Hf 11.5502425244957 10.971690962078362 7.648099108514922
Hf 13.347973044776644 13.341004162196024 7.658805409618369
Hf 14.192216327299253 10.500936826639144 8.38396997453433
Hf 10.262143846760559 13.426486317101242 8.047323648531696
Hf 14.722971722790106 15.096930393416217 9.822950691812306
Hf 12.046890239028189 8.893660435961722 9.61747638838252
Hf 9.349891067136026 10.597753078716803 9.450434972181817
Hf 15.70015060580521 12.293035043466586 9.95944391671165
Hf 11.846677528948389 15.194196985424691 9.672942039740681
Hf 14.24412360340807 10.207274133756771 11.504962573091973
Hf 12.688516340993687 12.271361921172339 10.054220999504869
Hf 9.988916300455044 13.12474847507432 10.820896510740862
Hf 9.658510003676529 8.26468052429713 11.291944024621184
Hf 16.8824189833056 14.364989121176574 11.51123172149734
Hf 15.15164942840264 16.33897532463272 12.55069162069619
Hf 12.348127363062105 8.016275562117416 12.650178357993713
Hf 11.144440573626625 10.516030883237605 11.856093559154136
Hf 8.24851351333561 10.923685137347091 12.142935997101505
Hf 16.450336496561977 11.762268052145547 12.891353723119371
Hf 8.150593048005119 13.777189051116906 13.110467171760158
Hf 14.185645219791711 13.551663137325493 12.373384159475208
Hf 7.526310208569606 13.288540455242543 10.210932703509858
Hf 14.818901704896517 9.436654999859005 14.385450663574934
Hf 9.874678775678644 8.8724205623599 14.138301505001946
Hf 12.247481187962103 16.180625304572903 12.39771451934553
Hf 12.381400936599073 10.90696485082008 14.304714656261684
Hf 11.207240090054363 13.556195130486573 13.252404200233046
Hf 12.365631599725383 8.207060960651736 15.522668629791998
Hf 16.324961913238912 14.433396554502433 14.225932918222746
Hf 9.463077963999599 15.782870698174728 11.81722276908879
Hf 9.39997094757446 11.73149027618804 14.7791037618099
Hf 14.756810595816683 12.384527966999002 15.291521880384858
Hf 10.327765658964022 15.666327420760938 14.663619021596185
Hf 13.398939620337634 15.159219488423885 14.76377109920855
Hf 13.51239200364489 10.425992805338801 16.862293544757417
Hf 11.80110827537651 12.960543796917525 16.206142180454282
Hf 10.718121319011246 10.198418109192605 16.692190133158768
