30
Energy = -253.30217114 eV
Hf 11.673679243466506 15.387837194912224 9.092024898406386
Hf 12.442879881360486 15.459748335827147 12.03825424777673
Hf 11.494240117331527 12.900454754004206 10.792919863070892
Hf 9.885884873971856 10.948678449295505 8.704253655152396
Hf 11.682937142753195 11.555693355505932 14.141024885211271
Hf 9.598198036198525 13.757605516793923 8.30222304814278
Hf 10.312765486682828 14.111443026402945 13.497944794670794
Hf 8.3819699314442 9.320054501785018 11.066556060549999
Hf 12.845777597580017 14.224231303534966 14.799745976563411
Hf 13.829700154771896 9.280719396636915 15.200365977646252
Hf 12.87675280728128 7.5475462371524 10.600189084764509
Hf 11.122479494825246 9.8579201951971 11.233357117353613
Hf 9.759669150500663 9.09210150442439 13.729351859036932
Hf 12.453940672099305 12.69950341215354 8.037325245651786
Hf 14.302218921183442 11.54424098817852 9.980889409578081
Hf 16.0418393753368 10.470383820272511 13.788974241981997
Hf 13.695993988096347 9.977832163244935 12.348000780457907
Hf 12.575539353491457 9.747996668614105 8.607900892320167
Hf 10.349426669822513 8.100022784896415 9.147314696946161
Hf 9.020409295818226 11.661650478932858 12.743457689274617
Hf 14.34082469488701 12.001925493094996 15.421449317180125
Hf 7.977315698121198 12.528940486466814 10.18635204576916
Hf 9.609039609835659 15.36978865623402 11.094284078268167
Hf 12.368688736799044 7.554669740978915 13.421619761062521
Hf 14.143253896578567 12.971613109172292 12.617591816098983
Hf 14.027348790975083 14.253876234882462 9.932403499012425
Hf 7.27822561644594 15.125425989641945 9.607067859651902
Hf 10.144754713770043 7.118119269310071 11.747331088913567
Hf 7.356640242815322 14.241600090544877 12.32709514739883
Hf 15.219150383601818 7.868746966765265 13.173949992114094
