34
Energy = -293.27127333 eV
Hf 8.886780867997532 7.3179501755959455 11.5701868376457
Hf 11.49982923486548 6.84397217347977 11.000005575119735
Hf 10.85197744839824 8.166075349064846 13.63565941488659
Hf 9.82912602236936 8.123204461719535 8.778352154612179
Hf 8.398291012903856 9.719886058620716 13.255634389640562
Hf 7.534795904936757 9.355007384059954 10.385973723904014
Hf 7.690022114312788 12.006005654245817 11.452537836051928
Hf 10.478320693576846 10.831762143533979 15.659070540467418
Hf 10.43634373414163 9.590141619327314 10.854661254994838
Hf 13.561454248643376 8.288143238433904 12.361389233070298
Hf 13.0575909616796 9.60978033311535 14.851053223037331
Hf 11.60929056368286 10.743887717616522 7.998131891406354
Hf 8.527186067032176 12.478394283112733 14.149620296751003
Hf 11.12951027238158 11.270881108945087 13.252295077334184
Hf 13.066767311110848 8.501664235602512 9.222860968887955
Hf 8.762382609525124 11.227339048330723 8.556301149630062
Hf 10.467169498448976 12.555619615305005 10.58932108080461
Hf 8.400450511563742 14.111973383932746 9.535386888538381
Hf 13.116416700861201 10.87785963009919 10.998860009012471
Hf 10.583422115813002 13.41721087967859 7.838899788910987
Hf 13.36215060988654 12.486954844661817 15.095350682098598
Hf 10.90822033194102 14.040664648292905 14.715173427001146
Hf 15.058606902095942 10.866681478827891 13.232958534661343
Hf 15.56314021050228 9.576872922884377 10.64440123269779
Hf 9.187514983177302 14.584231337931717 12.324017261248153
Hf 14.433303604691572 10.979565149509716 8.43467501584553
Hf 12.752772729079913 13.577884565258595 12.20320043526005
Hf 11.166575777682596 15.368705463415147 9.956902689955674
Hf 13.548174497792411 15.343109544040985 14.282255319543065
Hf 15.479537829340094 13.69541927775499 13.316323220503126
Hf 15.4714104601862 12.642939811824109 10.623335171610767
Hf 11.514374596159252 16.205932889772864 12.701804775341614
Hf 13.228271297977043 13.532165784878813 8.94075994652318
Hf 14.162425160752562 15.583108459010317 11.300304333470775
