39
Energy = -337.48308836 eV
Hf 8.540401852615371 12.70576123897569 7.745445315745935
Hf 11.238265200694185 11.505685384443273 7.450498112093449
Hf 8.792266416707125 10.002335229775607 8.038425584159222
Hf 10.68787610715894 14.311144671572025 8.683732124742182
Hf 7.207862806840108 11.406852552790056 10.165372737059982
Hf 8.487560960049564 8.679155250687748 10.66267922037735
Hf 8.287248748905348 14.164777709453867 10.169684571502168
Hf 10.13502595952781 11.780999029321924 9.963685841194922
Hf 13.037191776724763 13.279360842709751 9.777474577327661
Hf 11.211282271418499 8.941609971834367 9.084379456136423
Hf 13.895592761348164 10.139844328389387 8.612069649172382
Hf 12.626310046274996 15.934122214223613 10.832323538394263
Hf 6.967627022986529 10.163596146778872 12.746632462519502
Hf 9.81921235900008 10.586682469047762 12.497760312599858
Hf 8.774756598802304 8.213052431228009 13.599616273730543
Hf 7.910473585097203 12.857540889723328 12.772471684709112
Hf 13.538429368451839 7.790084140879341 10.329211950434669
Hf 12.019868882120841 15.836730485854565 13.754872375428398
Hf 10.72959027989381 14.017006521074888 11.821706692005966
Hf 15.452917602863781 12.173355972948013 10.204034127520334
Hf 15.65703413583117 9.414568727381582 10.880211461360089
Hf 11.222287630722224 7.939027973924718 12.01548506511162
Hf 14.197962094060857 14.019601692143443 12.669438918010435
Hf 12.945556861117831 10.530721759738713 11.220402605502453
Hf 15.612019773188743 15.18699454937452 10.550031801725632
Hf 12.186824153562304 11.90061218155295 13.646832012150643
Hf 11.282393310926816 9.04926854183616 14.760519934138156
Hf 14.43078832803968 17.00631840219995 12.595363713602461
Hf 8.630949252305092 10.849865446117825 15.04209265153382
Hf 14.557048120983639 15.871448076510134 15.121658724763618
Hf 9.992212925280889 13.547557550564479 14.833507204439043
Hf 17.063681738202103 13.035734794669985 12.279664117853544
Hf 15.501016009153629 10.940727554676428 13.282728071601797
Hf 13.901577514865844 8.562844090828623 13.190212177449897
Hf 16.66588629837797 15.539143690633137 13.345211834034169
Hf 11.208428099673247 11.435014432436873 16.319722545060994
Hf 15.83677030331231 13.25314153377875 15.02461262182056
Hf 12.866029833172059 13.697805304524428 15.784594688223729
Hf 13.864376298148905 10.752309764675642 15.620105324971325
