34
Energy = -293.71827066 eV
Hf 12.575857064711794 9.542903990049343 7.465228364260558
Hf 10.755487441045501 11.602372763455246 8.19623941843252
Hf 14.192211082033673 11.102071449079418 9.443900669338007
Hf 13.03060098117939 13.339910874118951 7.782038959213036
Hf 11.815042538260817 7.007009233058701 8.592017284095443
Hf 14.14817798294431 8.217411689844841 9.447500514587903
Hf 9.712992651383802 8.936423899323906 8.071278420691788
Hf 7.981470095039415 12.122995600899662 8.815442827599078
Hf 14.845963200732633 14.011976792683674 9.893231673392252
Hf 10.202820874932375 14.280609724485183 8.578507493387841
Hf 11.599122656942118 9.569229582838634 10.291750209803567
Hf 12.272813336906633 13.05580563462098 10.585429461978515
Hf 14.17001060364082 9.38464605572562 12.072232521912735
Hf 12.678658020773087 15.764536762047262 9.312447090440687
Hf 12.413565956228123 7.048183837365239 11.496317162807259
Hf 9.718265172609044 7.209643698402522 10.362309637023383
Hf 9.745684812752897 12.450480112232983 11.107565014661338
Hf 13.450150597941702 15.277113922315978 12.0591581059377
Hf 8.47227261269097 9.78552771872089 10.651306635632483
Hf 10.244924792217772 9.589332467602253 15.537799361817301
Hf 12.718973809199122 8.424090188332299 14.489253099366504
Hf 14.509760607124122 12.48025515478705 12.45667667416953
Hf 14.675540477831897 10.596957764530906 14.627686362190513
Hf 6.945867962458933 12.203864110865453 11.496351000844946
Hf 10.46374601560493 15.517597316712028 11.283598062069787
Hf 11.925389112511548 11.041455718516554 13.494385820370537
Hf 7.806061135085344 14.621077564271618 10.298555169147757
Hf 11.259154745376557 14.005378401707357 13.449637300353649
Hf 8.392029782734632 14.097959067339687 13.095455570768223
Hf 8.77872632264922 11.155419618575072 13.615542310091191
Hf 13.353679923609008 13.08275364689648 15.145268409856218
Hf 10.21751668800245 8.482041406275064 12.888436838560956
Hf 12.619524538884917 10.629585782252475 16.468922678364663
Hf 10.489177378217255 12.435857608094421 15.708021482237772
