35
Energy = -301.0331535 eV
Hf 14.75260205956013 13.908849178171819 9.773042109027859
Hf 14.391053773775138 10.44643233600422 8.838928522004517
Hf 13.586101480719703 7.682412617959073 9.35910764916675
Hf 16.125857733202114 14.07035203715769 12.270820649667307
Hf 15.049913112216789 11.608974037194272 11.532864737129184
Hf 15.455753567309177 8.852386423784528 11.020255887043987
Hf 12.213685530045922 15.413093066707633 10.050859180258131
Hf 12.267385142461634 12.395284198913092 9.274783784848127
Hf 13.294567799799191 7.357827638009022 12.338752676403606
Hf 11.533309405524289 9.561602840982236 8.435681901654693
Hf 14.651324657145505 16.316731673667764 11.361109014464947
Hf 13.132066606666678 13.894216738667915 12.405879815305727
Hf 12.642221328172337 9.850697136255588 11.048917173260572
Hf 10.078545691273767 14.401660147317902 8.55010212235303
Hf 9.038341243210303 11.784691854270863 8.70210510673983
Hf 11.045402249742862 7.439074453268126 10.454046449985668
Hf 14.866053263096084 15.718929283855887 14.077442271614975
Hf 12.21191456086999 16.614859890921988 12.882290145564
Hf 14.863775942250049 9.683606775150274 13.818772404655594
Hf 14.569112171769785 12.780645667079757 14.68764360489858
Hf 12.630966205995138 15.073046865955131 15.293936882813343
Hf 10.474025825049264 8.418117834287456 13.169476851192547
Hf 7.620629086729038 14.091169378365962 9.826534645634597
Hf 7.77062362827767 13.969860009588931 12.662143734065666
Hf 9.610687198312293 9.869994636113201 10.685624736668089
Hf 10.065972985437524 12.930702443841392 11.163503745041973
Hf 9.56165961084076 15.818824945216654 11.19690993409563
Hf 12.156798989885147 10.999607136519337 13.653867991071305
Hf 10.28515638992266 14.563406901930762 13.818898420243874
Hf 7.405823991409808 11.629322002167738 11.142777625618145
Hf 12.676977407648488 8.280471476116306 15.002183974566487
Hf 13.321818857314735 10.648547068758404 16.25870784281813
Hf 11.244310852795211 12.637522113561172 15.82424967142114
Hf 10.533884440035218 9.887811469568433 15.723359723109178
Hf 9.192547782567337 11.443661305912471 13.616515050508
