33
Energy = -283.78609524 eV
Hf 10.802690679988192 15.964472446056233 12.718064885020288
Hf 10.029170158803083 15.048310657813925 10.12237254980083
Hf 8.171940843281874 14.595317032544243 12.560388500916758
Hf 9.956979948712538 14.584317932833464 14.97498290681153
Hf 9.353072344124262 13.542052591525689 7.752506948821933
Hf 12.892186443579968 14.79075982970645 11.172501554036813
Hf 7.699581878808388 13.381425644967518 9.905510714717593
Hf 12.763929269734964 14.344146054433237 14.276405441809422
Hf 12.244633653963234 13.566126172403754 8.535082287647022
Hf 8.380387752651751 12.369671329695082 14.541137485383896
Hf 10.497597641331678 13.059117779637843 12.604459213094184
Hf 15.123401441063315 13.967621737162217 12.757660507307724
Hf 7.839620873196726 11.460034333282456 11.80834753600446
Hf 8.21469222421664 10.897182552670687 8.409864083291273
Hf 10.355685291877348 11.773458492987853 9.910040700716099
Hf 10.838366959386091 11.409381994642034 7.064485690147711
Hf 11.259782232415462 12.008641063969902 15.29771746258308
Hf 14.754562528123678 12.64020587985179 10.134601887742031
Hf 9.738457210791925 10.095538455605642 13.52664654438953
Hf 13.276071586478542 11.734966381119794 12.517534634745315
Hf 16.231407537166263 11.532240870340068 12.494841366253796
Hf 8.966197399875856 8.781313233372675 10.921137716500146
Hf 14.600872248130827 11.962654486900234 14.91988676614844
Hf 13.201315422637347 10.690200980349891 8.5074558737501
Hf 10.594389336735688 8.951560624687707 8.453460713802132
Hf 11.866726955374292 9.436083551166904 11.234718382034266
Hf 12.402029024976859 9.341376561887643 14.394748652447591
Hf 15.033454811762374 9.60280194922391 10.709154874377337
Hf 10.627633219556797 7.448308925519488 13.029152015630014
Hf 14.981304887335078 9.368904923798002 13.570082548664763
Hf 13.295785422877623 7.919803497795096 9.183394608537249
Hf 11.040173999260611 6.825052891280868 10.37922951793459
Hf 13.461138390293478 7.316386309272294 12.08501771053207
