38
Energy = -324.72515635 eV
Hf 16.39094683215951 16.15921378624442 13.670171373259208
Hf 13.461281597691974 17.03112507498283 14.541790386099777
Hf 10.665149822206486 17.652454289858294 15.1951252187793
Hf 17.45934554649272 14.482725165854447 15.779350069056958
Hf 11.3476843383935 17.342380557683292 12.444958995813947
Hf 14.17382873628421 16.48598634799442 11.749667413852427
Hf 14.527583039094626 14.42647302828241 15.642018619816175
Hf 16.8261395754528 15.315474868962863 10.982429629518503
Hf 8.632363201759752 17.55875817358983 13.404701877439509
Hf 15.82356129941543 12.626833837053479 17.576139792518
Hf 11.781899044620529 15.292815535760038 16.36760995897051
Hf 17.98028862098223 13.826739646851507 13.017157773688265
Hf 14.957721374472618 13.646972416814355 12.632840260826784
Hf 14.485515909887603 14.401373266590477 9.688033172988462
Hf 11.795845855902689 15.032080369809666 10.424501747759788
Hf 12.038151254351739 14.627900238010195 13.507508929914023
Hf 9.332646018615964 15.146283140870267 14.751372987656042
Hf 16.365942025865674 12.046395451187736 14.788581365275597
Hf 9.35322708959531 15.24938835779621 11.830277041765683
Hf 12.991842251428638 12.615368918191857 17.535828914795175
Hf 13.352486263375619 11.838371816250705 14.526120883503564
Hf 15.078547571929294 10.007521296861528 16.517629999060077
Hf 12.538923048978148 12.935558526972128 8.429449757167514
Hf 10.733056215147853 12.569676006033427 15.704126714658978
Hf 16.776888699902322 12.392650910727294 10.623634254353988
Hf 14.078064877631135 10.594826119577295 18.96164154828313
Hf 12.413246702584638 12.117032573374567 11.441322076963536
Hf 15.287192445115526 10.491389720598145 12.513379212834353
Hf 9.637447089885129 12.633845957484745 12.896376931571206
Hf 15.667071480142722 12.73390782882423 7.927803942560247
Hf 9.968291629009203 12.697962491079432 9.912188448974499
Hf 12.185974860563892 9.983870813255251 16.69983610863432
Hf 13.552375367061707 8.920920605562067 14.411353429412355
Hf 14.543255901271458 10.85470937833578 9.746868056116679
Hf 12.72282394693239 9.196560092337362 11.628033453372936
Hf 10.926217703940836 10.053769631173765 13.9116878543411
Hf 11.732241921248502 10.406330015962384 9.13102609764442
Hf 10.013983739316146 10.26288001747096 11.285580078573483
