33
Energy = -280.85964572 eV
Hf 17.446600542580104 12.804879857397687 12.530177029059866
Hf 16.644278212316305 13.098362325555593 15.236534750792918
Hf 16.611614685024257 15.360110068292606 13.426392428307825
Hf 16.01800284246548 11.56020806205826 10.46552850426792
Hf 14.787685962264803 15.136482350495758 15.538998588636744
Hf 15.8154961002724 10.716021229183065 13.89793139181142
Hf 14.97975093678576 9.155415683652382 11.5522689213397
Hf 15.681179175091865 14.538000644714113 10.804966551815001
Hf 13.774755003018806 10.001930949890193 8.932926110964175
Hf 14.58541084137632 13.280585335673406 13.187346340906602
Hf 13.805479976842712 12.236171535791346 15.818540683749342
Hf 13.863025671559464 16.09876707452101 12.864537372265621
Hf 13.07030662973075 11.505982219494598 11.100693803432536
Hf 12.067724970356325 14.955832716024156 15.156719317735776
Hf 12.309953795549369 8.463680797024207 11.229134229743977
Hf 14.263106902893917 12.921289590074664 8.741781819885546
Hf 10.913871067199336 12.622117124532009 16.302132824630707
Hf 12.960696722224863 10.02226321711008 13.624457714685352
Hf 10.573504189858893 8.44282157732419 13.93594845751299
Hf 11.471463181941076 12.29492707092663 8.739210067327644
Hf 11.662371047186038 9.97446173062942 16.097089387379633
Hf 12.704495689674442 14.534156375084182 10.580931067830404
Hf 10.895274450696538 9.54770635281032 9.144600477722664
Hf 10.836820937959557 15.665370289449825 12.696015949994846
Hf 11.572479108657824 12.797856154446928 13.308901733845813
Hf 10.198282132106863 10.44167311783787 11.789388343700745
Hf 9.13543134165902 13.899429744556778 14.310758521106147
Hf 9.373606756337438 10.932193902119579 14.707527502901023
Hf 9.866237502585683 13.741131748825648 10.867720332901348
Hf 8.627821724331392 11.335952185096902 9.580215232162537
Hf 7.762487728312334 15.194260021519392 12.086252691014948
Hf 7.739630099877519 12.302592280248804 12.196806904360827
Hf 7.236579794406858 13.759849399837272 9.83012082828081
