34
Energy = -290.20733232 eV
Hf 16.370121764267843 10.14139369007221 11.014436597629578
Hf 16.672876615940442 9.233654466611604 13.690969316084555
Hf 15.724307936658745 11.97503749959194 9.006690135417486
Hf 13.721669983640894 14.288047639736819 12.622329362647873
Hf 15.847876699034805 12.056445962039803 13.37361452084265
Hf 14.946374829656499 7.9237713855673 11.625101675325954
Hf 14.21815050715044 9.532453650251528 9.096815138501308
Hf 14.086433562741918 14.40884037390002 9.833721990401122
Hf 15.520731854528124 10.598078331262727 15.7875263065819
Hf 12.269350927943815 9.058746822140353 11.413877605757145
Hf 13.734116367069836 11.62172147554465 11.036833276434727
Hf 13.854364172262267 9.895412432012511 13.66663486377885
Hf 13.026886189360514 12.237100713005306 8.12768733749408
Hf 11.295821199089934 14.987338490969183 13.649779514369225
Hf 11.93047530888782 16.337211629277302 10.785160811126179
Hf 11.691377178527587 11.985408999580143 13.366776467556909
Hf 13.60952051863723 12.645061483821957 15.282574408224523
Hf 11.269920402264942 13.61120870740045 10.748552249124446
Hf 11.991477135169841 14.952154977672478 8.12667893456872
Hf 11.711796446078964 10.408338788707855 15.711922444469252
Hf 10.580347123939061 12.985086129212608 15.772410037676186
Hf 9.635906061481398 10.908179813935035 11.865528454542668
Hf 11.02527414406639 10.371408765825588 9.276493748579773
Hf 9.620971909336593 8.206484932502732 10.74158874387738
Hf 8.725977502139708 13.564560982247214 13.614152156067469
Hf 10.384540032156854 8.59574999462368 13.596479762833159
Hf 8.819512401958974 10.799587296481757 14.75558255951951
Hf 9.257809624705423 15.696352381926847 11.830440590884463
Hf 9.542026546747707 15.389361514799136 9.14093527167302
Hf 8.067620797633886 13.317209181195528 10.420935989812055
Hf 9.899832851289156 12.726398883798073 8.181009604485306
Hf 6.918583549239975 11.628702136258571 12.442274612123557
Hf 7.821266907702446 10.339963528025367 9.901063437903233
Hf 7.692062915213524 8.987311494878954 12.647054889635191
