35
Energy = -299.01315523 eV
Hf 16.695879413569244 12.321854386552358 14.89793890087824
Hf 15.35783490356446 13.351062144984622 12.586084551180484
Hf 15.519344030666392 10.393672580715284 13.0360635446368
Hf 17.81335376816537 11.891925803638005 12.478389946956565
Hf 14.04491317569969 14.17695514557553 9.998635872330937
Hf 13.962379526634468 8.378890459174611 10.959427203532538
Hf 15.832974284759432 11.633166424901212 10.348402592780626
Hf 14.09334679973024 14.157113164185793 15.211096065465654
Hf 14.243130252852762 10.044542489159966 8.692467944923127
Hf 12.025485436387822 15.053704618415223 8.029954719880608
Hf 13.94466540069401 11.232399019701303 15.404944784625606
Hf 13.18983726406461 15.642956720455976 12.67755241720729
Hf 12.2598991901497 12.179416674864079 8.41822496094562
Hf 13.018016554925278 8.817187433610806 13.630988961564265
Hf 12.400605146637792 12.821853468831693 13.442117967105277
Hf 13.09755619932515 11.140376982230093 11.09293092718924
Hf 11.64329388517103 9.189381616914943 9.324255484296673
Hf 11.374799751619285 15.233699221301004 14.784100743365428
Hf 11.09619019638268 7.394961020996082 11.623151722480484
Hf 12.248552232241844 16.59091339751614 10.312986706078275
Hf 11.192402823826384 13.75623008725663 10.616726558125976
Hf 11.244958428038682 10.38167587342114 15.35457917081715
Hf 11.549558825858082 12.977888065246406 16.18586069349837
Hf 10.404988922444382 7.9575512560085775 14.356674316354034
Hf 10.391149221222113 10.151996486833262 12.279188122299672
Hf 9.567856655385867 13.687250135723009 8.088695243627116
Hf 10.15836973274555 15.863430053978547 12.284704405381383
Hf 9.432820133264658 11.373555280824037 9.54945132886689
Hf 8.86650738931698 8.68636768197123 10.130310184385662
Hf 9.53363650720074 12.896478934359866 13.39742106912002
Hf 9.69331596345302 16.10694801054465 9.412459151203615
Hf 8.263094158743169 8.131045591376346 12.656157693011503
Hf 8.528372010552118 10.272460536290613 14.508047346682819
Hf 8.312899412475428 13.888951932068155 10.713800393372864
Hf 7.647525075473675 10.854444710606357 11.775636306700706
