30
Energy = -256.22262083 eV
Hf 9.466015180137012 11.143445491681158 9.096035277603036
Hf 10.50313323598954 13.82710852244854 8.832708709436378
Hf 13.406304941956781 14.140272812601014 8.645111290963714
Hf 12.440829078895453 11.50206455601738 8.706315788935479
Hf 7.824618450188766 13.134909108571513 9.936633160826686
Hf 11.118183637799913 9.974695153070389 10.899193226867517
Hf 15.129339819304237 12.198483453086068 9.914799271936657
Hf 16.39380986907021 10.214670437832105 11.478486616094349
Hf 11.99613471459811 15.96036769995478 10.17248762210399
Hf 12.66861047520545 13.210530221726804 11.241794432442223
Hf 9.981252596163511 12.681873836705707 11.89602771092401
Hf 8.067123211356314 10.679448634109047 11.658664308736494
Hf 14.664044929407021 15.071839115621751 11.16860211475333
Hf 13.99182599966258 9.247637694284936 10.106969266190678
Hf 10.791572164294402 9.952283288492007 13.693824613815602
Hf 12.354943572957561 7.936687670042108 12.304407714169892
Hf 15.08047856852864 8.09179690376202 12.609774480609666
Hf 9.243266479300136 15.383186137916814 11.198630072274112
Hf 11.743648218238969 15.608360371764608 12.909213924054143
Hf 7.285759227235235 13.391415929866792 12.58959982982646
Hf 14.021157799901356 14.325138566122039 13.932003334814555
Hf 15.959701278325122 12.692504690061433 12.833047141685501
Hf 8.833413296369187 11.889171860511375 14.502601311668117
Hf 13.676242386263866 10.699838144886167 12.638174630855678
Hf 11.478743702732373 10.810146341477054 16.23552342887121
Hf 13.386355299376843 8.91240084295339 14.924437831959116
Hf 9.227086928870815 14.730180053593156 14.060341305644364
Hf 11.559543371398322 13.07549747886846 14.559908185432953
Hf 14.127653153098578 11.852455863273567 15.391928765118355
Hf 16.02838252352025 10.110763228844345 14.311928741532697
