39
Energy = -332.611818 eV
Hf 15.36302029176588 16.149748341806074 13.50643157274794
Hf 17.044931079844883 13.826736951906325 13.786005704151325
Hf 17.330420539494664 12.398031819688889 11.105306565965755
Hf 16.93148250899306 10.997746376818698 8.517582888608022
Hf 13.954867349917208 16.143469059586494 10.798970561836374
Hf 14.78425214412031 12.414704745337787 9.499391084509828
Hf 12.750848946797786 14.692883728704608 8.552465441299317
Hf 14.393482324273101 13.75064238555967 14.844242338150409
Hf 15.604028771509503 11.264224706384137 13.399667928609006
Hf 12.528735450486446 15.873536841499924 13.191028029407768
Hf 14.855314449948413 13.69381689464158 12.030481104948743
Hf 15.866836234543314 9.952082960399395 10.842664744106571
Hf 11.064449495201067 16.196296986390713 10.475993412679005
Hf 14.16037326145924 9.720257207578676 8.698223401869653
Hf 13.538923452085779 9.906747013260182 15.212202983586373
Hf 12.10153173561818 13.715367975697742 11.127164162077474
Hf 11.952995999993732 11.950683619697303 8.188249439902801
Hf 12.91889750585407 10.61419614403072 11.364891338888341
Hf 14.436225954585737 8.562952745793778 12.972813451520468
Hf 12.957609368406404 12.12773646885073 16.834285476828043
Hf 9.867560540019063 14.067539973816318 8.567110459352772
Hf 11.588221225195074 8.635569857349736 13.47543566656035
Hf 11.642761452807369 14.53937504233438 16.006363986914945
Hf 12.083408988242596 12.272998769752174 13.961949264266373
Hf 10.046360481317443 14.357481857306327 13.375851891861855
Hf 12.81894179621112 7.804082684719481 10.769941228655918
Hf 8.535510748875154 14.974597318023616 10.97349321929727
Hf 11.438151569599285 9.306974120731441 8.853363588969138
Hf 9.877146359741667 12.106050403045545 10.848889869300056
Hf 10.591343529877367 12.570318495143873 18.051283009142438
Hf 10.782957287373138 10.210729576024196 16.04711424826567
Hf 9.428060581977618 12.736932174687785 15.619569951613991
Hf 7.365155389919824 12.871588157791946 9.665613846645831
Hf 8.681614946323407 8.3974719371882 13.736440513022842
Hf 7.470808043005895 12.947043194924817 12.570680089627647
Hf 9.05590190799698 10.799281197474896 8.558878892603657
Hf 9.505655543744167 10.934102256959363 13.461433529824886
Hf 9.852577304517029 8.87260064942997 11.037243817019789
Hf 7.525210574122412 10.443464865198198 11.215496404897907
