35
Energy = -299.0674927 eV
Hf 15.666337748439378 12.580424759934084 12.50869267141285
Hf 13.9858622800969 14.636497513027804 13.423096393093093
Hf 14.854718591496932 12.617710921073712 15.417467149119119
Hf 15.517617999878784 10.140541488328402 13.531116859057846
Hf 13.58418347796369 13.562520788420123 10.87403488436054
Hf 14.199276734768485 10.471477925095744 10.829748766034742
Hf 12.494663142927761 16.325934889594578 10.876938621245232
Hf 13.489026959467235 15.009122238393292 8.531459460696938
Hf 12.051074776320291 14.11070410053303 15.313457785861171
Hf 12.861744312703548 11.799875043912687 13.593672647238186
Hf 14.019756668566346 9.882850284376492 15.793209974297719
Hf 13.743424664800198 11.947210875708066 8.007104416317794
Hf 13.462067947815523 8.067201969615983 13.75756852152867
Hf 11.057141651402313 14.188415007973937 12.600256050071904
Hf 11.456874828397227 16.691786338157716 8.080879212484064
Hf 12.18793931082517 11.73114748241759 16.585402206003046
Hf 10.597260034553532 14.678451697708734 9.799266318613457
Hf 11.451627408543054 13.72293758408918 7.1410434172555926
Hf 11.50386550702527 9.609301274151202 12.017002054387978
Hf 11.577018096503634 11.88740563196631 9.633027132501859
Hf 13.185320109173222 7.538815814178419 11.04033228453546
Hf 11.351198514647038 9.209470930887907 15.307909662195213
Hf 12.556368977902752 9.200705893421198 8.727167181715863
Hf 9.942385733617707 12.160114036890606 14.636362309455269
Hf 11.082972326601293 10.963045356973652 6.974896209839894
Hf 8.02433277157821 13.832652642124911 11.09709582710991
Hf 9.597918441718194 11.615825798082557 11.605845625246761
Hf 8.903217001846327 12.65111225535615 8.392170962117413
Hf 10.686791407367199 7.237203820920017 12.957224732815158
Hf 10.512284839327275 7.558170492706608 10.055716953383197
Hf 8.97346119529462 9.47511313198762 14.050146114530278
Hf 9.27824768893119 9.765786099305352 8.838051373040882
Hf 7.270494517930269 11.473166813519457 12.943890360616068
Hf 7.11169604302787 11.242723152497588 10.14220972900678
Hf 8.238110818467382 8.888624908739029 11.484575579487254
