38
Energy = -324.99030872 eV
Hf 11.273674474091788 7.922835541950821 7.72128235721521
Hf 13.19688789662477 9.805168192612644 7.712887356091561
Hf 10.555219285536188 10.526957747714714 6.984444894287083
Hf 12.490588223151804 12.559464702307578 8.023809651339235
Hf 15.10834493028454 11.561193671327338 8.984872571667601
Hf 8.967682050259047 8.488212997129784 9.061399557799005
Hf 11.27718374693435 7.499088533892049 10.481558302946
Hf 9.646299515534942 12.887316328990632 8.661043252008149
Hf 17.42590884310807 12.848890934616264 9.713738279989302
Hf 14.775458193631081 14.335006308972707 9.283501607232683
Hf 13.527760669382156 9.483498955501318 10.906959969428906
Hf 11.01845346414203 10.39730186317329 9.78645292199394
Hf 8.154878757514563 11.115984485766464 10.418805975337927
Hf 11.483048216961022 14.878140488488915 9.763328269006143
Hf 8.663825534748172 14.99787804057012 10.436186825681661
Hf 15.878736335919788 13.760616194912533 11.794685748633245
Hf 15.975235203923372 10.868179993075783 11.659270396135605
Hf 9.292853791083632 8.733602284517039 11.997254952711776
Hf 11.801737573401082 7.638029846751952 13.357890305117737
Hf 10.160353954252992 12.876878139091003 11.663576284134539
Hf 14.338156795654443 8.97373278098953 13.585723195341554
Hf 13.267213712507758 12.515968204087418 11.120140413497873
Hf 10.665144336064053 15.77826035767801 12.42279883108436
Hf 8.374861178018385 11.181572076009711 13.470477599440278
Hf 13.546686490188106 15.59385208670194 11.915171319361834
Hf 11.646388162367588 10.507541350711845 13.141458729579437
Hf 7.282599691070564 13.376453741121077 12.080739859967744
Hf 14.356368280838534 11.80196980057569 13.885387236446233
Hf 9.195289854680468 14.015145387732382 14.213230971017955
Hf 9.744051068039388 8.888096392697468 14.839488672931928
Hf 14.994841488514592 14.918516988121395 14.280045052886061
Hf 12.18571797462324 13.691209158973253 14.063838235231731
Hf 12.388359480191612 9.37010620442662 15.680516579739468
Hf 10.269269316946819 11.577746811054574 15.753233112518757
Hf 12.89531676721132 12.109424814763202 16.505904762378734
Hf 12.626437811107516 16.42338130396087 14.660650680252976
Hf 11.037436171473232 14.327833393066074 16.636800273455734
Hf 13.727538339406895 14.775141088997069 16.643705014010912
