38
Energy = -328.04378576 eV
Hf 11.23123566268304 13.948934344637575 15.51916915344014
Hf 14.255082846490575 13.139574604024508 15.898945336548543
Hf 11.01037196486256 16.017554825028142 12.89578310560422
Hf 12.146381393887081 11.640728544984453 17.164278690909523
Hf 13.183689390777005 14.334755122542063 13.59407628844136
Hf 8.624557178621714 16.14397037396929 11.450280924100998
Hf 10.950503078192297 16.910719423553118 10.077648556869987
Hf 8.622333372854632 14.246214278911856 13.765915428914477
Hf 9.652601832070776 11.573905705133077 15.499909964287559
Hf 15.768706317558012 14.445171446051468 12.479718686455822
Hf 15.394266562549243 11.649582508424363 13.493563648805537
Hf 13.423669204528922 15.834188612894081 11.176893030725115
Hf 14.412169954493043 10.319346927364943 16.061652462977925
Hf 10.527508085703452 12.425545479170076 12.818425670958614
Hf 12.524832923461155 11.466441190061794 14.24575911604201
Hf 11.79194214714086 9.109920884091501 15.730272260290217
Hf 10.720129121489315 14.090345606016015 10.529656668875772
Hf 8.905849636188698 15.382814445399594 8.772345060817164
Hf 13.610913170360156 12.721082604937804 11.116857338964826
Hf 15.452942507091844 14.545586126050942 9.580502677293936
Hf 13.900988608330888 8.814921578062686 13.614611508595598
Hf 7.784819181155633 13.499872951925637 10.78563626925002
Hf 9.98878903290446 9.50972729575986 13.516240665787985
Hf 16.56241279509314 12.324033164574397 10.850703321041681
Hf 7.850705139165232 11.518657398536327 13.063385948361166
Hf 12.756886635835818 14.252241157508049 8.597824623103648
Hf 9.177022549947312 12.628759111875162 8.335571005757052
Hf 14.775720673696775 11.89513839104906 8.604988287295267
Hf 11.975054925647855 9.495541232287623 11.229215862601423
Hf 15.042729593550112 9.939013210545731 10.860300240123777
Hf 9.313171101937868 10.903675360812036 10.570993327601293
Hf 11.603562471008411 7.084134340532646 12.83801606010447
Hf 11.88188243373468 11.467790916275105 8.890767099824012
Hf 9.361287310280154 7.966015975681515 11.132203236605589
Hf 13.986610527687606 7.280401666870795 11.19204023683649
Hf 13.358845898019405 8.793964895231673 8.75103380370831
Hf 10.425257187916484 9.004599928146433 8.686211582086983
Hf 11.615127125860107 6.756739248503619 9.921837850337633
