34
Energy = -293.0833405 eV
Hf 15.473757798123634 13.057016697835312 12.556417097611583
Hf 15.880037470539797 10.344873923619554 12.07295342665397
Hf 14.76633288614978 11.181753944025342 14.473959119200503
Hf 14.937996576725727 12.12112587379663 9.868608760622774
Hf 13.454612306057475 14.38685808518015 11.179323492430154
Hf 14.23989326278412 9.079311772795853 10.198849408039335
Hf 13.725788492036449 8.718992451659183 13.129474059239115
Hf 12.945366007109003 13.408398895970508 14.165087806450016
Hf 12.921399987831116 13.993884632726013 8.215648096535192
Hf 13.06640354043754 11.373956433813841 12.027755144874211
Hf 12.201119103055712 6.931188591884212 10.949180653918901
Hf 11.054270152476903 12.642806049069417 9.909666026897115
Hf 10.855222073204587 14.68423542365937 12.556771141045674
Hf 12.0792752886738 10.690691413140403 14.97825730270342
Hf 13.079311762107247 10.807913317939274 8.112764569394198
Hf 11.238913038703458 15.676740953719124 9.966445249319973
Hf 12.495404335182625 8.020234709026951 8.223729128352629
Hf 11.057758655443411 12.236234987891232 6.871203561987387
Hf 10.848562258885607 8.376214118259602 13.509280549707771
Hf 10.000606809983633 12.872300918636748 15.188745601847671
Hf 10.010043667630258 7.197149400774395 8.92015691896539
Hf 9.982657944276406 14.482634925531448 7.879821105951812
Hf 9.966949619188101 11.52060795303789 12.683352552700942
Hf 8.257771051111432 14.0087628330462 13.118684413114295
Hf 11.034042241394431 9.493146898099324 10.455892593452239
Hf 10.152270576206265 9.691622148162319 7.58470077531475
Hf 9.320207127132308 10.015421817419814 15.234996883647158
Hf 9.365282517447637 7.153472296666547 11.515238383926302
Hf 8.635380331655298 14.359654244666636 10.381204796465282
Hf 8.51611477610616 12.032025865760307 8.456098595211728
Hf 8.013504590549694 9.237791203915927 12.792387300886645
Hf 7.453504108421656 11.689263921758451 14.219086286997412
Hf 8.14115120470706 9.262063129907904 9.775460639822011
Hf 7.332806324479343 11.843638290898074 11.303302810971637
