35
Energy = -302.152179 eV
Hf 9.317328704979989 15.10803908463637 13.337044291839018
Hf 12.079036737303486 14.94501821934349 12.690497249856412
Hf 9.729405759136235 14.9621339775187 10.544238019606297
Hf 7.035744842678381 13.865083474947633 11.92031048506455
Hf 8.040471783838454 13.163624607681246 14.683601063025113
Hf 12.38722278863959 15.350911112519961 9.729525880957574
Hf 11.008007691815557 12.89846418088865 14.63931395342255
Hf 14.495368905059783 14.34582923613775 11.227184530675343
Hf 8.124673827255597 13.130681546842585 9.155652321644343
Hf 13.796062761882876 12.580580926744155 13.513749060416446
Hf 9.224937641840839 12.333581971814668 12.212075546564435
Hf 10.797979070835277 13.386778411388978 8.163024662927157
Hf 6.728996376380004 11.20239135394493 13.255434549882118
Hf 9.315030071172686 10.55518917355672 14.76823537837367
Hf 12.113734189818187 12.689680635926745 10.896534049623941
Hf 13.789892500560892 13.100566690996452 8.58634576587244
Hf 7.03826032926606 10.949316928621908 10.32960168672148
Hf 15.26360452670638 11.655220563150808 11.007931200717058
Hf 8.296282856160264 9.051432272290254 12.333017640529784
Hf 14.656686560364514 9.88224680003349 13.092095705053298
Hf 11.570651851716105 10.35629714067875 12.716566418262307
Hf 12.457817623446298 9.951183094898646 15.124746830693871
Hf 8.302109960398125 8.435451622717851 9.512991599481836
Hf 8.867222946779684 10.694740427006751 7.580411693806554
Hf 15.115662018876433 10.596117947381552 8.39063756886645
Hf 12.188695042035494 10.791311306471151 7.476802844509806
Hf 12.937598882335305 9.674423278846966 10.229301467269156
Hf 10.040366966084779 10.750720750656921 9.898258665884905
Hf 10.437339477326814 7.993208792694226 14.005068175267994
Hf 13.073531030557259 7.714846246037987 12.75595063359562
Hf 15.339640438807065 8.487948422174092 10.455075593062928
Hf 10.923472423098993 8.31627873559521 8.279097393800456
Hf 10.50220682111521 7.474286476219931 11.166546393916246
Hf 13.797797707653935 8.314002395439964 7.86003777777132
Hf 12.948011775507648 6.75330708440562 9.968454498791138
