32
Energy = -272.63910046 eV
Hf 13.949062603248077 9.505060095829904 14.710623878540076
Hf 15.278298151907897 12.145370520662611 15.059288683367912
Hf 13.103772750519223 11.65716316264602 16.65811542463955
Hf 15.38058393694711 11.056197450825119 12.554792032608535
Hf 11.065983695919494 9.937079426328818 15.644723503180115
Hf 11.344929089104182 8.550012887475221 13.306821226046978
Hf 13.04359325388894 10.038028428558167 11.45688733042356
Hf 10.594568169610788 12.755837163189804 15.760635375643865
Hf 15.180390828497488 13.911634269099263 12.73032193269309
Hf 12.61100476079428 11.755122339145942 13.8663887178715
Hf 8.599642982284953 9.035304812293175 13.967033973861508
Hf 13.127114267388187 14.270226960347694 15.167251604451042
Hf 9.393135711935406 8.447574723499757 11.243594089248147
Hf 14.950391397537327 12.448283197900844 10.029294051634665
Hf 9.815264160500151 11.377777992728191 13.157354220055414
Hf 11.867114700373108 8.279396281026685 9.673144405441725
Hf 10.490660649170154 11.242763489105261 10.113818697499505
Hf 12.482145176369732 13.155272086656973 11.36511912096881
Hf 7.773024285095385 10.698529112592855 11.20134795069298
Hf 10.575840093836405 14.472887555809606 13.444632122000462
Hf 9.822113147949652 6.865148471789688 8.629924081047651
Hf 12.70835437192705 13.532338604027217 8.361812869471684
Hf 13.050662185114819 10.658570654802707 8.524712409203028
Hf 14.169310753200378 15.192726722928708 10.264896128797183
Hf 12.92215736146648 15.77490588058385 12.712346421864813
Hf 8.701564124779505 9.446667863628228 8.494804657436543
Hf 8.800043286783671 13.585077091229495 11.16685760708123
Hf 10.393339036231302 11.575613196610789 7.167096830148716
Hf 11.153504175852516 8.771159633657499 7.041209331395602
Hf 11.207799403799998 15.558281484091225 10.516465997727762
Hf 8.023965215846177 12.198765647806232 8.748580079942947
Hf 9.947416626911066 14.01105190390365 8.601450769104009
