30
Energy = -256.31138587 eV
Hf 14.265011798764705 12.59983803608296 7.732522669021466
Hf 12.356918291122174 14.509637959790059 8.533572034120317
Hf 14.423667143455742 13.675540856605414 10.402881374630088
Hf 11.386317543913279 12.16402120743647 7.024019903010847
Hf 14.986843190206459 10.755497803578864 9.91672292223056
Hf 11.639458320843643 14.195728840930892 11.339080063046204
Hf 13.396473837422228 9.988221127068407 7.654964845526149
Hf 12.31013612277232 11.778858353588944 9.710846338214315
Hf 9.573510296107234 13.699727470453297 9.097648639408119
Hf 13.20424671721823 14.283662042189762 13.793820368952863
Hf 8.57574466736602 11.536252968429404 7.665520962735241
Hf 13.754589553138786 11.762501957579397 12.402183266282579
Hf 7.026795167891593 11.838286981825727 10.210620329734457
Hf 10.73696032824118 15.419756005451982 13.677276945000145
Hf 10.586125637959253 9.409910057566195 8.01008469461307
Hf 12.735482150229048 8.720619322441676 10.166783561865497
Hf 7.790917363084607 9.268654240624874 8.862706847625892
Hf 8.802420267109708 13.603753570933952 11.902828641713818
Hf 13.979953253799966 8.870085111564439 12.941650507151781
Hf 9.5632146558383 10.957832451063922 10.5061074430316
Hf 12.907731963008036 10.83693454493414 14.957685552980655
Hf 11.324138957665605 9.933072253737993 12.673656572981102
Hf 10.803739482439322 12.635844256255291 13.845129949459444
Hf 9.755775139601946 7.854126254017562 10.50581455304253
Hf 11.83309736978968 7.059821993530529 12.352950554671391
Hf 7.300632233425536 9.147346123156503 11.496497509981626
Hf 11.885496916199687 8.14176213889864 14.884303143864814
Hf 8.187824349259314 11.103603499723079 13.261132481959697
Hf 10.085495447571377 10.25433019953148 15.358542470444293
Hf 9.238072528823203 8.138651639956384 13.480568481425802
