38
Energy = -328.73486818 eV
Hf 13.558054272370647 12.421906477516313 7.275958586147628
Hf 15.089549649374751 14.473052047234383 8.815757471025433
Hf 11.11664331875861 11.061971903544517 8.127100931062824
Hf 13.008776660636022 15.398960538322084 7.261584649186977
Hf 15.195156629885652 11.7591553497955 9.707182612136096
Hf 10.756419907133784 13.682540246627655 7.086145827595321
Hf 10.56333510543828 8.807572221990737 9.792947345308743
Hf 13.426470298147546 9.419776448813126 8.643448754185894
Hf 8.47429934524654 10.834171743866717 9.098972293974342
Hf 12.330633296225301 13.671978074070752 9.54801774915633
Hf 15.277975485935617 11.378565969766651 12.724556888662589
Hf 14.417482407658676 14.140230898432959 11.670853485659277
Hf 10.675166080759803 15.953403108542048 8.817133953318859
Hf 15.133645703182616 9.157736936376374 10.88924287385141
Hf 13.301435712175794 16.366489202054325 10.036268187847032
Hf 12.771439568537666 10.913508151037469 10.954233531917009
Hf 12.805124031133252 7.579162810738084 11.260960488117817
Hf 7.922469011745162 9.099133500019974 11.119085483370476
Hf 9.154455171097498 13.549158907281447 9.665364328765065
Hf 9.881897649026829 11.390025789145115 11.673291888025227
Hf 14.467655280472037 8.567794630712589 13.63758262560599
Hf 9.862766763456953 7.460967577065623 12.417590179288815
Hf 11.693985482385692 9.572273796337663 13.366599700636712
Hf 7.203186671733542 11.909866543943188 11.590139288572065
Hf 14.796482858353032 13.692628607860165 14.520010449219367
Hf 12.093304817121123 12.887246049619563 13.328733207074507
Hf 11.061798332590252 15.277182382652141 11.682815834779465
Hf 8.388488330438934 9.715267210089136 13.78923595088292
Hf 8.530781389323057 14.297022663226398 12.375498399814305
Hf 12.220193931869218 6.748708978137499 13.957356616206697
Hf 13.686987399592866 11.14882859809545 15.179517970848778
Hf 12.926557570540865 15.634877912883779 13.859213169192602
Hf 8.483277451156635 12.431791676131272 14.336853416612886
Hf 12.637373679295857 8.680479180726277 15.99940887062662
Hf 10.06384375710611 8.045038767145938 15.293549527332459
Hf 10.803604516455138 11.115045020103922 15.679778979062439
Hf 10.237822233886243 14.798882054139776 14.583515951439775
Hf 12.474835103090511 13.728973608307088 16.07194853415296
