34
Energy = -287.99871301 eV
Hf 14.610235600161413 15.834429230002899 11.865437620408201
Hf 13.01079315605831 14.601909464707807 13.984336761807098
Hf 16.956148287686382 14.277820646684365 10.980852069871261
Hf 12.83384404065142 16.200332808384065 9.600563208012323
Hf 10.9489342140568 13.083619555974597 15.636661464681701
Hf 15.42723481717835 9.805552522806456 12.512077096276144
Hf 10.024258034643388 14.4994124947752 13.128635153406126
Hf 13.212484218325855 11.574367127852447 14.038231428369304
Hf 12.329262387014344 13.722897824443677 11.222720300909813
Hf 14.73290872225789 14.088349994357001 9.335404728893177
Hf 11.833299333690135 16.504046898906306 12.217684796877236
Hf 11.460094495901387 10.258659178632689 15.87465509137945
Hf 9.208539113135236 11.59679679084353 17.32238935049328
Hf 15.229200362955021 13.227117926481238 12.791299739351297
Hf 10.464128256453574 11.574702591848673 13.029220947490598
Hf 15.788635483440537 11.612415916482776 10.335032510585316
Hf 8.224387653486163 12.715817967068658 14.892579923492779
Hf 13.821178300600659 8.745517065835024 14.478456959804104
Hf 13.469164674716456 7.66151985180446 11.74036188224872
Hf 10.115617017067771 15.534349525660495 10.033809398085571
Hf 14.849692738379032 8.986746882913735 9.748036785430525
Hf 11.211306238282566 8.793755655171639 13.380952794845648
Hf 7.619486635311223 10.987526839231514 12.6228576935349
Hf 12.849753298738783 10.579540275343579 11.197997937213918
Hf 8.726494712198907 9.926012528056393 15.035217635416936
Hf 9.152478829504394 12.916124887804754 10.856355733289659
Hf 11.878273360671196 14.078911264444221 8.072326851825954
Hf 10.623325840886007 7.3124858317393215 11.00645423365169
Hf 9.022226240891566 13.610932815556605 8.06627724896836
Hf 13.669036625329179 11.405592605129998 8.401706273784706
Hf 8.484371581339804 8.306551774624486 12.523404454667526
Hf 10.915255261371259 11.543894269372082 8.783052268257219
Hf 9.474430682269123 9.87134041085923 10.451891665365554
Hf 12.074844364413025 8.806589680817803 9.046104950489275
