35
Energy = -297.8481134 eV
Hf 10.781607441629712 10.816377293842974 8.733705855291817
Hf 7.356652899771221 10.701866406675421 12.154395693361069
Hf 10.704798802657294 11.159917317481625 13.017714227575462
Hf 12.517368833750881 7.82642482945363 12.221107520304916
Hf 9.703240978477782 6.444170852802275 11.213179892230542
Hf 7.04452492117276 8.169884820667251 10.30012315751823
Hf 10.278049570183084 7.498481010824028 13.867605692506544
Hf 11.491615328399936 12.34546971624214 6.378896068423219
Hf 9.222794978961424 13.213572002200168 8.13554146382135
Hf 12.22462929201382 13.623959613010017 8.703813668062113
Hf 13.626145923932086 10.80259553896286 8.354765430386491
Hf 11.745218201156385 9.168199557329295 6.597646374553402
Hf 8.999053909582097 10.55980521656929 6.522657623981494
Hf 7.627635001394732 10.662541362051174 9.084390600221646
Hf 9.658609560497572 12.462940786713862 10.944752564666347
Hf 12.688514026142919 10.653319323865796 11.134981195867883
Hf 12.296204537367103 8.082562364124135 9.230616582193093
Hf 9.366689092191757 8.237865740781347 8.416748561817663
Hf 9.660471655121903 9.13091992869441 11.235631284185033
Hf 13.333177185693192 12.236892606729205 13.883740159642844
Hf 12.588731491416416 13.684351771681548 11.508301753343105
Hf 14.842734775723747 8.98089162342102 10.40626631717788
Hf 15.076968683805264 11.899465694487183 11.34554830371569
Hf 7.765707113772693 14.130778413645071 11.574313452819938
Hf 10.37274899037606 15.17719016429712 10.24321777594964
Hf 8.309292227935975 12.61855974963116 14.061784197678238
Hf 8.856782852071214 9.827132511112504 14.791995175557151
Hf 10.752075187713775 12.112013341064705 15.523031688547716
Hf 12.1496709314308 9.548886970476724 14.78143082830655
Hf 10.377041653439825 14.241494192863557 13.267854229445348
Hf 7.72985942883336 7.76045316775548 12.986693142564695
Hf 14.547001258578117 9.731523227503025 13.193606713902987
Hf 10.59522338457159 15.258839012801026 7.122780117459886
Hf 6.931055009995892 8.546534176431889 7.308931773088573
Hf 14.457388747702469 8.363403566341734 7.43151478636748
