39
Energy = -336.39035335 eV
Hf 12.939031871649805 8.732085643807386 15.167019785738548
Hf 11.858625992869388 8.29133854034759 12.32028001800259
Hf 14.60012497991115 8.425092654027916 13.131137379560549
Hf 9.415262039589452 10.197122978071166 12.15602705064152
Hf 11.47053727601749 10.421980147549966 10.068401605666589
Hf 14.215548052650824 9.67390895325021 10.684943816701685
Hf 16.494620152030862 10.277013826702882 12.533937916691455
Hf 15.048095006500926 10.66731518170227 15.11796858884196
Hf 9.095963310183619 12.334388203227356 10.16399499786622
Hf 14.988277113935371 12.74577461461187 12.115061600343942
Hf 10.31862934946352 9.520274778286147 14.848608846013711
Hf 7.536329574368056 12.568158431007806 12.549774231529888
Hf 10.252039109734358 12.55015848526237 13.943539377755915
Hf 13.884759533411424 12.347174209237759 9.309574662140946
Hf 12.686602546545247 10.836059389467389 13.066254488095508
Hf 16.782876702141582 11.583011074483142 9.968551461775958
Hf 7.8794508765090425 10.950510376425902 14.606332814925056
Hf 18.353138895202616 12.363872853604873 12.240219422980452
Hf 11.253047842148078 12.78485383012364 8.335523746534475
Hf 8.21160005686545 13.878545859717832 15.120084273010914
Hf 11.671529583326215 13.343478808371966 11.204941108639694
Hf 12.308983910316652 11.229480706467243 16.34685859152493
Hf 18.70446000894028 13.778159730469271 9.919661656910826
Hf 9.50722975663014 11.684913328004724 16.693333111927938
Hf 16.65801282530971 13.090118392180909 14.518521576252239
Hf 15.960799809394922 14.321300039108742 9.522174771298165
Hf 12.89240000615965 14.201393681176375 13.867443251149282
Hf 9.900620812089374 14.994884550880622 9.399552596803561
Hf 12.733470888545407 15.122998024727849 9.05985767135485
Hf 8.998637541053624 14.891267528032808 12.135003747205511
Hf 11.089808338266707 14.02192185347619 16.532030308035168
Hf 17.12454438054541 14.87548002945612 12.177682434634749
Hf 11.416888897256591 16.37476910919762 11.493841170304137
Hf 10.557235004927358 15.988554518846106 14.409445473306041
Hf 14.261167674120529 13.4263780599866 16.33916375788434
Hf 14.227177560559129 15.521006654248364 11.471028624369833
Hf 13.170145739252684 17.206192277530086 13.609818427678462
Hf 15.366129051196213 15.62685630159962 14.63861293590939
Hf 12.98797093751638 16.06660321061266 16.09305025570173
