34
Energy = -286.67625532 eV
Hf 16.23298207833158 15.586538569451571 13.520373319132005
Hf 15.896828658650138 13.402878215529313 15.016556504211264
Hf 16.16893750388081 12.92512978486712 12.19803956063603
Hf 15.610655023665833 10.650432093650318 14.064738242880113
Hf 15.218075055054744 10.203030679740682 11.217714184136243
Hf 13.474596414270671 14.766699392178946 14.397267601513496
Hf 14.767975068868365 7.9690174243057275 12.844620259653327
Hf 14.357486545484287 7.746030949222168 10.018717104068426
Hf 13.34289091104209 12.120046043483427 15.722762415840759
Hf 14.264337503809205 14.996587431436563 11.590880655821245
Hf 12.98362368084691 9.565079190008634 14.415689722101417
Hf 13.344200724522594 12.18502402568163 12.808641916051627
Hf 14.068422975633885 12.701025264965782 9.86996121354019
Hf 12.362029090168331 9.151470608045786 11.618682975146955
Hf 11.802409861940548 13.888427577609315 17.357291179738255
Hf 13.146112985227383 9.979028697750953 8.724601056381118
Hf 10.54827571152382 11.432265497606714 16.641345684831325
Hf 9.134553198790577 13.888578320283402 16.861745407983516
Hf 11.642017523540542 7.653655386725175 9.290023043219533
Hf 9.570730118028882 9.344476466926801 10.883246267514247
Hf 10.458293469227499 10.78769625415797 13.417847252452319
Hf 10.311117739578082 10.097679772120566 8.148982619322561
Hf 11.080525607019952 11.951487342714831 10.317962785464037
Hf 12.056723941250159 12.484250784908191 7.520108385386082
Hf 12.261633868155357 14.815565916843028 9.152969171885289
Hf 11.453220962640243 14.59579335402082 11.881036945010809
Hf 10.902148396501612 13.422382512499617 14.678490274539188
Hf 7.60347341942748 10.61392795906467 12.586890834954742
Hf 8.246074238468992 11.900023092249112 15.062869052177065
Hf 10.545530840085059 14.93254766572785 6.910666295047166
Hf 8.15253278470727 11.653879757814611 9.821388041330705
Hf 9.226855069682816 12.64157590448795 7.325876940697417
Hf 8.825974833804855 13.119844421509873 12.287751440025618
Hf 9.45172054159949 14.378301528811704 9.605346024050496
