35
Energy = -298.88133554 eV
Hf 15.01036179103233 9.016360138566132 10.074455804113144
Hf 16.101064932230354 11.763586298229116 10.451720693453149
Hf 11.56561579497082 11.96814354347669 7.10850560829022
Hf 14.316352757786811 13.539831672104354 8.876331108731275
Hf 13.319741995483502 10.793133539277745 8.939877678389399
Hf 12.877202553969322 15.48237834976351 10.691659806490021
Hf 15.667816859186393 9.905162295405308 12.809231155915839
Hf 14.371324145347668 7.417932413367434 12.165629836740749
Hf 15.69698382871629 14.623241588582948 11.126387391949278
Hf 9.034257057968567 12.698838687539242 8.945480504728309
Hf 12.356774246074995 7.724955819226365 9.967478824105998
Hf 10.349873707905545 10.133899534397552 9.047532194021922
Hf 13.711134979225267 12.675948953683518 11.652144789167396
Hf 11.235767870194023 16.592598794771405 12.995678686772074
Hf 11.581959797953425 13.178079772845743 9.598851889971119
Hf 6.7708000344488575 13.776428283762815 10.012602751328563
Hf 7.5261099111472705 10.803714342572484 10.374017851479792
Hf 10.037330410724625 11.486497054293155 11.71781937060022
Hf 9.368368052667968 15.093079543757147 10.867575336479735
Hf 12.590662066192527 9.789299612451938 11.86073357273321
Hf 11.242325928660463 13.855689028775007 12.675545845679029
Hf 11.720354072568712 7.154967912938668 12.844265603963457
Hf 15.046000265111175 11.068571754011458 15.31696447400626
Hf 16.09519008453981 12.916602198939367 13.378479268504798
Hf 13.497903064031155 8.715154437513723 14.56665585164519
Hf 12.381683815982415 11.697697691568187 14.482677876872186
Hf 11.483585573758775 14.77606168536563 15.28099779320611
Hf 7.878146834071522 10.291420008151935 13.210575528047217
Hf 7.577625315342612 13.01866276705543 12.518387739667007
Hf 9.745231930407517 8.610926707195315 11.434404345033858
Hf 13.914386872948285 15.31251109140487 13.378693006629872
Hf 9.386516296308555 12.368526459238028 14.778038590812212
Hf 8.948366637733917 15.143254997609834 13.843579184280294
Hf 10.511334947706528 9.570336026201737 14.079423700134411
Hf 14.213855186524988 13.641401758330572 15.571578245832004
