31
Energy = -265.8425976 eV
Hf 11.680959038314224 14.90728730028115 8.792992708101336
Hf 12.936460547069386 14.551456022462746 11.473781796368344
Hf 10.029864099029476 15.315654994592036 11.189350900710263
Hf 8.977131916450888 13.953076467749312 8.704227000270361
Hf 13.618772908889252 12.697774271205255 8.967914765464174
Hf 11.199474556672396 12.348164757854624 7.423525154942957
Hf 11.332203268854881 15.233519618604454 13.784269973936238
Hf 8.689836248042122 11.06612069468734 9.08534002375367
Hf 8.686809135350455 14.508847375396488 13.785199645359077
Hf 10.962196832907953 12.64472319445726 10.25646722679721
Hf 13.33636314792346 9.789111411332073 7.188954715093583
Hf 13.896844410703407 11.773240225197958 11.930369951978278
Hf 7.9379765361028864 13.028462448591231 11.351913042256372
Hf 10.72205961439016 12.467405910960931 12.994487983257304
Hf 10.29421123057073 9.63111698259522 7.209009922430851
Hf 13.199235816933774 13.343771960031805 14.33722528271687
Hf 11.660043538343134 7.442858961321672 8.10558455837839
Hf 9.35838273973396 8.25032442582303 9.726488970357156
Hf 11.101630537230252 9.695601733469625 12.072611920964212
Hf 15.03521872441925 10.332427963013464 9.647424774480257
Hf 12.097487171243026 9.99574014136511 9.522281791937054
Hf 8.04208889855925 11.877334303472987 14.095248475438048
Hf 10.473785745584903 12.942790855039783 15.591806968253131
Hf 8.165624378746847 10.131058738116078 11.868536323961374
Hf 12.7023879955085 10.520340347336674 14.413188627454545
Hf 14.075631020851697 7.800080205878936 9.322443229060752
Hf 13.990324789237661 8.84451741235511 12.071895811584337
Hf 9.312389548654677 7.553679078260454 12.646571032136452
Hf 11.777950951705817 6.968840367558368 11.047004015675116
Hf 9.886431512105345 9.766334541022896 14.6568283356723
Hf 11.869435154496298 7.733770274590963 13.896492962401059
