36
Energy = -306.03479798 eV
Hf 17.416295921226045 11.784629203884627 9.059407979529905
Hf 15.909823056553645 10.44749367432649 11.078557184048487
Hf 14.484889213691472 8.775863167627026 13.282931270020454
Hf 13.391757621341188 7.098482931702204 15.258868295651679
Hf 14.559064576797864 11.225361595890101 8.552478106017626
Hf 13.129798642564191 9.411730188808555 10.674393650919441
Hf 11.69352794676494 7.839673195138249 12.923423480667834
Hf 11.582188997754729 11.006357486181917 8.596921270193047
Hf 10.096046941659695 9.279759291600808 10.865342289525163
Hf 8.797769754857727 10.879527463256723 8.962559444075485
Hf 16.562944933615356 13.315037330985776 11.441096981035145
Hf 13.757300591974179 9.993558920261183 15.882966898274622
Hf 15.237327629148169 11.663872551637215 13.743187491026957
Hf 15.637566307006203 13.83826460512481 8.81387202065993
Hf 12.824164368056088 13.681211045699627 8.589204073711876
Hf 11.234834411868093 8.692615447367135 15.610008247517236
Hf 13.75218690867987 12.468257791617203 11.10285836187154
Hf 12.28726096280028 10.71044413842591 13.397435358740383
Hf 15.118026411838194 14.69239681324911 13.663901809478663
Hf 10.717439029099046 12.12821658440447 11.170403339301359
Hf 14.406964120710443 15.332269445579366 10.88029638305878
Hf 9.5105588893169 9.82544778418514 13.711025669919007
Hf 13.63638876967166 12.968721399623169 15.96482365355097
Hf 9.85248324561805 13.51122053797041 8.682754390460799
Hf 12.328340047201326 13.767129715551977 13.45445803507998
Hf 11.092320804020334 11.475593237333907 15.968664187694626
Hf 7.918343317998314 11.265168498582812 11.650860647525121
Hf 11.381929908535392 15.154335724517779 10.812333472312437
Hf 7.007982941637583 12.878235714617059 9.317740113320077
Hf 9.347016714492602 12.857207240243428 13.894829531458987
Hf 13.517811752138922 15.780402210199963 15.728250303507787
Hf 12.901390954543004 16.644725174808244 13.099856411773722
Hf 8.580960769722303 14.133665229599211 11.284892190068378
Hf 11.020436257736973 14.45677175909096 16.006523270044983
Hf 10.111873809580446 15.720663845743491 13.478233938903985
Hf 11.303726968013196 17.352621733725467 15.486965111617831
