35
Energy = -297.10596966 eV
Hf 13.43197415237415 13.401002853903828 17.40696642603781
Hf 15.363203129285083 12.00655540512316 15.493740635865008
Hf 12.316654665118467 10.865393793685609 16.801424720569326
Hf 14.814196602866787 14.824663167375107 15.620879229768883
Hf 10.739599723699985 13.308102824808792 17.026372889561152
Hf 16.90677020286993 9.688329881641586 14.59655989304597
Hf 14.213927515826898 9.290018271921403 14.863407472054075
Hf 9.517942026578995 11.2463340745694 15.847138816629469
Hf 11.1573196604077 9.819885620936953 14.162881974401948
Hf 11.946354240305025 15.50708540630479 15.74543480962799
Hf 15.274153517303708 14.083884781304493 13.059810874741888
Hf 12.686393155122484 12.773387873086357 14.59414180906278
Hf 13.701623805556238 16.52623579347402 13.7158413892905
Hf 15.538664287534878 8.509244615778654 12.30651877605202
Hf 12.806140366289293 7.726406685117646 13.024575494615675
Hf 9.684566043736167 13.69912622357012 14.311131543456044
Hf 16.166849603835924 11.345461645560539 12.521197497303236
Hf 12.090991458294065 18.081170909116594 11.926537081733862
Hf 14.277513183696794 16.420667038725586 11.015349059723444
Hf 14.135223412100599 13.094828531684277 10.559817818942017
Hf 12.078811455894067 14.56907490553235 12.10383927407593
Hf 10.144538767220215 16.402665444749676 13.177427910586147
Hf 13.280533436172268 10.580193006170221 12.161591842961348
Hf 13.365201887016486 8.186925041170763 10.326389479978772
Hf 8.464669978152694 11.027157170436144 13.293159075487054
Hf 9.112235604009863 14.254788895354734 11.516406648121666
Hf 10.767878193407121 11.965108431704298 12.108696613875475
Hf 10.78409210065959 9.100715993366585 11.392455095138747
Hf 12.713888279212558 17.983985956869763 9.24364446325772
Hf 15.149479056042976 10.387309620132404 9.845648342132307
Hf 10.57410821620616 16.377528869489133 10.248404385270467
Hf 12.981811482900271 15.157698586049298 8.810930164224244
Hf 11.203047803545244 13.237176422050709 9.449291450569874
Hf 12.253342756030527 10.393606463797019 9.196235558162158
Hf 13.695529429853874 12.36797194244918 7.947116369081787
