31
Energy = -265.29950699 eV
Hf 8.317489941822869 13.097793633610246 7.567954847778043
Hf 7.796120022600011 11.64966523540269 9.924332911028962
Hf 9.689917045004838 10.726096835941599 7.934091089846811
Hf 7.929413478097189 14.530638648625091 10.138644400574112
Hf 11.311861585225621 13.077124378574354 6.93136562512953
Hf 9.702842601217602 15.418680291808155 8.000828580689296
Hf 10.150352129495015 10.17400597000169 10.807192465488882
Hf 9.060610166932737 12.560782022163302 12.264580774875217
Hf 10.501653433457102 13.181392661913607 9.632360898723938
Hf 9.096996064136576 9.732102926820547 13.726551553658812
Hf 12.529790414385188 8.151375168755136 10.520067875804099
Hf 10.069267604360986 7.552845710690028 11.948380762390563
Hf 12.317385824290568 10.778362862960867 8.65090331315628
Hf 10.493011023320411 16.017972846744307 10.636874877920384
Hf 12.393422437579808 15.349429215654913 8.597534987894354
Hf 12.575269222517637 6.606149969226 12.9396168218749
Hf 10.603714983285231 7.352535689889673 14.725016594515603
Hf 12.351386962407194 12.277963621876621 11.765226095405106
Hf 10.911771757083601 9.691421737634306 16.05552111599755
Hf 10.722432832623122 12.122567979609316 14.611769930208494
Hf 13.878331864314369 13.075795880810807 9.166980943325003
Hf 10.87133404988675 14.613988467146143 13.07526443258671
Hf 12.001745797818051 9.486631920097102 13.230431757187546
Hf 13.208533466269902 15.08189413546481 11.396324203886136
Hf 14.416413366332531 10.406865821059858 10.623965322549708
Hf 14.715000028605747 8.241368967541993 12.52516790988141
Hf 13.466159213253786 8.242366265038102 15.270884550702636
Hf 13.179472622088591 11.158665426119928 15.74831763342963
Hf 15.185894392226931 12.988308411757037 11.750385625990907
Hf 13.440933056098148 13.563190505615793 14.044201614112602
Hf 14.853060565313918 10.85558926021109 13.5939392254944
