32
Energy = -275.22712639 eV
Hf 15.108617945002358 13.168696087336134 10.376502157059086
Hf 13.891993105188446 9.514585232493445 14.11455064131165
Hf 15.429052329093182 10.334377030120121 11.012480782355112
Hf 13.929435825749831 12.292460194379052 12.824567548882921
Hf 12.78054623617509 14.850469579634314 10.991683914775317
Hf 13.239150749764159 13.71383370309544 8.199265968240695
Hf 15.138814957411245 11.439670981454615 8.251906647234414
Hf 11.77374982691248 7.538383594837101 13.762603395319045
Hf 12.481872154002126 11.885307822150272 15.261031575024209
Hf 12.919606540432582 11.181827099623062 10.143581002943005
Hf 12.376450317297605 10.936035648936258 7.274006117744973
Hf 14.067116612039346 8.94104878529927 8.748812878950652
Hf 11.160447454688448 8.845995122245869 9.139055751687465
Hf 13.116840795743887 8.357588000180531 11.386356097548184
Hf 11.396649193630989 9.38296788352189 15.749989103903564
Hf 11.490267837752837 10.398182121237951 13.011930117415542
Hf 10.558110791117533 13.213708093092677 7.23079122282258
Hf 10.774342399303714 12.857237252667778 10.173562595326759
Hf 9.937422170319184 7.332012357382871 11.478936899505731
Hf 10.874296389063849 15.435004420498972 8.776794776878175
Hf 11.17548166661455 13.469782496907218 13.167847612092853
Hf 9.405324652085016 10.216968803188083 11.269550327248874
Hf 8.273946628011851 8.48164889944425 9.296046023649115
Hf 9.228882996894331 10.951705084575856 8.249567947834603
Hf 9.533284393349772 11.52448157088182 14.873080557850615
Hf 9.85821176865826 15.312616099436315 11.32933409328946
Hf 9.067504675916854 8.609633853537796 14.106999425521554
Hf 8.380874637977145 13.789827912208931 9.154235044001942
Hf 8.3879248736386 13.023757174985228 12.166226792673585
Hf 7.174265066339994 8.396025274088299 11.822548072172735
Hf 6.9236314792936025 11.000960155562451 10.336530645485018
Hf 7.245300812269923 10.705046873029 13.263714536319759
