34
Energy = -287.6223475 eV
Hf 14.79719553924625 7.46212203130252 14.594011450448534
Hf 14.676887567567686 10.235382459090502 14.218575913630506
Hf 12.965794289477634 8.879606703695734 16.08622100790647
Hf 14.611257269239927 8.559403609588633 11.896162866659807
Hf 12.294549390488442 7.982128152972074 13.452154275344858
Hf 14.588034843337047 11.374136192485333 11.359597494129387
Hf 13.802877361112525 13.499664734425318 13.592872929483432
Hf 12.628621965413746 11.812663875714287 15.73493999255908
Hf 14.371557374879504 9.773578160340147 8.964854187568871
Hf 11.944306301943291 11.052483219980843 12.997559089162698
Hf 13.122039656532722 14.821119077989497 15.919243450672802
Hf 10.313396552839889 9.60697875659925 14.985946822324136
Hf 12.096509672128308 9.06845280614222 10.592359034258289
Hf 15.209395331119323 12.507515840556923 8.702986825342485
Hf 15.492826915149143 14.071869291623738 10.959781249513437
Hf 9.363422437702086 9.44213914698908 12.20496198130876
Hf 12.494904509309057 13.70789467516173 11.202468504952058
Hf 9.615546934251348 8.675408130048899 9.172801543797435
Hf 10.01276337152361 11.414328428397505 10.443659645593245
Hf 11.017125996269485 13.790611631698626 14.508140320739589
Hf 11.836006496364964 15.991308044783077 13.251843993001476
Hf 13.966324911625456 16.27933856187041 11.388264384786961
Hf 8.986953058708268 11.847911713970674 13.879415097230638
Hf 7.360855915664809 9.647805838823158 14.093182013491779
Hf 13.53329479914302 14.973931632855212 8.839165121272286
Hf 7.445181244050099 10.300921933129072 9.481378915182766
Hf 12.449463997461478 11.965501449925556 8.659741958804174
Hf 11.82389650098297 9.402928875665602 7.675671019645304
Hf 9.539518789786579 14.085734847300671 11.858209218095482
Hf 11.323028545044316 16.24385535112717 10.446626632362996
Hf 7.230895248581404 11.844440760259937 11.870566038997527
Hf 9.48950254844682 11.264104329544523 7.63547236140577
Hf 10.48953610662916 14.017149222642436 8.928542050363786
Hf 7.881559659611326 13.096921492475866 9.422809041351313
