30
Energy = -254.92181275 eV
Hf 14.42358066319493 13.814519122470372 8.996321760299551
Hf 16.20385113882201 11.611970584714149 9.713906193048118
Hf 11.342816690108178 16.137620147527546 9.966014780390426
Hf 16.401109536339877 13.983901988471654 11.254299015498157
Hf 11.54308965699577 13.085746940165478 9.745620193318953
Hf 8.893846121160678 14.52287393746987 10.057148659826247
Hf 13.494052975574201 11.031962937512821 9.030123024933115
Hf 16.492820278711736 11.251769687725984 12.649310895727117
Hf 9.041652621690764 12.093932051960236 11.526970515013534
Hf 11.686375087804917 17.150890935369244 12.726340789679046
Hf 11.615596262231323 10.696662176256604 11.487728219768309
Hf 14.064891813524685 12.523980664542938 11.46002244740999
Hf 14.900736883933561 9.363158745839293 11.111916777306337
Hf 13.763836771271004 15.496716887396135 11.444519518552807
Hf 10.816227093842855 14.476955761196415 12.223431195690997
Hf 9.11627469250981 16.775443958403553 11.621225272363546
Hf 13.659067914050944 10.489322702768055 13.47047171578958
Hf 10.735068852228698 9.724261517157862 14.054235476528838
Hf 8.075250834994236 14.371599876716722 12.921279860597906
Hf 13.458943582888901 15.549712801159204 14.330130233555328
Hf 12.326158846071584 12.800124765484023 13.841110864652718
Hf 12.727752624405975 7.95147006970924 12.848695148592657
Hf 15.44954911633924 13.472732229670829 14.183501447242605
Hf 9.467897858864928 12.28646170906371 14.369717331424093
Hf 15.34445743445297 8.601018667248336 14.013351130068141
Hf 12.927558535379207 8.733412733588843 15.628816777117983
Hf 14.738705502687193 11.04880162459719 16.004039824917317
Hf 11.647465557201473 11.40384977661516 16.30692673017282
Hf 10.84862744445599 14.632983657239963 15.363740975986568
Hf 13.492479883661595 13.615883617358596 16.348825499926154
