37
Energy = -318.58789879 eV
Hf 16.593169804288944 10.378395044700909 13.470932583828068
Hf 14.592033078609708 8.46882775033518 12.243675716834645
Hf 15.108623583854909 8.681896765964309 15.099996337729957
Hf 15.375153502389772 11.488440454237244 11.219174070592558
Hf 15.560533136127702 11.379747974241512 15.925975147495144
Hf 15.103895849579175 12.152634301783246 8.099150547769234
Hf 15.561099869231075 13.124376528064687 13.59522094386661
Hf 13.569256509268271 10.784020274616868 13.716063893627002
Hf 13.25190188693573 10.16308099105597 10.147779946034568
Hf 12.490402737074726 8.098226431044314 14.380463406723337
Hf 15.35655578769045 14.133606471667436 10.386938953671446
Hf 12.647148987400358 10.694082528106549 7.285286945729324
Hf 11.575004205674357 8.054148898993912 11.563060205201381
Hf 13.137218722521533 10.148345853100489 16.602197756185102
Hf 14.232920512328334 15.09497836783736 7.994950617401318
Hf 12.898434167381053 13.322801106267294 6.389489378956653
Hf 13.017519486421731 13.366365601880007 12.201672352351686
Hf 13.176661167369023 13.038692133590919 15.46536728746605
Hf 13.04422450758275 15.75993104413971 10.510229750090158
Hf 12.716460839594454 12.960549392181914 9.26563885879817
Hf 10.474517212799965 10.229879412250646 9.321811063941022
Hf 10.4071418709473 12.522285964786548 7.41290464903652
Hf 11.278613435284264 15.190006595818849 8.130065551781684
Hf 10.60553865380081 13.303867388794313 13.688901476121904
Hf 10.701067387256334 10.97868997518832 15.384086457150731
Hf 8.743978276043991 8.828274077995133 11.339001133225178
Hf 9.79302362179091 8.602117535534989 13.883461896120169
Hf 10.734689897675464 10.827726441897111 12.074879638510996
Hf 12.200727628935692 15.606890492181224 14.243435741398676
Hf 10.687660383237496 14.034002379748125 16.41500778297288
Hf 8.060055682744057 11.391010275470817 10.628150817070528
Hf 10.433651221913415 15.638069703924556 11.83832414289847
Hf 10.019727584082917 13.347566900713028 10.242108102247304
Hf 8.270446401099898 13.074021403652653 15.350368932802537
Hf 8.060380035788425 10.886398414303667 13.444381177308788
Hf 9.245390236430678 15.629101976665865 14.46449629281739
Hf 8.015679815624091 13.737864386931374 12.480724044666232
