32
Energy = -275.16635274 eV
Hf 7.348267167013342 12.880592592331883 13.309007423557244
Hf 10.122953346888742 13.130449989775485 14.298927164965235
Hf 8.871160223036627 14.818093352759098 12.217751389216875
Hf 7.379361752547581 13.126582937459746 10.305605483623458
Hf 6.808934161760048 10.63954306467776 11.821879558217786
Hf 8.660508050085147 10.479213540782801 14.135171297934194
Hf 9.528125084303634 11.915733035545676 11.700669986838237
Hf 11.668925484447689 14.938817659068835 12.49310623354404
Hf 13.299693501888061 12.833327376664663 13.94371530412406
Hf 11.547491383235421 10.314001262399008 14.877072091652696
Hf 10.109740346879962 14.470267527774672 9.725817712899282
Hf 8.61545876761752 8.560335745180849 11.560917397820146
Hf 8.024079795776458 10.241241456975564 9.174248758872453
Hf 9.968592591634721 7.993833652327858 13.948642295560164
Hf 12.785219744900067 15.177274234748044 9.755084260303175
Hf 14.43922685682996 14.601559174423915 11.8653712773008
Hf 9.108607284941828 12.536180700508744 7.9485382084204925
Hf 11.694300017669452 9.58154500771007 12.044352604469937
Hf 12.64716782531532 7.711449966830097 14.009287403241869
Hf 14.762600442193992 13.005410154265014 9.327996397868239
Hf 15.465101964084809 12.117085480472428 12.061288035578634
Hf 14.231456795781861 10.033171864769253 13.49283407297927
Hf 10.9873395182116 10.743654893054423 9.472979025972192
Hf 9.853232070561788 7.976233786812016 9.107469452941011
Hf 11.965824166967371 13.090637298295173 7.848255433833839
Hf 14.024440440172668 7.729199128847281 11.638117137530164
Hf 12.620324766403389 12.503486005534613 11.11390573476863
Hf 11.195194935857627 6.843387048595668 11.51792508800409
Hf 10.668438928111105 10.096424444087267 7.133591851938372
Hf 14.673198861252427 10.070904067966763 10.313879345205251
Hf 12.656099639812485 8.255992088872572 9.088425023365776
Hf 13.518157513672962 10.741020554476737 7.84350259949217
