34
Energy = -291.37529631 eV
Hf 16.342564198957852 12.124023100241038 13.57036416966089
Hf 15.975327527377676 13.765348980556835 11.262675788922715
Hf 15.268815775553271 9.515320591683212 13.880328138955605
Hf 14.647462225397021 11.917088824290913 15.85057108536109
Hf 14.644598724689544 15.544651149970253 9.396911702417697
Hf 14.23009331361477 6.985616784972971 14.443298232492484
Hf 15.33959398210543 10.903926816511124 10.994366041967785
Hf 14.286434583338421 12.772045876031509 8.890802698859734
Hf 13.62331089403681 8.7562893052117 11.71080083292984
Hf 14.038937741902187 8.891910001036697 16.43526259858716
Hf 12.718353748157304 9.52412180725125 9.062906591155125
Hf 14.839721425749973 14.465278218034271 14.103892244962038
Hf 14.953909274945467 16.39304201005571 12.069268471464408
Hf 12.319853096922646 13.92413800939541 15.479942305957378
Hf 13.41320409865619 11.6747958435951 13.279382942675129
Hf 13.059354352180149 14.195530196339163 11.470371678796011
Hf 12.321357475703245 8.93568935257411 14.157560144346716
Hf 11.99144611982698 14.73821488647702 8.750884108281053
Hf 11.71993977113715 12.00529050740827 7.843209621726595
Hf 12.075395358121838 11.51604767850061 10.69345578605452
Hf 10.517085203323475 12.872524014887398 12.975756379501854
Hf 10.770264847462933 8.998838157082659 11.446399200025757
Hf 9.632585425230607 10.330014740397312 14.228485998545125
Hf 11.909299657481549 11.10562371731175 16.0347890776681
Hf 12.621713275496687 16.995149770337534 10.686730961844859
Hf 12.26262596045264 16.172590536286783 13.471264123137011
Hf 9.344352863795699 15.131234623695695 14.161173388581934
Hf 9.914775241099893 10.339030052895644 9.091262522916113
Hf 10.252944727384955 15.66273779918778 11.334161244515045
Hf 9.708566573533204 12.808896771179086 15.872538594524668
Hf 9.585158178726548 13.184680271636195 9.576548568583327
Hf 8.002351559030938 14.03595773389762 11.80062578215067
Hf 8.521738828508976 11.14509462406656 11.510953261090698
Hf 7.786271201077524 12.517055707806378 14.000378521488928
