31
Energy = -263.92904485 eV
Hf 14.825950673162744 10.69396668351999 16.59363992285689
Hf 12.126032971985317 11.362380015680714 16.696586460924607
Hf 13.997453504790768 13.212453987833204 15.601256702772508
Hf 13.142282026645947 9.574751858309968 14.67915588119337
Hf 15.418713463802273 11.126584110448102 13.738654337907542
Hf 15.136648469437633 13.828133307109857 12.741153148610877
Hf 10.300886224757317 10.58222713403113 14.687156083740893
Hf 11.025788370495366 13.64117182087028 15.362410237085271
Hf 12.48663856568906 12.17610942765222 13.266168183536237
Hf 11.054857726171345 8.90140545417962 12.498808729765772
Hf 12.81879276894289 15.155869017268143 13.925061322184996
Hf 14.014551269042627 9.781101409083838 11.686724403747997
Hf 8.136854286226605 9.64644784589212 12.707305377383676
Hf 8.540528192120554 12.644517488719575 13.761611568542872
Hf 16.174438869409553 11.739334589368047 10.712839100193252
Hf 15.523751634293241 14.552332127591619 10.058076613204578
Hf 12.972535248632797 15.345589148118034 11.14749804734084
Hf 13.432293060793423 12.495606199209522 10.318490827650438
Hf 14.536740366987015 10.17464081913427 8.857686725857414
Hf 10.084060371500662 11.393799218289935 11.453968555876031
Hf 7.04778750513528 10.525049943566135 10.109628833271678
Hf 11.846962879274022 9.782788747284844 9.609666581837969
Hf 10.427059625110047 14.384184006912863 12.496389842848622
Hf 6.229570957353641 11.733526744741724 12.395053720088892
Hf 15.288771119415285 12.684890104447732 7.996367119564849
Hf 9.221488275455794 8.810068540449485 10.21434600556284
Hf 13.26068423266134 14.622692296694552 8.323285531956474
Hf 12.446940858472153 11.913428529569147 7.6506267289624175
Hf 10.795123107155836 13.724489445107151 9.466135162650518
Hf 8.019388645153443 13.197764004688844 10.76999117981148
Hf 9.39567605244161 11.329051071860109 8.659131839090442
