34
Energy = -290.7746712 eV
Hf 15.118142107688255 12.768628109488363 14.752230325580394
Hf 12.205905805267482 13.698294756719955 15.505546882321767
Hf 15.510854747389407 9.927943627972386 14.548146874386418
Hf 13.07787370321074 10.928081715725613 15.617788583957363
Hf 11.0396750330481 15.415603911165567 13.713864925862529
Hf 10.41481908912481 11.6278034071664 16.171814320651972
Hf 13.689509573498398 14.626054106349955 12.90443745379926
Hf 17.401242935251343 11.49232655795922 13.432033762670617
Hf 15.782609864057239 12.983094692669049 11.741631556430768
Hf 13.549588177300487 8.485795317400722 13.10770408909031
Hf 15.764001916231496 9.821657555089402 11.684276466161597
Hf 13.481109373292519 11.36218674587369 12.645203782436736
Hf 8.90055006845705 13.747924544028812 14.72772298340773
Hf 10.856531248084403 9.277364005431286 14.415883360447229
Hf 11.884603931398873 16.057802598923693 11.22779208895428
Hf 10.702706279100855 12.388509147907122 13.273208570522828
Hf 14.059128496830082 14.809067453860685 9.927260793301805
Hf 11.771818435593385 13.140117288446815 10.400023399181833
Hf 14.5332099024274 11.67609626074994 9.619487770226112
Hf 8.418614329237974 10.866181037522258 14.562795220493625
Hf 10.622707385466294 10.530747882257185 10.885062309955067
Hf 11.137578135376492 7.741797382736587 11.981491350353998
Hf 9.277136433094464 14.783848303502428 11.605798032340907
Hf 13.203542827947306 13.35165241350024 7.747792432755599
Hf 13.167805596257327 8.840759158243115 10.270204671127805
Hf 11.011389450532741 15.207369048514481 8.733333699443161
Hf 7.8184249886205475 12.125279154698026 12.160194995420072
Hf 12.235420208888451 10.555162622794619 8.116143526457332
Hf 8.636008187120611 12.898199064787724 9.445771070865606
Hf 8.634060624312047 9.041485022052612 12.39437329124102
Hf 10.091544659573291 8.269153780047933 9.43840079720707
Hf 7.733958338980274 10.154644190890275 10.028024351562724
Hf 10.62614075466465 12.792207804938512 7.389759660063346
Hf 9.361680404437896 10.54037214005186 7.97282781267737
