34
Energy = -292.68400257 eV
Hf 8.923245796796099 13.40077340974877 8.371991387714969
Hf 8.809127922476277 15.620337027374566 10.285684108901423
Hf 11.01702446629313 15.39265863134805 8.61408046676224
Hf 7.689354358540402 13.118376084463382 10.955024472902746
Hf 12.007865275810197 12.58765672457077 7.967743960032393
Hf 9.337726862367724 10.858689389034621 10.008461305324692
Hf 11.374102515387166 16.077534744587272 11.602088593823472
Hf 14.864010613348853 12.516416107858904 8.8940416447117
Hf 10.615454656147124 13.398901737548156 10.622407665244346
Hf 9.339042765163114 14.596328725260047 13.054601310308374
Hf 9.907232887610773 7.794364728218512 10.024149845688223
Hf 13.845671880771757 10.21083397005339 8.033272248339463
Hf 11.205836920134146 9.71396509400959 8.27415642502735
Hf 8.039395158290876 9.183213558167319 11.92696859635653
Hf 13.464531074557499 14.714459628534614 9.857957777482829
Hf 12.848039017273393 11.136306624331525 10.620289725903852
Hf 9.227819228850054 11.679064157457464 12.979958485038733
Hf 9.421912508113005 6.920383031696286 12.836109567051338
Hf 13.101400564782374 8.117974999899692 9.801211888897905
Hf 14.053684978423448 15.642851290722252 12.420277357737012
Hf 11.023702636100134 9.315701680640858 12.173997433152953
Hf 11.959539461676806 6.5202415928674515 11.846561602759659
Hf 12.306187342737918 13.168885258859143 13.039921555479461
Hf 12.192865477831777 15.361992184849239 14.675963887694929
Hf 15.258447582514115 13.054934717059904 11.625409892336647
Hf 15.418818200119896 10.090945897144653 10.608701174492035
Hf 10.338957225999913 12.971048788194535 15.318737265152402
Hf 9.254407135526034 9.253566567332498 14.550800404336162
Hf 11.658951971269529 7.5650158754721115 14.473725297734468
Hf 13.922062014931683 8.342023327380582 12.637703214014014
Hf 14.836726082593938 13.90678217790498 14.346996668195017
Hf 14.439218114708904 11.051360413080994 13.47033364566301
Hf 13.016999455018487 12.767819384685772 15.894219321547853
Hf 11.881136174485283 10.462768143309342 14.78033111786964
