31
Energy = -266.19644517 eV
Hf 13.97236700719174 9.955115229281219 13.336867939499253
Hf 14.295756530937604 8.124055800907037 11.060798384078467
Hf 11.954476927987427 7.249171983086176 12.808473424516166
Hf 11.558808528845855 9.722683150667923 14.547922270173315
Hf 14.736275122946596 12.645208885858446 12.761803068371442
Hf 12.632907575575016 12.527187269407671 14.881838018125132
Hf 14.625973527830304 10.95926867653701 10.529762003576222
Hf 12.042142161355084 6.963858515555863 9.843468121966232
Hf 11.721920208397195 9.386785895545978 11.389455204173814
Hf 13.312125904968482 9.243300702797454 8.502489829201643
Hf 9.133285138713706 8.825252328745238 13.336588780049018
Hf 11.80842377983258 12.134401032458046 12.308954768096534
Hf 12.955224615091463 14.731444485394173 12.867117415003724
Hf 9.528223310542067 11.673160806953307 14.334893194891478
Hf 9.376421432206689 7.444353427339553 10.787528342773262
Hf 10.472788116719109 14.30464825364521 13.874626300794358
Hf 7.063821781237004 11.096616241696042 12.979594417738575
Hf 13.866093864936062 12.069139011832734 7.942770631511812
Hf 11.394609677040709 11.769532829941934 9.418941202156027
Hf 9.12531975686909 10.669753323767637 10.853464033243386
Hf 6.9336311488050795 8.87406785632962 11.43161299631644
Hf 13.586457429441444 13.832737350942526 10.185424005718273
Hf 10.406890678278952 8.73726117725041 8.197441564161762
Hf 8.417993305969249 13.417312453178063 12.082211893879737
Hf 7.685375969096232 9.028519999527116 8.794454428683302
Hf 10.881762023250882 14.694381395799379 10.82833576636431
Hf 11.646988372834418 10.885653200482459 6.685375693016302
Hf 6.6603404226574945 11.534117404274918 10.063630794182659
Hf 11.414021293198248 13.740942532403972 7.754344304322007
Hf 8.772759965128255 13.55281253107762 9.284038000252329
Hf 8.92600733736827 11.356397854598097 7.705463140971186
