35
Energy = -297.79738656 eV
Hf 14.922240032656466 12.635227294311074 8.639418680794108
Hf 12.970711661351574 12.735102738407274 6.436857220512572
Hf 13.437798130680159 10.268400778147562 7.785790520326724
Hf 11.35149198950219 10.701086054092169 5.7245553790320205
Hf 15.056796772585919 10.225526706931205 10.206218120812093
Hf 12.487562179029137 8.703405921402442 10.501794396348078
Hf 16.522622361159 12.445959498876027 11.172585420092801
Hf 14.009048222158128 8.643218590956362 12.896485939254516
Hf 12.528877094937288 14.436773756113514 8.675687800729818
Hf 10.473517344115095 12.490961849242373 7.829435437741472
Hf 10.68132356530131 9.691194241556484 8.401799502286014
Hf 12.408030741906044 11.849996951646295 10.10855012847918
Hf 11.256634177897322 7.664558221901568 13.058056945420306
Hf 14.306512479183962 11.582513865239465 12.82289141485542
Hf 12.97744101941251 7.355915379846107 15.303016479872323
Hf 16.059831553219578 13.920698276319449 13.34599761740459
Hf 9.734182114574283 8.445345655026374 10.839120550312128
Hf 11.329997920463967 10.635555134400107 12.929741177541258
Hf 14.046923253799918 14.158546294494498 11.2303771491545
Hf 9.270743376979778 11.122945598182662 10.422230573838368
Hf 13.462500968828499 10.114922588103424 15.242688077481139
Hf 10.66595230692723 9.234920768477188 15.509586218721394
Hf 10.27411607522411 14.040824863379632 10.402787162569936
Hf 14.15180233995944 13.234607770097604 15.342461621587846
Hf 8.629866205208835 9.605699339156459 13.113008427792819
Hf 11.661865562878605 13.836851762851317 13.331649781897843
Hf 11.868371968347628 16.201987879269062 11.563704549950184
Hf 11.524811371543649 12.10264942274588 16.034717466099288
Hf 8.96775831979472 11.47740879721301 15.105409948500315
Hf 8.651184843832445 12.738515714594662 12.723666918617475
Hf 13.823428430487985 15.796781402849225 13.850205565722655
Hf 9.258484949488121 15.541899113572835 12.548832171919592
Hf 12.176008116653055 14.938158256256527 16.117634415505957
Hf 9.457525799782065 14.3030332645672 15.184297456629405
Hf 11.067150215521794 16.628774060922773 14.267944697675409
