30
Energy = -250.32244893 eV
Hf 8.024831279088177 15.174207850933882 15.262089899156
Hf 13.459907150814146 10.391395370207716 14.697221483144595
Hf 14.700343438407577 14.807881437600123 9.15850479464229
Hf 13.217537028946317 7.793611847067603 13.166399543302921
Hf 11.632078577352607 10.022383927594957 7.484661730845859
Hf 9.579263545213559 10.11292766396065 9.688779863950936
Hf 10.026679313012892 7.579343130320406 8.383549597617558
Hf 14.370595060553523 9.862067645756824 11.532896424379102
Hf 10.102127917009836 13.730514440038702 16.513625980508703
Hf 13.433386532606944 12.6321102525163 7.484455336897567
Hf 9.555369320401313 7.579343746690813 11.070385052751075
Hf 14.353274066722463 10.032769753359212 8.52467329675158
Hf 15.690163781275636 9.123329799754842 13.802223607921182
Hf 12.298253180711695 12.130511363612001 12.594441660022499
Hf 7.691263114666885 12.360164017977684 9.933450642785008
Hf 11.106861443617516 9.579685254394986 12.426394856504011
Hf 8.557682273350276 11.086358737504465 12.39847875856973
Hf 10.224166039159316 14.209162955948628 13.81351430284893
Hf 8.060079982814067 12.494374606594624 15.000234045650936
Hf 15.14260552813392 12.162399537740766 13.235797221848967
Hf 13.641465085231271 14.515394651008258 11.92762499510506
Hf 10.324551118390493 12.667860926346945 8.063228541804802
Hf 12.267381646416649 11.453872649870934 9.822685204664992
Hf 12.076104108572256 14.436657933268247 9.379874143620237
Hf 9.99620020534225 13.283347210639214 10.998404838694785
Hf 7.538768609978858 13.858752748521342 12.558133759494192
Hf 10.606309108108459 11.311814788676944 14.929927399408243
Hf 12.16899536236977 8.424874533836881 10.018682583499226
Hf 15.098446266931946 12.374126118891057 10.138706933782103
Hf 12.849405116327171 13.284768346132072 14.957506443009965
