32
Energy = -274.69536722 eV
Hf 16.441115463684106 11.75353845714746 12.152090379317926
Hf 10.01397061176823 9.656969931781358 8.926664938138483
Hf 13.194627872738215 9.725976013049575 8.510325878540282
Hf 15.215237921809555 11.928970716323473 9.55690437441127
Hf 7.604747910736565 13.647540481107352 10.542904125922426
Hf 8.641419079318966 12.519084045746363 15.190863379217227
Hf 14.543411341542045 12.900748564279906 14.273308369490598
Hf 15.047415111741044 9.258076278043966 11.050281159009819
Hf 12.16895240541924 14.103472098143659 12.305676157848357
Hf 13.5502973319321 11.27845502513038 12.243530352277322
Hf 8.288615555047526 9.762213300068582 14.59196849192199
Hf 10.819663581622143 8.435277662261747 14.186316856371974
Hf 11.359178765916704 13.951341410393118 7.398518964196489
Hf 9.741526009960271 11.872532042901334 10.966158620002021
Hf 12.12348006710157 12.078261643011071 9.633018672372382
Hf 11.505378273072687 13.193080928965403 15.161417710933609
Hf 13.04656198685582 10.437608563771784 15.32084130604512
Hf 11.222357131119193 11.161313715341693 6.8641352117560706
Hf 7.3811393197938955 10.797158589535846 9.879824784211769
Hf 13.504748800669232 8.373779310322103 13.291163202991712
Hf 8.82235246594647 9.061810080816299 11.826980481815951
Hf 11.758732348100358 8.957295782003143 11.11938225710109
Hf 9.003431088881552 12.559109956253753 8.226593603556957
Hf 7.373819993346516 11.659475276165088 12.661409325268766
Hf 10.389913032920484 10.619802001866644 16.210475347454373
Hf 15.556726760964287 10.025058292983662 13.977010262198844
Hf 14.937522017196937 13.966842630063507 11.650055190014237
Hf 10.328075893722145 14.729150063680702 9.996501393608662
Hf 9.358157218639588 14.099821700569919 12.965598107996476
Hf 10.704863755889862 11.124915781987227 13.419551183733693
Hf 13.401971364710667 14.555543145995204 9.347756823369336
Hf 13.67392698731434 12.404471478395346 7.25850907251957
