37
Energy = -319.90913472 eV
Hf 16.03835965741325 13.023422437353192 12.081525713773134
Hf 14.54449029491469 10.393565563815038 13.884984239243318
Hf 15.410487001905691 9.767118572551752 11.08467619667047
Hf 13.783460820054293 13.286203003793245 14.397332284800365
Hf 12.89577577148701 11.090017632142564 16.1740844593821
Hf 14.267107010537572 7.681515930805785 12.792870364569044
Hf 15.678513711223989 12.034721272360205 9.293484031671117
Hf 12.262818156669853 8.58302775993676 14.709083439971698
Hf 14.771779591619097 14.516446538872867 9.803922105296175
Hf 13.751987243122862 15.460797046244192 12.225613995146311
Hf 13.84739332086429 7.493097961514951 10.058455227543606
Hf 13.649854911944752 12.268848575687645 11.442711880156915
Hf 11.854289992608594 15.390697868454657 14.413375750453852
Hf 11.481554312916323 11.324443943225742 13.757084421994616
Hf 10.802010623842499 13.129140793581666 15.810776090330299
Hf 11.572706137913322 6.866870090565796 11.848210358263536
Hf 12.330154167468091 9.419360144273515 11.714758501930255
Hf 10.191105650222548 10.210750045068911 15.98231178020545
Hf 11.62069245037265 11.352152739277487 9.680225129741997
Hf 13.899247580419363 9.904223358707178 8.477344450396563
Hf 13.257037111440384 12.930835636653676 7.851021594579367
Hf 10.917652361296824 16.453814711751892 11.994977138549462
Hf 9.428590278839396 9.005393647189722 13.505699799229854
Hf 11.350117874840105 8.360106816557197 8.866568555183377
Hf 11.985483575467258 15.162937197808683 9.563481651486692
Hf 9.147373551609391 14.62661040352718 13.663176637762584
Hf 9.438651070012023 11.561733160616408 11.41185337099962
Hf 11.336113423730652 13.722009066752605 12.022146674606383
Hf 8.391847295603128 11.722035361729782 14.25229902759163
Hf 9.324230970711945 8.527168447019259 10.792480498087352
Hf 11.4260883004468 10.743470886152517 7.030062441526251
Hf 10.016955876030954 13.150634472135739 8.137462478941428
Hf 9.003987178453684 14.839138779982617 10.459094700834994
Hf 7.100561752878722 10.37795518056675 11.61493422062905
Hf 7.119963767778687 13.23754130468047 12.108171911969363
Hf 8.961500936888662 10.300955092158203 8.57221505855181
Hf 7.478364182168825 12.592039208344405 9.455179447843722
