38
Energy = -323.54961178 eV
Hf 12.41156971468719 18.455418736882994 11.151574468593655
Hf 10.806877261911534 16.70717990801046 12.961164974205207
Hf 9.555368886110044 14.330081585273158 14.328924281333997
Hf 12.576575304489149 14.61548677264482 14.493669541605318
Hf 8.765994270254527 11.932210489481811 15.617444384988211
Hf 13.714284550492179 16.346869766831393 12.431632428759961
Hf 11.693653421179668 12.017883227923123 15.86716276163697
Hf 7.736622800309526 12.449293771745056 12.993003419228547
Hf 14.55930666634188 12.92700055935976 16.260414452324042
Hf 8.94142920514262 14.905802249370012 11.578803444659306
Hf 10.451202669995167 16.825322482622223 10.139474388905425
Hf 15.555997271864854 14.361139727331617 13.89366563251647
Hf 13.140800145950731 16.04774064167505 9.561179773586021
Hf 11.778182702394574 14.23001697779311 11.532032097723784
Hf 10.683153185551276 11.857555953081578 13.188760786316369
Hf 7.1951152919106836 9.958522431688698 14.572427874843575
Hf 16.33082195398663 11.274185879785914 17.651430738509994
Hf 13.762345894400772 10.312336202316224 17.20924085414549
Hf 10.067728036277632 9.448191711434314 14.857466978296436
Hf 9.60171243507756 12.121642152746206 10.453566050666227
Hf 10.840907033946353 14.370608302626405 8.778622058952942
Hf 8.759305396173515 9.779530367730418 12.239899678029401
Hf 13.727156390501472 12.105988395500146 13.335769710358877
Hf 13.031256981051312 9.565281898622253 14.624031095036864
Hf 14.745438472256868 13.809677611756436 11.078517473118449
Hf 15.853521006399014 10.195814711543653 15.128190242573764
Hf 12.533478180243987 11.487351639429127 10.46098066807893
Hf 11.616272354613645 9.047033770938375 12.203659879804635
Hf 17.333514124892307 12.63564902996538 15.469533024496798
Hf 13.480704968809048 13.315102248858675 8.345269878126045
Hf 10.48943204567394 9.375279727000775 9.585167209075493
Hf 11.234116634250627 11.526144976046925 7.768677832807519
Hf 16.569280415280286 11.895466589033441 12.702948522516127
Hf 14.763349763505023 9.55354397558631 12.282140884564907
Hf 15.370561455633386 11.032609876018142 9.932412270470323
Hf 13.423055581688098 8.794926071801964 9.63258546967117
Hf 13.926316159916256 10.620750149392416 7.512211862118117
Hf 11.909674404933204 8.775696042411992 7.153301958444424
