33
Energy = -284.22283126 eV
Hf 12.042624249916756 15.419933767969733 12.25827003884743
Hf 12.933802130732007 13.591389754922751 14.395584094438073
Hf 12.830663792202795 14.53305848305571 9.603873995544841
Hf 10.091932865585205 13.946139023786415 13.62848326081651
Hf 14.557194382935844 14.459656247160584 12.045111550709105
Hf 9.986129463803469 14.733932679081496 10.416919842898754
Hf 12.416120123349208 12.477481358011422 11.888553410662778
Hf 8.10520041141433 13.287853943828924 8.903450839479344
Hf 7.611088376502002 13.250294959569157 11.677657074302541
Hf 10.625614672120479 13.632117098168898 7.549125520806428
Hf 10.672043731943702 11.419981261058286 14.98034532405332
Hf 14.869417975883318 12.25435234348405 10.189384821616713
Hf 8.014926952695403 12.30283856226372 14.427307771405847
Hf 13.175671708580104 10.15572003392174 14.03400953219372
Hf 10.685303512908002 11.865932755406588 9.558916689702022
Hf 15.070247513373879 12.030143803356111 13.176002385485678
Hf 13.22432744481646 12.323383659236839 7.870552329811378
Hf 8.31825502859244 9.549489156725716 14.516355152300621
Hf 6.611086813075564 10.699030316570687 12.627447628987172
Hf 9.538571176567888 11.029864651665788 12.246239831827282
Hf 14.961213901851647 9.582066715712434 11.692103098176899
Hf 8.825378195677649 11.142669336191181 7.378781543471421
Hf 12.073388458775614 9.488750429959152 10.926274976275476
Hf 7.429400820085672 10.68922070207635 9.943748329711891
Hf 14.06715623578789 9.70191668995262 8.703472067541314
Hf 13.296446403381665 7.573508309592705 12.887247948628351
Hf 10.735467603980695 8.475217260557537 13.666393304734777
Hf 11.489258279613956 10.224426803573522 7.215841218312341
Hf 8.322934532796905 8.420185601326413 11.801247811721254
Hf 9.465892797592732 8.804107362356106 9.09907550662619
Hf 13.855816998116111 7.25733078647164 10.266318269422412
Hf 11.915701327772949 7.726219431931369 8.434908033346746
Hf 10.992442888505405 6.866342788148556 11.129202362385488
