38
Energy = -328.21745813 eV
Hf 15.174887065251243 15.986920812589915 13.03602343526989
Hf 15.726213322084002 13.358355971472443 14.223822007592853
Hf 16.250029392692735 14.07024985851333 11.42002451572058
Hf 15.83768984189891 11.28822880552517 12.01011198857254
Hf 14.162532735361115 15.800439409966458 10.24254920831846
Hf 13.250748494346448 14.875901299060766 14.974106052173031
Hf 12.624517497095999 16.811586854903616 12.628053182640306
Hf 15.398798716723492 10.504839236398313 14.81922108650108
Hf 13.873391156650635 12.337613286576119 16.22515557579857
Hf 13.253128999462442 13.954077330711455 12.040130353841581
Hf 14.645375991029733 12.526647120818554 9.654062501585672
Hf 13.068271865035562 11.545365535592346 13.455410718143794
Hf 10.663200458935073 14.84862151149229 13.592678912711571
Hf 11.02904289241564 15.497803505646003 10.674851839588126
Hf 12.01252272563035 13.43028870628109 9.087180821331529
Hf 14.404077795781397 8.916055548555212 12.598700264935111
Hf 12.506885390614302 9.917346038691003 15.560139002537053
Hf 11.163256909618958 12.6722554605196 15.48230232073242
Hf 14.918650657195393 9.446691879545284 9.523329204888903
Hf 12.628334857660834 10.488215574232798 10.657026854111553
Hf 8.406054101890986 15.071565816122071 11.820510628503058
Hf 13.185805098077056 11.078211341380845 7.770353198284241
Hf 8.225691069020066 13.059954693017431 13.882987400702056
Hf 10.117104049892706 12.736429638876777 11.63697263996931
Hf 10.025097420525226 10.539476125945654 13.940106968404953
Hf 8.950297695977378 13.700575659754254 9.174544724050909
Hf 13.103997872074599 7.4474225795201 10.612278800908275
Hf 11.655551274731105 8.213095182603357 12.91748471556682
Hf 10.296149809697132 11.22251118536489 7.991285305175115
Hf 9.715642047714235 9.945161652147814 10.844339467320932
Hf 7.032504301738758 12.842431921133624 11.216783296703616
Hf 11.914468457701528 8.625219873488945 8.33771393307839
Hf 7.354192167225424 10.424369076074395 12.572875585269204
Hf 7.522035536407502 10.925434846234017 9.21554183714869
Hf 8.87176212377238 8.03364033393328 12.91764732060778
Hf 10.211492267936947 7.117948703823921 10.438136645874556
Hf 9.027977112339435 8.719023120218324 8.237220503862304
Hf 7.417365361652419 8.270647647028513 10.50982240361775
