38
Energy = -324.56862498 eV
Hf 17.89224529153529 11.857642814116838 10.451833670685172
Hf 11.93796318436077 8.778041939767894 15.924953071855358
Hf 13.603533065201248 9.664436933633363 11.911387143312176
Hf 18.418310330261665 14.485149430444244 10.554703376978285
Hf 14.53928643573913 9.081505485472633 14.64855564596951
Hf 15.311508584595312 10.765837771914718 9.710524279217353
Hf 16.41023437145406 10.37074037771095 12.506969386950704
Hf 15.840026494166015 13.641844371494898 9.468737084407088
Hf 17.256798826035947 13.184659972081251 12.886840142206749
Hf 11.118188241209436 8.675606972508815 12.995525132573356
Hf 12.50665208868658 9.831252291974703 9.099532344037025
Hf 9.523235871689224 9.743040123619034 15.080863240372167
Hf 13.773015959063002 10.667243434413814 16.867230540368563
Hf 13.075022755294013 12.551047926168016 9.129224695506068
Hf 12.33640334997143 11.233363455592363 14.274031248678439
Hf 16.00708505881034 15.476917194841281 11.661205989698821
Hf 14.45827580823605 12.577257981333698 11.937070826974878
Hf 15.42380006948086 11.839568330590394 14.873084290543673
Hf 10.19000923652037 8.788539251976252 10.109936387773626
Hf 11.25423921326871 11.35223655600664 11.434770247128064
Hf 14.805567972609873 14.706415860961743 14.164344230295931
Hf 13.36105447330887 15.20730059356856 10.58087984817616
Hf 7.747100958317871 9.97816133325316 9.399247011065542
Hf 11.022696536773488 11.40118510829088 16.873142145778747
Hf 8.578222893053635 9.843499358011421 12.247113859354553
Hf 10.183345723431952 11.432857394169767 8.680210885942579
Hf 11.823149035623159 14.272994264501724 13.166373840371756
Hf 13.121938314924856 13.412452721342078 16.28663369175039
Hf 13.610048856119118 16.963730597197838 12.856147015942284
Hf 9.510865430502152 12.255057995314516 13.697937070747546
Hf 10.538593833298942 14.168331091510261 10.20309487659263
Hf 12.470529572410403 16.247320829866506 15.413124194909118
Hf 10.415068931623507 14.196417987680837 15.750054863778082
Hf 8.404411478133966 12.356435244756383 10.827981240756074
Hf 10.940898336188086 16.75847947910571 11.715379370377667
Hf 8.940815875078059 14.880278223500847 12.484301453473533
Hf 11.629916243787905 18.65068985952624 13.90215072777535
Hf 9.847609423471775 16.656207878419277 14.414064556417305
