32
Energy = -272.62431881 eV
Hf 8.85957015118852 10.19134098412687 14.839520802265868
Hf 10.024251183976421 7.790303488539157 13.83908516311619
Hf 7.869402516258451 12.217440724087497 13.327614061934945
Hf 7.992629320933468 9.635618178603764 12.073896223986345
Hf 12.424070413618642 7.519363392354378 12.08621139995084
Hf 9.900222013992753 7.8819885734672575 10.933539080910064
Hf 11.411846575071133 9.95341833455799 15.612902694271046
Hf 12.153010287102829 8.821924273146717 9.482807392168075
Hf 7.616710580238671 12.284331677922976 10.537227820339474
Hf 10.366427584231852 12.639109372913646 14.781281052497214
Hf 9.574761128904447 10.331931463381725 9.412646884217194
Hf 10.894363428533438 10.081462201813526 12.6112098585868
Hf 14.496353078849484 10.215964041024831 8.679430285205232
Hf 8.838812243734923 14.77238162343897 12.563799550527568
Hf 11.975636769629947 11.33368562596918 7.382379362563263
Hf 10.247933525934581 12.697095855392424 11.523850768577322
Hf 12.462695278694408 11.890314520593178 9.931416310135848
Hf 9.738305977551006 13.029688812652946 8.612566246489303
Hf 13.57569345082362 11.93462400272473 15.333076393777866
Hf 12.222236893658092 14.27865292037591 13.332455960477033
Hf 10.774174804688096 16.717156458753454 13.484693152798297
Hf 13.289405410432504 11.614203758265893 12.605287526970839
Hf 13.670577280786247 9.050929338582895 14.240342479395927
Hf 12.164500307534732 14.273828321176008 8.209715093376182
Hf 14.634939670255118 9.237536817805164 11.410788327063646
Hf 11.071363352082129 15.507213497453554 10.840811856259993
Hf 14.474776115552594 12.888409875331815 8.123211713708729
Hf 15.069030670668395 13.703812497071624 13.38054279132162
Hf 13.255161147983133 16.685245530350606 12.379575394785117
Hf 15.754171020439065 10.866100258941806 13.590948968688355
Hf 13.861001591550457 14.421891783167236 10.710883780944382
Hf 15.635539901436726 12.003382700901586 10.79881931255276
