32
Energy = -272.48242058 eV
Hf 13.200326251521627 8.517252847617053 10.482773077688941
Hf 10.609296384296483 8.325906876897152 11.443649141397188
Hf 15.248165765179182 9.079335258011334 12.480332636073364
Hf 10.53709737941222 9.573669326788588 8.741277069430181
Hf 12.598780453446565 9.034550264139616 13.453307670338535
Hf 14.831638371985399 10.336958554395784 14.930465424502874
Hf 13.263188840126665 10.113590916013 8.108412166506596
Hf 8.590099492542949 10.262943625021126 11.071468467674247
Hf 9.821119668636019 9.82660221390521 13.818406447977692
Hf 11.949080709288404 11.353429475370435 15.182432193493144
Hf 15.242357854061702 10.607080023375639 10.120422458607122
Hf 7.457842170457753 11.274731087053528 13.440074862183979
Hf 11.735121701621864 11.126670906150586 10.629440530253756
Hf 16.739240090681943 11.456847927224956 13.012455703367737
Hf 9.121510093863446 12.090330336936255 9.097727691094857
Hf 9.180419216147065 12.12825870958992 15.58273422434277
Hf 13.768088350256477 11.867364778472338 12.779492313713183
Hf 17.523156336685613 14.15389187155944 13.14414027352738
Hf 11.559939902007311 12.440711971249552 7.956873490244564
Hf 14.302951345922297 12.613613006150496 8.363391005563447
Hf 10.189487550173876 12.80908811292256 12.84066663458163
Hf 7.665378501247135 13.236942910885412 11.221151474760825
Hf 13.046600570297832 13.829891246880829 10.67027430622752
Hf 7.631424584169787 13.900983280883503 14.060564136360204
Hf 15.93465289762401 13.350727755859213 10.74689931637648
Hf 15.589883874424649 13.109331727307334 15.058789126621152
Hf 12.78408391880985 13.962845971074843 14.653311051619097
Hf 10.236822634664543 14.515426012777578 10.112497657092433
Hf 10.08125183000894 14.92257107621096 14.938548562989755
Hf 14.814459042311102 14.834246908516826 12.90142803335665
Hf 11.691540742154785 15.521312619047595 12.529151195305904
Hf 8.923291002246179 15.611718770905576 12.399825695456565
