39
Energy = -337.13913655 eV
Hf 12.314819748693365 7.26325681400608 11.877883875491566
Hf 13.57964847626076 9.025494511882904 14.20205293323581
Hf 13.749277376169813 7.425976499834249 9.294921766391008
Hf 10.996413848309963 6.837541567051589 9.267629524089324
Hf 15.886683623446896 10.740609096603727 13.492974441023877
Hf 10.740112616381493 7.9270596588057805 14.291704196187073
Hf 14.078949357013226 11.759369440955703 15.687185604994145
Hf 14.649530090305454 9.170484469011043 11.356681117492212
Hf 15.561709898677112 12.104644714928044 10.71295805109376
Hf 9.470868158708473 7.832404548009779 11.630334831712071
Hf 11.253114391023786 10.658032882581521 15.375102902532275
Hf 12.224641400486862 8.43545036779486 7.27097484572393
Hf 11.631840598951348 9.580822598161706 9.845964728192481
Hf 15.326375469618403 13.668573059009914 13.744793838549105
Hf 14.210549131549577 10.388849776990874 8.645705993397605
Hf 13.49335533154633 11.537877802900635 12.473487675097372
Hf 12.255669966916038 13.403462372506242 13.96214769958161
Hf 11.161215017242958 9.987960205913176 12.594614440575226
Hf 9.49236673935119 9.16072327368953 8.096015415342773
Hf 14.087556578098141 14.556544289090583 11.253576006685854
Hf 13.79010440567748 14.662020517441029 16.06999354110766
Hf 11.836270798762392 11.23667020103717 7.258436277014035
Hf 8.573197915227476 9.910016002047326 13.795096149747573
Hf 12.21293524999011 12.628334762108329 9.90422096333641
Hf 13.496495907644492 16.084749940628928 13.701136780617759
Hf 11.559698954269775 13.173490338221882 16.76802942891263
Hf 8.118539066276924 10.275340333806952 10.77044297460418
Hf 9.904445577884127 12.5472759271486 11.747501820413834
Hf 14.066117906506847 13.558464262011805 8.17214890349979
Hf 9.275561621417742 12.08050905509611 8.472947826296705
Hf 11.203012797739563 15.44439976425945 12.038499511010055
Hf 9.367054191554498 12.920799589428643 14.768995829843035
Hf 11.043823611918208 15.557803907834364 15.172052435245844
Hf 12.313454022875115 15.612848613604042 9.33891561898499
Hf 11.18227288539615 13.959434153736144 7.433716980131917
Hf 7.229038922864666 12.20458028384632 12.901883736875327
Hf 9.544001779692062 14.868807796286632 9.673834556964502
Hf 7.389934970361625 13.071966463596839 10.351174135693434
Hf 8.40856420878038 14.79041946261647 12.576677048831813
