34
Energy = -292.49173679 eV
Hf 7.434631353490654 12.887200177016094 11.791053404535399
Hf 7.831722477302608 13.713492541631894 14.56799243727688
Hf 9.342237511926662 15.186738766834218 12.635362751035247
Hf 7.206826505805496 10.997511413982648 13.986305012090243
Hf 9.310873468537565 11.57437701293805 9.706696218181634
Hf 9.145601269380645 14.399244321409993 10.00447181597912
Hf 8.490943509300564 9.764404618493007 11.68163651413606
Hf 10.7066073034941 13.945464781579467 15.201260586915277
Hf 11.196576533726574 13.441609064961423 8.387276443833334
Hf 9.110404792701583 11.634925070436266 16.036541529119983
Hf 9.779896502931393 12.024982309636334 13.213543437080505
Hf 11.994130696761992 15.719358548998326 13.302097610470998
Hf 10.510505990798379 10.921007417394938 7.186163694242676
Hf 10.153594199474023 8.781379201288857 9.284128825115657
Hf 11.742248127027942 13.28144701005447 11.373091330240191
Hf 11.6517113551944 15.867535946925498 10.374092049915278
Hf 9.384640218376422 9.182678489983935 14.310633864421868
Hf 12.136022560902148 8.773391215588275 7.225020680023735
Hf 13.390518137843854 13.250683612653251 14.022618683242934
Hf 10.646185863670851 7.284260645441002 12.208545246661432
Hf 11.59885580626948 9.805339531405606 11.960352083373332
Hf 12.719807651556378 7.652723851863308 9.876590023368756
Hf 12.615954656477241 10.815508250809186 9.369569927598704
Hf 14.092332799297788 14.975173582580211 11.765574108599742
Hf 11.848505312474664 11.176395754051205 15.390805859627449
Hf 12.048397759087157 8.41983663226481 14.599898565162873
Hf 13.413506809759065 11.441807114337545 6.824293871238171
Hf 14.678517117354712 9.055771990165443 8.067989728384921
Hf 14.920263271948276 12.291536609777634 11.549104258702023
Hf 13.80018357721955 13.815944442748245 9.191494436306442
Hf 15.019549782649381 9.38231892134566 10.857821393847837
Hf 13.540540928553293 7.582666193324004 12.562711525864463
Hf 14.06465814070326 10.308719334928362 13.574472865264617
Hf 15.509297410703073 11.53208149749131 8.906357175019645
