35
Energy = -300.99948899 eV
Hf 15.941899030477884 11.420609743446992 9.8087950591581
Hf 15.956312926036585 11.95511903566757 12.762300252167401
Hf 14.744430176954634 8.59536566063646 9.101439635039522
Hf 13.766889253068145 11.008141122688567 8.115766197575121
Hf 16.195769509661545 14.064653808722882 10.948810454969916
Hf 14.677189280163077 14.598860529044382 13.417153029804345
Hf 13.510316196271289 10.05887427537694 10.995809159683049
Hf 12.128801625635772 14.015331422238805 15.121593027253576
Hf 14.061525821821121 15.782870915772632 10.745418096123828
Hf 14.39040241074681 9.778276687589178 13.90182571473054
Hf 14.431636763837048 13.7742291873812 8.649276318378995
Hf 11.934463171228215 15.578458737141046 12.654189879031623
Hf 11.780395980898769 8.961456597311765 8.72352381793814
Hf 14.459378526561208 12.284665579255837 15.133448573423882
Hf 11.194069733397493 11.92988385424368 9.121000692742465
Hf 13.493512937730713 12.973325403966333 11.225706104854293
Hf 12.11142945516611 8.33261523711738 13.901769015379468
Hf 12.230690171950487 10.573807117496639 15.952550993660607
Hf 12.034209003095949 11.615510713174189 13.471630568226132
Hf 9.846433706700893 7.300161607569619 12.73547163930338
Hf 10.517510604300167 9.778236336669329 11.400730249092103
Hf 12.311536663962055 7.336241158923963 11.08278158629957
Hf 9.60752118403992 7.421257171141549 9.972939931268158
Hf 11.650075111259595 14.840863009664526 9.499547649509708
Hf 9.362739514934917 14.62740399282563 13.94751705798365
Hf 10.16617675173413 13.093692950709336 11.62481688779225
Hf 8.96821438864482 9.910995656700313 8.880726400650792
Hf 9.871907176378286 12.258877911357265 15.523142233431859
Hf 9.669580015709558 9.613518465804603 14.502266829315477
Hf 7.8153362351897595 9.09186184486368 11.646255386433479
Hf 9.540045098708033 15.928600341920339 11.26902197459201
Hf 8.897580796289722 13.97321953524944 9.181157842555722
Hf 7.988962045037852 11.829014402342143 13.408211830773212
Hf 7.627529878418603 11.697314668168314 10.488628820761202
Hf 7.463671352090974 14.118034969519062 11.734206094138198
