34
Energy = -291.1275852 eV
Hf 8.428927698672961 8.806813663014943 10.309413139041336
Hf 10.759745264582582 7.753102270660168 9.162802621793674
Hf 10.24551510138189 7.5004177671075665 12.055630427990325
Hf 12.52231300410676 7.706969803639928 13.758447794586107
Hf 13.090472158027637 7.81404853717403 10.856956936358916
Hf 9.809644974847112 10.351264158049991 8.225834352319817
Hf 14.805651559691805 9.14231844692451 12.864625715449996
Hf 12.766704713641236 9.746827981006478 8.425978416817394
Hf 8.791105124527077 10.548659534148635 12.895784235733831
Hf 10.208292821749684 11.604691052033052 15.529117023561863
Hf 11.105899537313947 10.046046592591468 10.87336282514227
Hf 15.011058564068694 9.7407905398214 10.165886410056505
Hf 12.632153486100142 9.659078042716489 15.981995498168024
Hf 11.791368126072287 12.590260289866135 8.688843503525247
Hf 13.394847746937492 12.289440912286699 11.153269928896375
Hf 15.168548634910772 12.273316501161172 8.967859980209843
Hf 8.037284436592975 11.46386803904576 10.243982414272164
Hf 16.078170793304693 11.63565486831362 12.017814141077473
Hf 13.821222174560729 14.681699511437369 9.15519292906243
Hf 12.207829555553452 10.875598385803142 13.538883844234524
Hf 8.956137612062376 13.616803374959147 8.750388868110896
Hf 15.017775767613992 11.150731177386376 14.7877214268023
Hf 10.418053124865668 12.942633795585765 11.446356191950974
Hf 10.223362745012524 8.871469625362803 14.687281880897867
Hf 15.532375368564503 14.3045713423327 11.206634205684601
Hf 11.033111140407826 15.345689157599796 9.531929547212172
Hf 8.680826073153439 13.496081598304153 13.772226603957664
Hf 14.320891959376024 13.731249707382046 13.789873208439637
Hf 12.831438790062998 15.291181934171448 11.774008707894835
Hf 7.482293602312524 14.058495574543512 11.262327766702747
Hf 12.90656630851464 12.472018101738657 15.988186813524798
Hf 8.28378666819879 16.284710115229785 9.760944188546274
Hf 11.38339124434556 14.082794433372818 14.27734044008962
Hf 9.694414233056788 15.680279369184808 12.223904435337468
