32
Energy = -273.10524529 eV
Hf 15.20350132903999 10.340239324609925 14.28345679944617
Hf 16.578278491698473 12.547113290643349 13.057319397214119
Hf 13.223810785376543 8.353821759628197 14.861608927420553
Hf 14.510936753514395 13.128590991619218 14.661604611141666
Hf 12.539073223972855 11.105046913760082 15.554216962258261
Hf 16.18658924841022 10.13603683790804 11.32207675222163
Hf 14.738144810406645 14.69323243005003 12.157190442660225
Hf 14.43975197521429 8.116696634385436 12.492998666003583
Hf 12.031185513588852 10.172226386494271 12.78796112420218
Hf 16.4506146171006 13.009885761456006 10.403280947103154
Hf 9.760224224795127 11.65424493065533 14.209039603086302
Hf 10.585268039209012 8.888260659853657 15.030829649967497
Hf 11.932400614840457 13.427891269752738 13.812248039212646
Hf 14.980078230774751 11.212473583105782 8.886725733883143
Hf 13.531888725426473 9.100771893555429 10.128481440372537
Hf 14.00858585423142 11.997422073771407 11.664698543682837
Hf 9.154077991399264 9.332708855774383 12.658516435673816
Hf 11.580383197653793 7.424700599691178 12.615600694837338
Hf 13.95487429808431 13.867839780430922 9.352696084593413
Hf 12.091632574839084 11.417988930416223 9.08191338038986
Hf 10.54031830968186 9.239587902991973 10.192223161583385
Hf 11.825455917463929 14.361416938430015 11.221404498267335
Hf 9.672695302804847 12.183872689255203 11.084777661095503
Hf 8.999358553375993 14.255206496196498 13.178411444560844
Hf 7.179019788677184 11.861311180762847 12.628388200177756
Hf 7.810688209304636 9.882934222402357 10.295241448120589
Hf 10.802195334668733 13.867629903658655 8.573075546271532
Hf 9.192803514485425 11.452309439399452 8.187403183596265
Hf 9.284278604202857 15.308589604536985 10.491282434115325
Hf 6.835130885484016 12.2502280218614 9.739719108233615
Hf 6.82304522501694 14.450047657969225 11.309596602770386
Hf 7.98328053915318 14.230107461574242 8.282025598455164
