36
Energy = -310.21924993 eV
Hf 15.177968113076025 9.463245815588232 14.1499231966274
Hf 15.975678552840618 9.896886646660228 11.55803949495877
Hf 15.718085063281704 12.217458300887834 13.4134469867294
Hf 13.804359354238509 8.075439468352519 11.928203850012379
Hf 12.587885267145344 8.648306529309865 14.851777910469483
Hf 15.41756721510722 12.336071824862888 10.329030577835312
Hf 13.444967056148599 11.552670498471306 15.259241760539753
Hf 15.513273137227165 14.815069772029073 11.907707475728118
Hf 13.428944029866143 14.081694956271287 13.76521269724833
Hf 13.372351806498845 11.000403303734043 12.29202912529446
Hf 13.92001041626644 9.859558310630648 9.457233357038433
Hf 11.47355481742343 6.8069381769763355 12.92875351669008
Hf 10.79737356126472 10.564638143423837 15.810688452267906
Hf 12.727685440829598 14.123183219976909 10.657166919637012
Hf 15.246063577069737 14.962357746044827 9.197689940304185
Hf 9.617801953184857 8.007950644272189 14.791011639503283
Hf 10.894641628632757 13.489333341516616 15.313402930640645
Hf 13.615525916480465 16.77050849989196 10.845245174999821
Hf 10.567548930526698 9.686151931778355 12.804791779608351
Hf 11.143551662917579 15.573197092953173 12.824425404141929
Hf 9.040784210332587 7.397151101617483 11.946320399070306
Hf 12.926784239453387 15.667452316366946 8.156904002407217
Hf 8.52070197818872 11.665518143014513 14.681083014395414
Hf 13.413626947164259 12.689049116371073 8.099473107336651
Hf 10.97231271947411 16.43569670095319 9.916921418800374
Hf 11.389176333036335 11.392214417508807 10.162269664269223
Hf 10.640888453931112 12.659472342372778 12.61483736987479
Hf 11.370406644352837 8.228439106602977 10.234739770345769
Hf 8.570689408162194 14.294368608751348 13.595684159568146
Hf 7.6045078132746635 9.43939028275431 13.073316911964755
Hf 10.749154696442314 13.806554073082419 8.228741993597394
Hf 10.773178855427023 10.61940892732688 7.889234661118822
Hf 8.810605240673471 9.632257525213502 10.192391652948231
Hf 7.754282016896152 12.056517139108353 11.85861159858241
Hf 9.115574698250068 14.509391164733735 10.75911872916455
Hf 8.625978290308527 12.223547283206987 9.135253041849774
