39
Energy = -336.28250118 eV
Hf 16.31089695636542 8.559190357722334 9.759094272078563
Hf 15.363206409621753 8.824478871379045 12.600717375614133
Hf 16.595253141869296 10.964118745239029 10.924360713507523
Hf 16.19619565524324 11.438082588550408 13.823698234327454
Hf 16.788359414706505 13.817822758595959 12.041571108905794
Hf 17.188831298084224 13.855545466721845 14.885981260824835
Hf 16.37716494830001 16.250925978095157 13.693303535170145
Hf 14.495176923168852 10.8552164436924 8.757947834960532
Hf 13.697691403661436 8.737871785111622 10.344473262403419
Hf 15.084050148860973 13.559828249597789 9.673056576626855
Hf 14.031856796681806 10.069138739107059 15.210065954360942
Hf 13.918543243923706 11.481013712587933 11.743649971992129
Hf 15.340529419707334 15.497363510910969 16.174021064532027
Hf 14.703067273292328 16.03868025223288 11.436478035215185
Hf 14.898086811802415 12.607196858397803 16.382994913580795
Hf 14.369205732829714 14.057384845050285 13.759421914192874
Hf 12.269612799737237 9.247538317012056 12.684148015893793
Hf 12.466983901999788 13.137887739947091 8.278057135671826
Hf 11.624170857826135 10.663330727184034 10.015526486016864
Hf 13.592665597419622 16.85073852220134 14.103452084695423
Hf 12.183506746036374 13.951146689600334 11.084727057354883
Hf 8.5941945718533 10.200168782539077 10.755992081440038
Hf 13.339616591760654 15.779684487116718 9.020199602588008
Hf 12.08253826904706 12.196175962915055 14.48125895275332
Hf 12.682451937233099 14.568490755258845 16.27884214691045
Hf 10.658308363170228 15.399738456561472 9.004046539493194
Hf 10.060571478611084 11.926232207176561 12.414183512843088
Hf 12.01749543076797 11.595626947415049 17.13929325643977
Hf 11.832728105168723 16.80568415784073 11.364071406418345
Hf 9.699189335929262 12.744518342580879 9.527531276703765
Hf 11.382421419960087 9.34390712724724 15.390513349829956
Hf 9.41996299716729 9.090154043095772 13.388840951306383
Hf 11.15386534833514 15.080625780328164 13.827221777973236
Hf 9.375207817255843 14.939105949548901 11.55816545576275
Hf 10.096597590773229 13.698923368101532 16.25008320187419
Hf 8.263000088791628 13.596605167651125 14.103127059920348
Hf 7.431025565845728 12.811001617484518 11.316336956511819
Hf 7.389893418167034 10.932589965771763 13.302989096496203
Hf 9.18783817224936 11.118781606221422 15.56811656147522
