36
Energy = -310.69479118 eV
Hf 16.507016492406976 11.736441544734799 11.2124483890728
Hf 15.515359035179578 14.158769056100594 11.892299563944324
Hf 15.255447990849852 10.170368237346088 9.348877243860267
Hf 15.488005968949206 9.160020894655386 12.122852248189758
Hf 15.156548580256965 13.114358764326582 9.039529758623244
Hf 15.055882599861583 11.694319757538707 13.854536113508251
Hf 13.137195419936551 13.801060526544049 14.709646121276329
Hf 14.376982807588425 8.94884088860529 14.842380302600468
Hf 13.8592538690885 16.055723786809914 13.087074172962662
Hf 13.827369264326508 15.688938234132793 10.142361542229338
Hf 13.582922919040989 12.108463041461363 11.01169842947698
Hf 13.383812952653797 7.228647932202573 12.819093953641923
Hf 11.799545689296322 13.42197998785898 8.885069747258592
Hf 11.679081069135293 14.461222841306835 11.758331089798435
Hf 12.722470289109532 11.097640018042464 15.805189743636479
Hf 13.194082107914921 8.441397488297815 10.154340625355585
Hf 12.593116288362678 10.735458108699767 8.280695658731123
Hf 11.48651747794327 8.413065301732635 14.790558773165401
Hf 12.73629200295692 9.973368577789103 12.75712128302786
Hf 12.007631774171317 17.44320161732518 11.693079499887318
Hf 10.666021039573284 8.747266463417661 8.985557052383635
Hf 10.99514727170063 16.096056428081344 9.410778904819088
Hf 10.775849527472458 11.204842370164231 10.733021995972187
Hf 10.734022822010072 7.816552178556291 11.763953037118288
Hf 9.970495285706274 10.480523752282952 16.044235678899057
Hf 10.772457105733194 11.923280192143755 13.573655780932711
Hf 9.117860638685755 13.97782714895472 10.201308681121306
Hf 10.366100669422607 13.402436061160413 15.842578981387677
Hf 8.08050030072474 11.8944391124404 14.717707423201368
Hf 11.171631272684463 15.951127858359916 14.171724973612315
Hf 8.477709003114917 9.40128730224981 10.490598493368326
Hf 9.44660995044723 16.445381275414324 11.725262164642471
Hf 9.526950171533096 11.378183125039149 8.401267767412937
Hf 8.894157468162037 9.47519016683415 13.411175196717004
Hf 8.761895142930115 14.23768148083191 13.240893043435452
Hf 7.910687352003158 11.803799780557378 11.870700625804638
