35
Energy = -301.52309371 eV
Hf 16.583016391926673 12.747115135036854 12.602323464724302
Hf 17.105924391496384 10.087965606839163 11.869418449511867
Hf 15.429475101414555 10.668960753723589 14.250747018711587
Hf 16.344253685549333 11.982976679117458 9.709295349138495
Hf 14.727248597295956 14.245908792697474 11.066139505572018
Hf 14.055387810751554 13.277356386892649 13.757372906129932
Hf 12.181926849237959 11.76352548177881 15.307134955558512
Hf 14.907892460642495 8.335099231909405 12.491399769848313
Hf 14.33611967275871 11.143225721385981 11.590612006578828
Hf 15.561017686914633 9.055963476355227 9.863188343442491
Hf 11.369102152412461 14.577357231708094 15.315418457854639
Hf 9.703709847973888 15.787816601646062 13.187842386958149
Hf 14.376467272620467 13.664243358468621 8.359991569319213
Hf 12.700765874245015 9.651158198277356 13.60605357314414
Hf 11.726010854934874 14.932182635743912 8.998966394416447
Hf 12.1610753968721 12.383191719927781 9.964489667515268
Hf 9.72248075617151 12.327045860597602 16.39446010220057
Hf 14.065817975535873 10.768765924154533 8.151183066034237
Hf 12.00574591867655 14.461279854712132 12.213031690990949
Hf 9.891184317033812 12.841308547280686 13.541703301819444
Hf 12.225341922497782 12.726359939179195 7.05630640978455
Hf 8.407320125561222 14.553834704405409 15.421936678571319
Hf 12.675459427217158 8.863946557170925 10.442272512488161
Hf 9.477087466825054 13.885806487399691 10.788012195225877
Hf 10.591075746316495 10.59764017019801 11.71675413163457
Hf 10.753913789313215 7.864256638710817 12.608749035378477
Hf 9.950047404736306 9.90367784116286 14.713427838680438
Hf 7.3280970951357665 14.299415582099387 12.892873388945729
Hf 7.43560626193066 11.76464065815391 14.53646228638465
Hf 9.760345893774286 12.913122643404463 8.122579874574749
Hf 11.026787054243771 10.2350553521443 8.153479426165458
Hf 7.319495549446304 11.914857153444505 11.643914326742832
Hf 9.794453574886855 8.262028194621385 10.0545404151922
Hf 8.139376932698672 9.278975556597365 12.304604653945892
Hf 8.547809522099303 10.67238272562769 9.542289379461051
