35
Energy = -301.35246852 eV
Hf 12.476728630688578 9.244052548619145 7.160970802238082
Hf 13.89246303725538 11.672098793561144 7.232164582315644
Hf 14.863648388369734 9.266527379740443 8.827466646095155
Hf 11.125561862364968 11.626867144909829 7.124778327170599
Hf 15.101406560913498 13.036074707104333 9.394730202043883
Hf 12.427317459759031 13.791576886377081 8.64088068636448
Hf 12.36168479398541 7.775999912920355 9.443852500133175
Hf 10.032284553557218 9.482496767864436 8.837623477559992
Hf 12.594420035132838 10.790477950409036 9.72763885951453
Hf 13.970703675015123 8.502270425863118 11.509424103024754
Hf 9.70572837587649 12.310868426005639 9.468657478943884
Hf 13.064444113889149 13.328324352249712 11.693270222051279
Hf 16.03766232235357 13.720189973480108 11.953300604658052
Hf 14.158893880321779 15.539261672683233 10.733111709917466
Hf 10.887848642660098 8.886511648579695 11.648054089978197
Hf 15.628548654912926 10.864042269958345 11.301355051793005
Hf 10.521746581779592 14.800152031744574 10.72672175034635
Hf 13.384162438340953 10.750739794513192 13.083887583226877
Hf 12.053255991702216 16.148150448802525 12.708066114940495
Hf 8.208407248732604 10.56146251185422 11.355606101134699
Hf 15.323771900886223 12.402891762474876 14.325822962510497
Hf 14.451341246428662 15.269337681140245 13.796935786468472
Hf 12.09545250109343 13.157327079356808 14.570679661601165
Hf 8.121815835020376 13.43165844885762 11.557372058499334
Hf 10.494449420561095 11.802789783748441 12.432358619245315
Hf 9.114403567223981 9.577010698142397 13.88137663428421
Hf 11.758134297886517 9.104113488644527 14.516911506918353
Hf 9.613948702022517 14.929930023322 13.492829632179925
Hf 13.390493762894533 11.092382029007833 16.19821721278399
Hf 11.941716476842773 15.694342232045797 15.698616424099342
Hf 8.204468972694372 12.260392686881904 14.166347665290015
Hf 14.275117366284356 13.960994922987242 16.400503477706568
Hf 9.566474951210797 13.955240894306359 16.092037832030616
Hf 10.335661872746863 11.09922438622661 16.067265255971883
Hf 11.833903229998963 13.223952491944464 17.424570685795505
