36
Energy = -308.86315765 eV
Hf 13.157075404878077 10.72996288599703 11.85099769018267
Hf 12.884073133655757 7.60502768587008 12.205400986935125
Hf 12.86333509791396 12.626281771955545 14.287200483323382
Hf 13.6611194285231 11.74663877171712 8.90585571594497
Hf 13.712767978320661 8.717922236822417 9.817503144619291
Hf 15.865271204121317 10.47601889461951 10.11756001733614
Hf 14.122857880630251 13.241477113787202 16.878977712740866
Hf 16.593812601971315 14.857815990874888 12.002707082971948
Hf 10.909810728144473 7.689848176034895 10.13364595380912
Hf 16.05474976635409 13.401896015988532 9.594164732616784
Hf 10.523323745387856 9.252027792129462 12.56393856544511
Hf 10.363880964983345 10.98757479307926 15.05078160254623
Hf 13.653312008833378 14.618788236035432 8.46434242172689
Hf 11.22601120866838 13.361237826511292 16.508268861180618
Hf 15.136781862994727 16.206395947252638 10.103672362897074
Hf 11.18112981723793 13.633066470271757 9.395360682045972
Hf 10.987199867386263 10.527572510578935 9.738196883619205
Hf 13.750935199725358 13.832258471961572 11.356017793487322
Hf 8.383373385400365 12.52736041731452 9.811734406788949
Hf 8.472476398172814 9.745503272964877 10.701945567841172
Hf 6.050398568359749 11.221584633671972 11.01410298874838
Hf 14.168677718743398 16.29774599533502 12.876415792078795
Hf 12.24950433803797 16.17337420831894 10.49071680801265
Hf 15.342728972146665 9.05259942870614 12.588600145991972
Hf 9.343791970244638 14.908949361578555 11.184063064321212
Hf 15.985016156896949 12.01864196402001 12.399127406929738
Hf 10.391220988117988 12.280396591642907 12.040461584224595
Hf 7.11521220700094 13.469422763211252 12.168114213686922
Hf 7.883081137531089 10.997462617849997 13.265733192349149
Hf 15.487738961417447 14.104297211465424 14.50668538091815
Hf 11.43674866627794 14.969323753136218 13.17008932993611
Hf 12.713258393117618 10.936891017897265 16.760221078081017
Hf 9.01980284186854 13.466499773764511 14.31427304847526
Hf 12.91409999138237 9.24136340608059 14.50908200852341
Hf 15.19478513033856 11.006643182999241 15.118156117854268
Hf 13.083844539927588 15.406750434421348 15.509412435569656
