37
Energy = -319.78507834 eV
Hf 12.465322384593792 8.046923314768476 10.519821887781681
Hf 10.975671343205809 10.835258103343989 9.650093920727981
Hf 12.932025257851247 15.731066523946605 10.364997906624138
Hf 7.858175866515442 8.656326322446894 12.109881922678207
Hf 11.33410119755513 11.270629954875538 6.796172204190792
Hf 13.756205474915104 11.066701236425299 8.5454470418993
Hf 14.916612680221048 9.271192683437892 10.58697975313558
Hf 7.603994913112069 10.464619106256935 9.978466746430035
Hf 15.613942530291427 14.8632270409976 11.14235098336583
Hf 9.086767412939901 9.75153950297369 7.587330340227233
Hf 9.030546866844743 12.558046915516378 8.277570103508983
Hf 11.528141778668646 9.763592543549933 15.102408620414252
Hf 11.736287428690558 8.68572369962131 7.8248173877044875
Hf 7.6984031228629854 13.096718421795705 10.854852525949251
Hf 12.870555638827739 10.571470137865052 12.395296550176472
Hf 11.231938982463184 14.940024149040767 15.386646966194208
Hf 11.981514422229498 12.246963986437953 16.41132457336758
Hf 13.981107998149952 13.919259773988884 15.61295577643813
Hf 7.031689150950699 11.276529145942737 13.028526867034083
Hf 11.01297952291545 15.911584943857113 12.628214554778097
Hf 15.48505322849347 13.088859937934437 13.337144053875795
Hf 15.880994748271306 10.352762616900929 12.877909093920408
Hf 13.362833411927063 12.961575988514786 10.898656758862174
Hf 13.79685486649186 8.338932805816096 13.33404150605267
Hf 9.456049437704982 12.06192335917286 15.238667638527751
Hf 13.734966670676632 15.58051048854837 13.29223841275792
Hf 8.993446374891315 13.95826615650309 13.27426159863888
Hf 9.671832867832933 11.120059274103562 12.307799598946183
Hf 14.230922733705308 10.993267400841473 15.148740637054546
Hf 11.914034316856158 13.119753460800403 13.534334466788346
Hf 14.725571555670815 13.927820036652763 8.655621903885645
Hf 11.916611795035594 13.566011559079053 8.33843952358661
Hf 9.684210440126327 8.140237280577228 9.914516607318715
Hf 10.687875778823512 8.109759742833356 12.810961603437434
Hf 10.369710121223065 13.970275345059378 10.668068319248999
Hf 8.740866286999209 9.405296364819659 14.535866209965688
Hf 16.051363571341177 12.002513902837519 10.445397441401031
