37
Energy = -319.93533297 eV
Hf 12.121235790014238 7.161307026931939 13.56962653601861
Hf 14.217035182918767 9.111129690515511 12.862054991701537
Hf 11.919565526298543 9.892799596616774 14.652055429019613
Hf 12.936824633259457 7.032112862878796 10.799100572903196
Hf 9.40882481547392 8.535871655414336 13.779854044672382
Hf 10.139765318519396 6.623484043051117 11.65773576803476
Hf 14.255078164014808 11.59478755113705 15.10630786736538
Hf 16.07839279167154 11.501620066695414 12.844387615420564
Hf 11.41652271043086 9.204629888704824 11.6463755083981
Hf 12.967341659705397 9.713627505799458 9.13457980595428
Hf 13.4065699023086 11.748205895136882 11.929787384433633
Hf 9.376959291898801 11.40354267315676 15.189086596959465
Hf 10.693165705409413 7.88798568194386 9.168998644200245
Hf 8.420330234234704 8.998544947742893 10.941852205813616
Hf 11.75209864617797 11.982054723433759 16.618865491580628
Hf 14.761734870598021 14.062688073905774 13.497461437467923
Hf 13.378096741652243 14.146156765512751 16.09686599746226
Hf 15.462793282556209 10.327320786857038 10.384788705480455
Hf 10.0090205814758 11.433105278465586 12.156999883268425
Hf 9.948546499921356 10.7392090190305 9.124769689935658
Hf 7.440738082990575 10.640200726229738 13.186664459770048
Hf 11.801789543162604 11.296849925927106 6.983389478648105
Hf 10.376921848331333 14.5210614156447 15.81738019968846
Hf 11.70509879677941 13.176315121425548 13.880288868089892
Hf 15.594657527086841 13.248645264419661 10.64376041034564
Hf 14.546482944375073 12.07236201532877 8.065346726068107
Hf 12.518559948477273 15.991940040412677 14.289949625110062
Hf 12.133924390076709 12.802366781591193 9.465126760123619
Hf 7.717058119099251 11.966217556516847 10.670569821609407
Hf 8.312990329197413 13.422862437931492 13.377970627496786
Hf 9.896982403824904 13.382308717706774 7.700661617107227
Hf 12.670437172710272 15.001752580160716 11.552185730471795
Hf 9.69138425388912 14.055841202719153 10.721539519443972
Hf 10.145438369406724 15.698467122998348 13.046668312359216
Hf 12.610443539199293 14.0004240463729 6.8147550254562805
Hf 14.10364369891453 14.9680292328076 8.91271479401116
Hf 11.349092143379549 15.575773748529542 8.88166058261224
