38
Energy = -326.98614144 eV
Hf 16.062933983735654 9.86541882477485 15.175263788188143
Hf 15.512117443885446 8.982068070306124 12.238528842322689
Hf 14.929483618411162 11.567458563756782 13.467078315191948
Hf 16.479793110635228 11.738148786145185 10.952450219050682
Hf 17.167195076723445 13.580157328909896 13.444109490066673
Hf 13.772613882313227 8.373818069222379 14.248049670216167
Hf 14.450164309562386 10.087782184162997 9.927476780230782
Hf 13.30885365802342 10.43024154941632 16.167026022905343
Hf 16.770104395074128 16.39228766208775 12.844229437612986
Hf 16.35923117185333 14.594835728301891 10.589232583848721
Hf 15.043922656852565 12.924692784085927 15.884841839106988
Hf 12.632377821185651 10.633569833856585 12.425454649598132
Hf 12.54799334407173 8.222772609562702 11.494634128494145
Hf 14.99827169393082 12.644557579578093 8.581709153219903
Hf 12.484740985719553 12.998387939055851 17.457819307442907
Hf 14.459479575518497 14.707985753521292 13.268803584200354
Hf 16.181903875568388 15.595571231467948 15.466074392305016
Hf 11.091231506425258 9.205739209962221 14.389110057308924
Hf 10.418151564805406 11.41158194677457 16.54299894629666
Hf 12.299161833998598 12.827965534656533 14.577727548642256
Hf 13.631895545008808 13.072834337832514 10.892820521774933
Hf 11.829135336297009 10.709629619141781 9.494409392144025
Hf 9.856328962612467 9.959551110135154 11.591971974763437
Hf 14.536917423876 16.909090944134945 11.218064962959957
Hf 10.842031102940693 13.113655351221352 11.750219135155303
Hf 13.983839639290068 15.309310970128484 8.987084039830595
Hf 13.257403038534832 15.40532646495845 15.952311950240826
Hf 9.54856578633842 11.641816875544013 13.990019719080422
Hf 14.386187339420585 17.436291607343225 14.11854071321039
Hf 11.810712745501394 15.84458069460881 10.774558364562768
Hf 11.522958503224315 13.750739265564611 8.806477176885192
Hf 10.253455329855688 14.346021401393969 15.960189188109272
Hf 9.311823994936049 11.95176438469423 9.487793103785366
Hf 9.050228539145923 14.649612834284534 10.310138342714271
Hf 11.690364832845733 15.913995039375571 13.673118959622085
Hf 7.912626614291362 12.530816428777928 11.92407352148568
Hf 7.728365023453442 13.009812812462425 15.399284168021552
Hf 8.935997711882266 14.739633209923866 13.421186240468684
