39
Energy = -334.84190305 eV
Hf 13.201833690154901 15.91680432875378 16.01190352021723
Hf 10.635597975923197 14.45073217130924 15.916069627419843
Hf 8.822980071595067 15.309817327229094 13.778781092732332
Hf 11.479361102233636 16.497641078915354 13.788300602625679
Hf 13.163635913216035 13.258117193512787 17.034161725196032
Hf 9.788791784566993 16.36439417841542 11.386225196488768
Hf 14.561918419349803 16.303405460452197 13.387582935730501
Hf 15.515168381074721 14.216483062528845 15.448959451780807
Hf 8.167872140707413 13.911924670949752 11.33994595235514
Hf 8.886750379415508 12.514804325469537 14.13632433883884
Hf 12.902936634887313 13.67755606517929 14.273212690478214
Hf 8.429202583900837 12.96209814871506 7.984715031680965
Hf 12.753318247083941 15.827340568265948 11.079064298533693
Hf 11.140302948994131 11.549231291111118 15.710182867199197
Hf 10.836765881779765 13.756867719097738 12.263470620790274
Hf 10.593657817932606 14.483107352878553 9.401705842448537
Hf 14.51811019827145 11.283325708039708 15.020313151199133
Hf 15.655348866825971 15.615524880087603 10.617834914041
Hf 16.99853846506246 14.891113953937998 12.954422386038466
Hf 13.68321714277681 13.937107911687104 9.086797240756164
Hf 11.188104164304287 12.545463035331183 7.540739472053036
Hf 14.565896542341216 13.344709737877915 12.011349645880564
Hf 16.91800979927367 12.260296024594094 13.739796327588643
Hf 12.33240654068055 11.795887236858905 10.497280766805432
Hf 9.488125307602116 11.681252557794828 10.130841059721545
Hf 12.414352191154643 10.549111886629209 13.170188158469482
Hf 9.493194394194063 10.054704035297389 12.672773478246413
Hf 12.797374585954223 9.265082908392326 16.05769858161744
Hf 17.102623882806345 12.908932046452167 10.929721603828318
Hf 10.133752145152826 8.856287712890296 15.215261100931222
Hf 14.980111300219704 11.360773825335299 9.47953651141253
Hf 12.429644670960018 10.075981023421344 8.168529179807226
Hf 9.509472454667652 10.289821010386868 7.661881608322337
Hf 12.162692606160952 6.736030365877611 15.28932999621765
Hf 13.54782842092541 9.02218936352073 10.75624800001652
Hf 15.700590947750204 10.440677180847567 12.019941183108573
Hf 10.742183593816852 9.073395651811232 10.271976077997302
Hf 11.44241418334806 7.819577902765407 12.900886961398434
Hf 14.293001134888852 8.377649891946524 13.82077798085746
