31
Energy = -265.88931419 eV
Hf 12.661816979201479 8.755117050006863 14.30453325840885
Hf 10.752681896680373 10.544843157188797 15.501448501305187
Hf 13.505844201166907 7.838970180922437 11.792691920576333
Hf 9.758161551737663 8.110924666878132 14.68366294426542
Hf 12.807020448672569 11.824564829638792 14.06113556234772
Hf 10.913875803855793 7.07824870715502 12.259124230529402
Hf 12.606258601915833 7.401288600440527 9.124717017814774
Hf 14.617987637544967 10.396455209336729 12.206013158182381
Hf 10.751736768102651 10.042733466951278 12.583105240705247
Hf 15.059177058507276 8.837460422200376 9.855280347357763
Hf 9.82447925785566 12.908549034146755 14.281683443631284
Hf 8.190448935748849 10.507285656247364 14.029506840594934
Hf 8.343424913600147 8.23784998894669 12.290771790972045
Hf 12.479805088694249 10.355339043049284 9.89334767008546
Hf 13.678317212070782 13.071320497071921 11.60207389473587
Hf 9.929837905448782 8.561833170280831 9.890364020086489
Hf 13.975564718471624 9.380549359212043 7.401981556788607
Hf 12.137334006674541 14.546306236710526 13.434844137747154
Hf 14.920756538352455 11.620365067192882 9.15438260232993
Hf 11.20929374088163 9.156801654285717 7.399974616469896
Hf 8.127873079786154 10.835855461992622 11.096979215043435
Hf 10.400582595365249 13.088347348020623 11.1883834822875
Hf 9.634526834889497 15.407895437830852 12.94509630809161
Hf 12.869630399715335 13.642978693229695 9.114714684951693
Hf 12.37780975578518 11.731158387001605 7.184302188976245
Hf 7.638036054336484 13.439631223047478 12.309743051338868
Hf 9.78864142506377 11.32279622264573 8.559730183885629
Hf 11.582128672269553 15.654190703892112 10.753618130951406
Hf 7.813115692671315 13.161505262703226 9.446232739824422
Hf 10.232549800023781 14.238121330603912 8.390098786149133
Hf 8.649827426849393 15.536274612855848 10.427282075714489
