32
Energy = -275.30197616 eV
Hf 7.11783389421436 10.391611980918215 12.560851975010937
Hf 9.76456865889401 7.514870381150204 9.600431474540667
Hf 7.458180846811218 9.245937129553287 9.867974030549506
Hf 8.018642181719176 7.666452833355965 12.048092243381355
Hf 7.06397983418354 13.302813534496748 12.80348984942936
Hf 7.491988323973887 12.177417264252872 10.094582517857544
Hf 8.426366975481022 11.885546703741106 14.734508841202663
Hf 12.595593862680298 8.177208471115344 10.538609934295563
Hf 10.012226676695153 9.654792617303574 11.358909139654191
Hf 9.636096869415734 10.345752797308377 8.377462579856461
Hf 10.695288784248053 7.064542046225407 12.390375089978455
Hf 11.286513012894774 11.849903961447533 14.63132692102881
Hf 8.672680907206322 14.791142309019355 11.112478315593231
Hf 9.66480341899217 12.267579479106423 12.049620809755492
Hf 9.409672189668685 9.17262654161687 14.18377249076038
Hf 9.655208327048173 14.36024935623618 13.88339944617775
Hf 12.335930143252472 9.281713252069633 13.35929752695073
Hf 12.983856461571127 12.012100877068237 12.064163293552808
Hf 11.526165923538006 14.661784893102745 11.497055524491014
Hf 10.18718522386762 13.229488952232376 9.161051809133756
Hf 12.38480372954561 11.096183590873563 9.567415324826893
Hf 11.568661069762369 11.918995093142538 6.941015626514782
Hf 14.778900510543998 9.370578432619366 9.13220296520101
Hf 14.106900270599432 11.251854250947602 14.592489349745703
Hf 12.327290991176257 9.121581879163047 7.612051866964474
Hf 13.295890332042022 14.036771419871005 13.947016935577848
Hf 14.995584038693499 9.888349412156668 12.018098613433274
Hf 14.37985176346288 14.53581013983518 11.3123073517833
Hf 13.145833634335736 13.802112859274777 8.74996432293403
Hf 14.253055932933995 11.422747519506775 7.378613954919558
Hf 15.707478724567833 12.651614239262129 12.821108569843341
Hf 15.403780356746767 12.127978243185257 9.9631164231301
