33
Energy = -280.00717704 eV
Hf 16.112993175380243 11.475837917977003 11.370441831216702
Hf 14.278382831190275 13.174733503851245 9.476992900523731
Hf 17.029837769975643 12.800109706202509 13.777553543587997
Hf 12.47708283230817 15.334039064447227 10.862935142394374
Hf 15.116045518473694 14.091065825550933 12.191577569742945
Hf 15.190771693097702 14.382839205683632 15.079126540763841
Hf 13.223472319061756 15.829647787129575 13.552082905260821
Hf 14.833157434550374 10.499457606930937 8.738589559434546
Hf 12.628675535536338 11.923631862527216 7.266470540054657
Hf 12.261931645132805 14.05048454190249 15.46803406827901
Hf 13.43215069984361 10.626293763891312 11.194373812088697
Hf 12.12101971500831 14.63388438139302 8.19566531838495
Hf 11.19566030673019 12.216030060043474 9.758513297866743
Hf 14.44603239972266 11.770409111880879 13.979648979871762
Hf 10.451763350316739 15.26118943207034 13.244588157510318
Hf 12.108127551644799 13.062636858614987 12.682914254434348
Hf 13.450845768813428 9.073985855032918 13.704879302703104
Hf 12.16209416847823 9.329336820497113 8.754396035210041
Hf 11.791058554139614 10.866415336549801 15.39295347663243
Hf 9.724465252315442 14.71355626118577 10.019711439358764
Hf 9.978734773369727 10.638253969905836 7.504417159931853
Hf 9.828223415007866 13.401277792956588 7.4096057978474255
Hf 10.83975371381321 10.307888625846012 12.56805772479778
Hf 9.81909657661002 12.999648862915894 14.832427552363646
Hf 9.092873219415234 12.624553477260624 12.152166755476854
Hf 12.094110788453072 7.922925577566927 11.529826903261771
Hf 8.278091886354643 12.070614679145114 9.388821230183213
Hf 10.852781647256501 8.080501936327863 14.403381426591093
Hf 9.480368391817699 9.42917860599407 9.989272249733066
Hf 8.997689057622699 10.251225872037942 14.92205077730415
Hf 7.7401840795118195 9.870232078008412 12.226015756094062
Hf 9.29424349615399 7.516205367615708 12.050139141015496
Hf 7.79040641480787 7.819769130829131 14.34893709032403
