32
Energy = -273.89822032 eV
Hf 9.230664553581178 9.92275310135881 14.166320586748489
Hf 11.311519765837302 8.007182106581894 13.535302493453242
Hf 8.495519325204452 12.66955278130903 14.21020052278658
Hf 8.137430520525577 11.438676375124146 11.638996025081596
Hf 10.7170933135677 12.219020029090684 15.97259059810837
Hf 9.643305835097514 8.763714119726489 11.335525862069304
Hf 8.143444699910987 14.38426580828587 12.072296273744316
Hf 11.59238583042209 9.344504762146343 15.91156449488247
Hf 11.911767424054004 10.97288552081613 13.642507098147965
Hf 9.204932623461762 13.350962959980567 9.477365106814549
Hf 11.717736462844337 10.750390761003988 10.69992053372035
Hf 9.193600610844648 10.567861552496353 9.137048612173947
Hf 10.317245436981374 14.800623539913685 14.341367091877535
Hf 10.174206806427714 15.841456797158987 10.552027027729894
Hf 13.508665980729832 11.35150249987544 16.076049796597346
Hf 10.60979602359335 13.144731541979095 12.014158949786527
Hf 14.012939934771051 9.09132205332637 14.141168638122021
Hf 13.083139459051722 13.852128322571073 14.874032475416982
Hf 12.957678061489256 8.149137134410697 11.290782034063769
Hf 11.827897463728826 11.52534443904653 7.971427473247056
Hf 12.646098840720388 15.498505750461506 12.338718593142014
Hf 11.255720004208177 8.738910510393527 8.804071067019363
Hf 13.702361500235568 12.702971768684293 11.904913169207203
Hf 12.656912837132781 16.966699350266154 9.935631388146458
Hf 12.23685361960118 14.215717531018877 9.489696794580622
Hf 15.4773518243707 11.76231513823363 14.033793616990813
Hf 13.863815957243256 9.613008381107178 9.005660957420258
Hf 15.25687945479422 10.146188666313108 11.445946727486351
Hf 15.372411009847035 14.67434196849234 13.237514823709482
Hf 14.895269504164593 14.961787407998337 10.442864962185835
Hf 14.726120736762653 12.263995697473161 9.175356173349623
Hf 16.498857103277007 12.699111967337004 11.477650417715742
