37
Energy = -318.79726582 eV
Hf 8.6219208732883 11.84536238318446 11.0009793526624
Hf 8.997367620524582 11.34013495413252 14.365286896030856
Hf 9.830395894097272 9.99326304680501 9.065461128072688
Hf 10.352957018427556 9.720178371561053 11.918312980290146
Hf 8.651374423341704 12.80601832012574 16.8682402137196
Hf 9.518337491116062 12.664865800617251 8.260629105082113
Hf 10.321542584071901 10.482122411481567 16.97409284193267
Hf 8.9277134922707 14.369086896869518 14.45757304457346
Hf 9.564749655263533 14.42586331384519 10.468950190844275
Hf 12.78756088116898 8.247275661512703 12.411769590224601
Hf 12.5023215701522 9.121450249868003 9.728247383438037
Hf 12.036727268425558 10.198376641389936 14.51255763011376
Hf 10.818886824663469 13.037718670473302 12.725286784869146
Hf 11.162084412808849 12.858318237339793 18.418557458194307
Hf 11.467779218507788 12.001372384283018 10.239375860624762
Hf 12.144145053837956 11.543972467828096 7.57954335832871
Hf 11.2191567092097 12.867851108797145 15.576304165580636
Hf 10.323348132657117 15.178658372743831 16.987517667683527
Hf 13.465959951682676 14.022687063616806 13.637590275855855
Hf 13.08943123750791 11.189033777173762 17.17648534605376
Hf 11.771064964504877 14.51647895141978 8.449673342031616
Hf 11.943354154065906 15.742280417569562 11.280436913540331
Hf 11.594161187653617 15.740315605239843 14.526846990277155
Hf 14.784286713590067 9.17183824064944 14.079805232731768
Hf 13.949067435309553 13.685319772131677 10.710001894862648
Hf 13.789897924669614 11.054857467704167 12.13390999532477
Hf 13.258879623736982 14.304184373558602 16.76485015605423
Hf 14.565543819439554 10.699790444694145 8.856658890203056
Hf 15.381458090703251 8.983884569837338 11.124209827164744
Hf 14.775671946461445 11.938805784653088 15.015409861791445
Hf 14.036739855252643 16.11184041615512 9.2629808793936
Hf 14.732225263514366 16.18615542659004 12.046158325568241
Hf 14.705430963198328 13.45172543371033 8.039462914956696
Hf 16.674046681002782 10.88617520283673 12.99452521199521
Hf 16.485694829660588 11.96131146220151 10.331102799939979
Hf 16.22699712839054 13.713267535496371 12.765888279223415
Hf 16.47341718365889 14.892032855803397 10.120928044327043
