31
Energy = -265.34523191 eV
Hf 14.753806262355043 12.581815084582342 10.352276430555158
Hf 14.81524740739318 10.09078020658578 8.839083844375985
Hf 14.602701841535536 12.191515145885871 13.39210785533085
Hf 13.657553536868354 7.679679191295131 12.417258860967555
Hf 12.33952047804583 9.905776332341567 7.131324911427659
Hf 14.007154765800092 12.308484372894386 7.55728528173293
Hf 12.544160699336274 13.470117521569188 12.14971479466205
Hf 12.945058235319227 8.210138069198544 9.702192052672624
Hf 13.919406310572569 9.682085230257048 14.692279344368291
Hf 12.54687290521572 14.213610028577584 9.150450959150868
Hf 11.401252307322611 12.696837657252212 6.997385503574622
Hf 14.907834049263222 10.023728384621213 11.702361652213545
Hf 12.071234154432696 11.24927894562797 9.621721968577871
Hf 12.279235599903684 12.361968965182117 14.92132030697201
Hf 11.802243232423644 7.653899694311277 14.33915138451898
Hf 10.88641721355437 15.563076841809815 11.05795244550546
Hf 11.901168209299454 10.222340518403184 12.719539980711282
Hf 10.850936340178501 7.497579689107764 11.597693443249128
Hf 9.564534674177587 13.949279255739139 8.84719728317678
Hf 9.973047702734522 14.629065525316982 13.61293965191706
Hf 11.130475022616542 9.920477867030925 15.640951309944304
Hf 9.413682712058257 11.067832978303905 8.049249459500532
Hf 9.288013163369794 8.942302086206045 13.668788524129523
Hf 9.82912323512062 12.678457337322657 11.552772072646343
Hf 10.365279769354254 8.486603426110047 8.762339269189757
Hf 9.239316495154153 9.899661044967797 10.788452992103998
Hf 9.380720415211684 11.836865765514961 14.47461869340241
Hf 8.202124726780765 15.10227467603756 11.134547943283136
Hf 7.296009235343371 10.794029777708008 12.58802962736354
Hf 7.33366357701202 12.474996724779395 10.227553028393318
Hf 7.384870972422718 13.45601414133255 13.118389046489158
