35
Energy = -301.65964664 eV
Hf 12.384089215162989 15.161259001048442 14.054687648683421
Hf 13.73781224694582 14.408766790999694 11.670587095208198
Hf 9.930520498389017 13.656140339235437 14.600508087439003
Hf 12.395660712715934 13.40957454876372 16.129087787711246
Hf 14.687607643833035 13.371216656634353 14.25880192547337
Hf 10.767843803863437 14.457499666349833 11.755711958950203
Hf 16.021007835356347 12.58540253887694 11.16671989638592
Hf 11.823052643221256 14.337930081190402 8.969722691814896
Hf 14.792706634954277 14.138106735137649 9.003815172474344
Hf 8.112004726357592 11.048191282992976 14.66548970247921
Hf 12.173003907733257 12.221488482996014 13.372743882641998
Hf 8.97196112009117 14.326025712060694 9.578635847524122
Hf 13.42343899961558 11.797489451891117 10.150611306009143
Hf 13.747806891039783 11.014490752588905 15.659211543149585
Hf 8.287612149204898 13.098432680194046 12.142379046214405
Hf 10.832173407051538 11.069018660163058 15.869683290522188
Hf 14.663503753678945 10.641134834714713 12.96982550376668
Hf 13.310303784397995 12.431911408240838 7.237410826078418
Hf 9.932053667358916 10.3451564601337 12.523478436874024
Hf 12.419681968689384 8.957869799035098 14.148493849083048
Hf 6.831572315365517 10.780938959690841 12.113609354503073
Hf 7.537701677759256 11.908758255546063 9.486939067473546
Hf 10.45268221559987 11.71917805973988 9.818413679554178
Hf 15.803676866047336 11.608191033052611 8.37608608537575
Hf 9.677285951428848 12.771288425768859 7.30923322704232
Hf 15.610892801457833 9.752291693774223 10.459642980976849
Hf 9.80548411197648 8.574147068437417 14.959632134350702
Hf 7.777464105517461 8.476603408720477 13.210345257310403
Hf 12.815589627636957 9.087085547961433 11.326707024713293
Hf 11.372403492585015 10.429460510306638 7.1437588376658745
Hf 13.772753420642982 9.562456513428245 8.27444856700901
Hf 8.23080045398248 8.909047317541324 10.421508603461497
Hf 8.862833610427716 10.026530013336618 7.867420779830573
Hf 10.346898920595631 7.531721236150887 12.227289305630855
Hf 10.900359318601485 8.579449101957945 9.30070461710999
