34
Energy = -289.2069185 eV
Hf 13.347431373786154 17.042596372499833 12.636890570781125
Hf 14.340329637270857 15.456479107103176 10.36445165722112
Hf 11.641031478110834 16.61820229192598 10.404064473213
Hf 14.40165471403671 12.76884970776783 8.638708020538655
Hf 11.936003344864359 14.295503650095215 8.91681990850374
Hf 12.592667915109857 15.259162887044711 14.868927543893925
Hf 14.893196064104293 12.696197466641106 11.54304125237136
Hf 12.020929426764573 11.747955356138961 7.226503084806394
Hf 14.23883705168632 10.043161890094149 7.890585579740341
Hf 10.624741880729005 16.562401676133938 13.008160834467402
Hf 9.586527290875699 14.616885221919244 11.062665771793268
Hf 12.304188708655742 14.274384767739646 12.102874590730416
Hf 15.079346056368156 14.994570043846794 13.209378775233997
Hf 14.351081253222166 12.795908673190977 14.94092639261075
Hf 12.277134862972758 8.72190479647224 6.634749829519982
Hf 9.711062010244826 12.343010292332004 9.034447449996902
Hf 12.329067712397658 11.434254617721878 10.176986638122557
Hf 13.410411536754118 8.568331281039105 12.842841172294255
Hf 12.813735918481193 8.256573826249292 9.564227765845636
Hf 10.458803552517859 9.587483881901765 8.487246326857976
Hf 15.407650506856761 10.474010557321373 13.478805819884375
Hf 9.628656707592858 11.839088785543682 12.303336452091255
Hf 11.566675570143952 12.406111219456951 15.770157990735354
Hf 8.167508906444052 10.275414025493914 10.288175336283595
Hf 9.952064069699228 14.105029324688154 14.044167034539543
Hf 12.57134173575225 11.403041331967389 13.125399558567096
Hf 14.853652012794862 9.916956460757078 10.71285595963337
Hf 10.654047061666276 9.236837378832705 11.39610419911942
Hf 8.984975895908848 11.187173310913392 15.195143262094644
Hf 13.406976899012037 10.002512880349103 15.483342985321134
Hf 8.217042037252055 9.423106448656663 13.097883215167954
Hf 10.678848649175086 9.884603988946488 17.07375811197025
Hf 10.888681597018223 9.027955776792371 14.419211401853856
Hf 8.545714598069226 8.54403334991636 15.902271562784293
