31
Energy = -265.5250613 eV
Hf 14.921385085311414 11.134551521792142 14.032945143858631
Hf 15.464965620028181 13.662334820651397 12.362667071372844
Hf 13.262167874525172 15.205556043194186 11.212324884791663
Hf 13.883474917862763 13.989634896326589 14.671714660861278
Hf 12.211576696998515 16.402330602931226 13.778929023919979
Hf 9.400746587701875 15.666953046452921 14.028223771943916
Hf 15.996764435781643 11.192085672375057 11.221521823876435
Hf 10.504552864400187 15.92431817824207 11.413370091625524
Hf 13.276259988093395 11.847169102852517 12.05992507925973
Hf 14.640425505786157 13.100683516929287 9.645719733967589
Hf 11.363161706962241 14.535574607579498 15.843053949948063
Hf 12.137745146137286 11.721859014801687 15.326269011915583
Hf 11.340754236659631 13.79778382630837 13.069935802640902
Hf 11.065014831061733 13.356236126324244 10.045922204532307
Hf 14.645217082652668 10.260033255641718 8.718336594126166
Hf 12.07165628592878 10.372630803615662 9.906100849506446
Hf 9.22034966583055 12.88023552374582 14.984794065997065
Hf 12.619159378731096 12.281371647232556 7.746799994429557
Hf 12.4463073500724 9.230905255624904 13.843242365183542
Hf 14.339153861444384 8.867095059477082 11.565349087205073
Hf 9.794846790746348 9.98859615836116 14.873269949103625
Hf 10.481905494515749 11.066525958179568 12.229867027203435
Hf 8.559371477390497 13.710378988755089 11.891918676689217
Hf 11.67903895893519 7.741046223138899 11.583232287351654
Hf 13.007450226410258 7.773885160992325 9.17626719754915
Hf 9.028491521848034 8.690866990552754 12.260943400235366
Hf 12.056337575489609 9.57316759380683 7.198549097008821
Hf 7.786645219321708 11.138422172646939 13.162211294047205
Hf 9.97595763095454 8.563961956850319 9.283373423178407
Hf 9.995161873548817 11.319935998058735 8.110502358951734
Hf 8.285526917621782 10.880752226913568 10.39240616639178
