31
Energy = -261.18929567 eV
Hf 13.392570722326115 9.995821817619436 14.600481974208211
Hf 10.624466770618278 9.317526858435556 13.809591029575644
Hf 14.171848052597726 12.822558946340507 14.376700050696181
Hf 12.013916984278636 14.462285419159993 15.242905710271641
Hf 11.11832881006687 11.76284448444347 15.35811119956673
Hf 8.459069861905906 11.300787480768633 14.181882649550587
Hf 9.24416009179393 14.088968900065828 15.36168781836178
Hf 15.192609315924843 10.724946237835937 12.33813123053963
Hf 13.958037043504264 15.707650714100001 13.643001073665122
Hf 12.993673071214392 8.451935429954027 12.20210962754161
Hf 10.147566607353749 7.855072870058739 10.91323853461446
Hf 7.9570301203825275 8.804073044157382 12.596036889002743
Hf 10.848433884391238 16.296374050252382 13.58870276310864
Hf 12.36442172950428 11.559942512600454 12.458482545392878
Hf 10.100482184039878 13.483682179035695 12.916665610101257
Hf 9.691113234108464 15.63778330890284 11.013211803144424
Hf 9.491668360961118 10.78860821908436 11.442164910183093
Hf 7.962633155904271 13.112044682777519 10.84296634511367
Hf 15.1776082701168 13.602892162202554 11.729488294248375
Hf 11.849388061768815 10.285142254886438 9.8488175308943
Hf 12.548019016909386 7.601402777112478 9.280731459132658
Hf 16.206251427879234 11.527751495761533 9.679388953054591
Hf 7.894603527865194 9.138923839619844 9.702325112218999
Hf 14.777562376697617 9.116780387183226 10.080831047217195
Hf 12.416633432659497 14.643398300313452 11.766448380652518
Hf 10.622893570856055 13.28877599624609 9.72645503155272
Hf 8.940367591455601 11.450277515381746 8.428846985068503
Hf 13.689092389609698 12.300644674089881 9.567754136543506
Hf 10.359462092660623 8.931450787941118 7.933462879216438
Hf 11.518014998411335 11.724263685412431 7.341264673323235
Hf 13.609137719828944 9.84267606724214 7.6645643067765805
