30
Energy = -256.49088506 eV
Hf 13.636308225221677 10.81451248762807 8.804049079205736
Hf 11.029739547330397 9.339487073397434 8.61124977895403
Hf 11.179908444403697 12.21575674681074 7.914292883564321
Hf 15.091800992257873 9.67668735500338 10.924820993834032
Hf 13.671155294135902 13.646846408686548 8.550236842131733
Hf 8.303673109822025 10.849881463934148 8.026765130629027
Hf 13.303546491160633 8.067392193728187 9.799283039922257
Hf 10.901883453390175 7.425706296274148 10.980110737466434
Hf 8.605051432638552 8.44989872660959 9.624827142453682
Hf 9.528887386633388 11.349312495956463 10.478081190849093
Hf 12.398132558218977 12.61365147580401 10.995335829541382
Hf 15.275611417089456 12.518618600215682 10.837844133062893
Hf 8.814603661282428 13.673952695042159 8.51451923122197
Hf 11.179208327176287 14.898094388310204 9.610713715900367
Hf 13.802029122354854 15.16308549114848 10.88968872781026
Hf 6.840003101405079 12.72051181255852 9.99066755303834
Hf 6.780431364022916 10.12781838686578 10.639999347729887
Hf 13.729422750235894 7.770015993981993 12.648636545215291
Hf 8.77464111987598 9.012328848152999 12.46126431090534
Hf 8.886794558611694 14.296651495790837 11.349129831157597
Hf 12.055855724225617 9.9554172822355 12.196233959318286
Hf 10.995475232929323 7.677140184044153 13.808181712800566
Hf 11.603098442310792 15.160053726385442 12.569527004389343
Hf 14.067851878801568 13.65075224534876 13.236551766124045
Hf 14.740500217580161 10.78079075897426 13.464014994256333
Hf 7.61668037261176 11.85801859802354 12.722337543279329
Hf 10.31057340369066 12.62550666618723 13.161189806138685
Hf 12.893587813173221 9.222401846332373 15.049832219746904
Hf 10.202789769858116 10.226505927465398 14.762937548757709
Hf 12.444865818992461 11.981071587766436 14.796598228229316
