38
Energy = -328.36822785 eV
Hf 6.862338972841433 11.00311170318972 12.58531122063474
Hf 7.161069652035096 9.506160517779755 10.024807674713275
Hf 7.472557768978801 8.08739148940542 12.26791238254683
Hf 7.370981257764451 12.382978055369213 10.022973917013621
Hf 9.644528154636957 11.939587388414358 14.343815764645036
Hf 8.618714612309304 13.848431286271014 12.432994763121535
Hf 8.265931350137349 9.440565994901123 14.51831924220226
Hf 9.616206359509702 7.7756766505604284 10.256047435819289
Hf 8.610142412658407 14.88626659944484 9.781812155265966
Hf 9.483661064454692 10.183090760553561 11.839084903986855
Hf 9.076251952950939 13.011249322353747 7.685748555453994
Hf 9.39704916616502 10.217086790828834 8.475648554124962
Hf 10.119319174768888 7.500123367234099 13.24656610941519
Hf 12.237046447366474 12.022651419363346 15.515395296837092
Hf 10.939192837138654 14.781445057781534 14.419590109133031
Hf 12.07807045831988 13.019065447374443 12.715377366353234
Hf 10.323921531140384 12.542706281435484 10.24373023398951
Hf 10.79846156430264 15.605916579962198 11.403423263280326
Hf 10.981902502282455 9.384115979801559 15.506332205263694
Hf 11.235484411773065 14.79390584834127 8.459300188579752
Hf 13.166893352853558 15.887522233745699 12.929456496803661
Hf 12.73203350573296 7.322231459690264 14.34976577278336
Hf 12.348674183251582 9.915742100644524 12.928231007549869
Hf 11.830307164227795 11.923612571413987 7.613052597289392
Hf 13.951308460823531 14.028973025813 14.733728527209514
Hf 11.895949021805494 9.864707301131322 9.718539495674003
Hf 13.902345955211423 9.629747690086678 15.464148538396834
Hf 12.620776467144662 7.450829401253904 11.442711693227023
Hf 13.832084234452632 13.902907576097386 7.574253308645566
Hf 13.548162438284821 12.527557861994689 10.259527376499266
Hf 13.639136428458682 15.523521846791937 10.125228634879843
Hf 14.961186103363923 8.491814808812276 13.086561422139024
Hf 14.501270739481155 9.49189413827008 10.515951385635898
Hf 14.757396497389498 11.514773381682433 13.28943069396908
Hf 14.98743079298644 11.338403266256273 8.202293243885652
Hf 15.369275934625664 14.159972255611418 12.151156815693893
Hf 15.920765055451072 13.926224145480374 9.298508480206753
Hf 16.351498734270766 11.60897705340031 10.831622424278306
