37
Energy = -319.09107633 eV
Hf 11.348528239101931 12.191100194264065 17.63219739410017
Hf 12.891730956609475 14.561647634965361 16.57885445782205
Hf 10.090727705366815 13.909890396983434 15.851081624230515
Hf 14.109702912601987 11.850853425358034 17.395749359235797
Hf 9.514385755152349 10.977776356617285 15.665257547981964
Hf 12.258075750381211 9.68868675118069 16.31983238339263
Hf 8.59321996929295 12.99892167071575 13.584166480436775
Hf 15.390960116634032 13.324034471815905 15.332150473005658
Hf 12.60335292185516 12.200858260393531 15.05194848690714
Hf 14.09237006959531 15.213794215003139 13.680721140323277
Hf 8.264070998275608 10.170067388886089 13.051003013590519
Hf 10.367567886451408 8.583458995157718 14.09625398893865
Hf 11.46230782304738 13.891562253776293 12.845631094078412
Hf 10.820844756151704 11.158740926602581 12.93019550165741
Hf 11.216446151661291 16.136190233987005 14.43158320164285
Hf 15.028670926779624 10.52064190629879 14.999810796517435
Hf 9.59594118521325 15.238562042250743 11.224713377053574
Hf 8.996566305347109 12.189402905384679 10.834751498248249
Hf 13.072567639896606 9.32321534690813 13.376399395886867
Hf 10.227428349742937 9.137783772130335 10.975028704164359
Hf 13.99586106503619 12.260331713957065 12.608662788039393
Hf 12.240457384290814 16.428398013544673 11.794440655724722
Hf 12.693605468009501 10.630889025875348 10.407131633235933
Hf 9.26516905416613 14.06601618757886 8.631117703411302
Hf 11.745768826158738 13.241558720935895 9.866800999461384
Hf 16.351572449637434 13.245803842992306 12.398396258909752
Hf 13.110497783758097 7.887278994172626 10.846677984532576
Hf 15.349592306364073 9.804421499575298 11.624009427097914
Hf 10.199426341354073 11.206669469665487 8.267781798818781
Hf 14.412002917167136 14.841873156401 10.707345847312547
Hf 11.6967868683975 15.825402128554645 8.965939659439655
Hf 11.898033691708246 8.776527690744535 8.433796223556067
Hf 15.291304262735695 12.07233074153797 9.710923494288725
Hf 11.427558105180715 13.605534582192918 6.993944975664124
Hf 14.67747382066905 9.25949282533804 8.862102460837061
Hf 13.145609646301406 11.317677874605868 7.472863992794259
Hf 13.956253282621631 14.055611162082823 8.047301361852586
