41
Energy = -351.52836555 eV
Hf 17.25879480910725 10.818909698734254 13.69815817879369
Hf 15.176916701174575 12.237491270626656 15.03602651845634
Hf 17.58384633355188 13.67193240177069 14.49028384988445
Hf 16.00776526005449 14.083095925723256 17.11536479284307
Hf 13.372044183524617 12.748133565396568 17.343569085677128
Hf 15.59393651738949 8.17514307887017 12.138717738025797
Hf 14.371301558486973 10.497228334796866 12.464659350701304
Hf 13.13563349206191 10.098198264429445 15.42294798916165
Hf 18.41305126512842 12.633038001586065 11.751197376185416
Hf 17.195840191290035 10.260848364137383 11.009755449019545
Hf 13.032619916819655 8.126762455479138 10.912085606531932
Hf 13.50138580226684 15.497712488828991 17.034229699777022
Hf 11.002845527072212 11.506806132021444 16.616277593436305
Hf 15.779530455453616 13.229123658755315 12.356542022307435
Hf 12.57585063557121 8.09123794215683 13.563730691485164
Hf 12.454643507541622 13.361532903691224 14.397265870358314
Hf 15.013753557008885 15.190059698975638 14.659559885308823
Hf 10.227999661189283 9.349259038478307 14.796132507040276
Hf 14.837721305334346 9.711236389492155 9.522279431547426
Hf 10.906379813040054 14.324494916438287 16.72945963106237
Hf 9.477154107775032 12.52029869746768 14.51117087216497
Hf 16.054036769197836 12.422328658449821 9.54566681730278
Hf 13.201417814296837 12.650548543450396 10.799785795773081
Hf 11.517951677717855 10.891881363625709 12.856361190774955
Hf 10.30222385108818 8.626927695991926 11.704369706447022
Hf 12.185437761687963 16.312901459477388 14.64393859324206
Hf 8.413096295604293 10.40764437206299 12.866297230921965
Hf 11.869886395999773 10.300852135287316 9.471922768057428
Hf 9.52988628173862 15.458685207002683 14.295665586280718
Hf 13.69908487362607 11.972984196705777 7.991462401922849
Hf 13.203738862677485 15.404610855859724 12.035235573875767
Hf 10.559392180512221 13.957819014830061 11.953846089885094
Hf 7.718195091167335 13.101740312210659 12.09725623442151
Hf 13.991767019710961 14.602188071767348 8.958825100896213
Hf 11.27125044102038 13.199327299604946 8.65114174924028
Hf 9.348439391897562 11.418494946318058 10.414544492930297
Hf 10.543559084598058 17.01393140293378 12.08610998233825
Hf 7.862923710163401 15.9631281290391 11.968839331492568
Hf 11.446884729338983 15.84321089166158 9.648882587335748
Hf 8.613313548152814 14.370205718256427 9.733987520423273
Hf 8.88337099127366 17.2110455353905 9.714486442620583
