48
Energy = -418.06686216 eV
Hf 16.954437911370224 9.254197995931163 15.652392842955413
Hf 16.041295577137284 10.977110384128572 17.583824213405837
Hf 16.765959936965594 12.160327754943562 14.990343370826327
Hf 16.764853501291114 10.13418419109184 12.916699463797952
Hf 14.431918142236196 8.478066225790906 17.19490366502513
Hf 15.127145010590432 7.693748859219695 14.036371313640599
Hf 17.10242803421407 13.38468814291955 12.158383340162997
Hf 14.300547341551718 10.390616804835298 15.314247642148967
Hf 14.558189225205075 13.313303747377125 16.80461400582181
Hf 13.378814990672712 11.075413611854831 18.180150026469573
Hf 15.566315669903007 14.897164438470021 14.412649465177466
Hf 12.559145492012805 7.749061525633533 14.96961949629605
Hf 14.548864665453877 12.78456110439538 12.670735117948299
Hf 15.487918472449289 8.17445903764533 11.27355496783236
Hf 15.518410928264235 11.016686459549952 10.45779319927715
Hf 11.467917063225078 9.869195000076427 16.56669142778087
Hf 15.269309455310736 15.8191036137654 11.634205915730256
Hf 12.778144030217693 7.336549856261982 12.046871350306802
Hf 15.296744203770215 13.680637269914003 9.76243214118641
Hf 13.437145091968572 9.961418163991805 12.52293222579747
Hf 12.767905907462934 15.33645725574946 15.694722149848458
Hf 12.32082004209733 12.407507886445924 14.615980961167333
Hf 12.424537991949173 14.919107712226374 12.637584220834633
Hf 14.049651033397819 17.20820661017154 13.837068186330306
Hf 12.92554612489158 15.228297223398421 9.655826881361525
Hf 13.311745626050369 9.192128217512648 9.715102051960356
Hf 10.63964370566309 9.531942265841629 13.842363576028498
Hf 11.453930101912578 12.99831949397546 17.153532378725373
Hf 12.686900022516058 12.114215783376945 10.428385300636275
Hf 12.486176450297357 17.54200964573477 11.490169198245441
Hf 10.43112987584705 12.287371699289338 12.329324227287607
Hf 9.449293744421425 11.741920201813311 15.160394945420151
Hf 9.789578666983667 16.071211056790144 11.908980868009989
Hf 10.647280867068575 9.401900384247725 10.970641516712284
Hf 11.257016193378892 17.201548323378805 14.075174845016901
Hf 12.744265076333571 12.720165017404646 7.713080743201594
Hf 10.196943824320899 14.464453939596781 14.599030026799616
Hf 10.95008242772951 10.576702991057918 8.41074351821052
Hf 8.252043135806105 10.451085133248155 12.58069260276836
Hf 10.441259649182939 16.972745219067367 9.142741855936896
Hf 10.125451431194906 14.021420834873869 9.54415588452853
Hf 11.525822765589902 15.200892323381405 7.137687831959787
Hf 7.802271702154923 15.922361443596367 9.878352187749071
Hf 8.638946715270112 11.291047125522226 9.945839971876104
Hf 7.926679872170005 13.605449808328265 11.647856059973817
Hf 9.829034671019853 12.77722507294422 6.950496873898521
Hf 8.76664730306203 15.457905546089236 7.2962181967141415
Hf 7.3451884645895555 13.444683815025183 8.673647176337662
