41
Energy = -355.96823121 eV
Hf 15.309499705956641 9.32541304395184 13.92240719249197
Hf 16.189908699471143 8.938061495775477 11.037044660632441
Hf 13.743922062260514 7.768927070392902 11.756238775973811
Hf 17.10165190179873 11.328368538850844 12.380459719294102
Hf 15.811166273090159 12.281068898848796 14.918451500772445
Hf 13.58204282625862 10.703473382025155 16.014907553631556
Hf 12.324760474353313 9.108853600515998 13.91840007516655
Hf 17.227972754954013 14.185965120898594 13.267764545092257
Hf 13.550922566716954 13.51535227172169 16.318602826031167
Hf 13.86443769078175 9.400373992944292 9.131622335794978
Hf 13.960524805410536 10.555525666515887 11.735294971384919
Hf 16.225876646194237 11.371846627422043 9.47918658753667
Hf 11.378115467657961 9.163189356185445 10.780005182488255
Hf 14.773927501856503 15.147151331001265 14.22183856459197
Hf 17.683180847066083 13.583027644026064 10.656026192124958
Hf 9.747871753115067 8.033034310943705 12.966778936622742
Hf 9.74655306439414 9.520010616775771 15.451550357298306
Hf 14.872543137653407 13.53646040370645 11.501862310813259
Hf 10.943990554425502 12.226916745723432 15.714070213570434
Hf 13.093567959304744 12.51861523592255 13.705648313700172
Hf 10.130478009341532 10.842635421993466 12.898289712804962
Hf 7.99297150283048 11.971048575877658 15.205848080459235
Hf 15.945602845533568 15.96899913238509 11.215388803212901
Hf 15.867858179844605 14.254916836257642 8.747836155214847
Hf 9.12723028939148 14.674968503022495 15.704706559203935
Hf 11.281223147236751 10.81740989519759 8.374405906380412
Hf 13.758973565567176 12.384354085501776 8.099097123871317
Hf 7.493478580345791 9.5799914459848 13.669071634257158
Hf 11.73945738988448 15.014196262199391 14.450167096203367
Hf 12.166190908324465 12.560895283994506 10.617855851513832
Hf 8.389391524701017 9.590037925888046 10.940164582211937
Hf 13.0824941877388 16.012503135959808 12.077579716322592
Hf 9.590521116626475 13.465410395905526 13.091151270646778
Hf 13.301461746301593 15.218687971123657 9.331903653603591
Hf 6.946682934673589 14.443280085199143 13.903252836743672
Hf 11.1108888722386 13.6351443034476 8.216579452529698
Hf 9.264147247630678 12.308525455426802 10.129399242488713
Hf 9.164201653333093 16.23707682523305 13.261076590203784
Hf 7.079809702202224 12.01609191704253 12.176683072872226
Hf 10.64654165592751 15.067164796819101 10.814780916180805
Hf 7.771213311838347 14.740891905703451 11.202591314635592
