45
Energy = -387.2953269 eV
Hf 10.237372942046317 8.382079519336852 12.644802135078939
Hf 11.752612737716225 8.881528176880442 10.337295432911482
Hf 11.520556911749408 8.755168130584522 15.24226359915775
Hf 12.973967570799443 7.6713032846073155 12.648128842532516
Hf 9.62843505977808 10.671882036609535 10.944273826815545
Hf 11.686736549222058 11.459472290448067 8.604757553930346
Hf 13.904979331185213 10.875067791239875 10.445363388231032
Hf 11.623102639102154 13.445952237985786 6.623757838600398
Hf 9.470373816520983 10.832148158312796 13.973572926640347
Hf 9.524235709699447 13.17875004163368 9.23988697166432
Hf 11.651280077187302 12.772685308532893 11.189055330593078
Hf 9.024507430256476 13.297162334276404 12.358714399736657
Hf 13.977486320688588 9.529224839799356 17.55147147531401
Hf 14.163791157172753 12.942505306018171 8.15878620537061
Hf 14.246065138701045 14.21447139141891 10.73897406934599
Hf 15.5754783944319 9.771167470279769 12.705808055761874
Hf 13.404059528531713 11.368409258269613 15.647283368373701
Hf 8.761013511996756 13.48772162574052 15.405054358143172
Hf 12.363535660189523 10.391260893667084 12.979335001923612
Hf 9.89324600673362 16.130881128958986 10.75203268646079
Hf 11.78938570686986 14.839456944487432 8.91052112575505
Hf 11.23195649969394 18.019818773714068 12.620284429970296
Hf 14.320219006777457 8.485041867059287 14.940576341174815
Hf 16.789289618046116 15.157476014833327 9.733972171269219
Hf 14.601296571129458 12.558994010654585 13.230839274855056
Hf 11.508023585186749 13.380241583215911 14.340180727170422
Hf 16.395311192881955 12.149269566123623 10.82307537484662
Hf 12.346373649487827 17.379873257563624 9.988604432471032
Hf 10.89077058653336 14.08834835831041 17.304724914380387
Hf 14.953428975933809 16.93318637392226 11.260535166046353
Hf 9.171557119546115 16.267220820923367 16.400237774430895
Hf 10.428818480229708 11.376026035562598 16.597459663939453
Hf 16.247363816670266 10.43307507505203 15.642701939901668
Hf 18.771548174014836 13.47492366635422 11.129538648172627
Hf 9.564955661159901 15.811845082397287 13.596580314368486
Hf 14.360575038208856 15.933613185912478 8.41201962020313
Hf 12.709550208106107 12.067385871448506 18.421714681789016
Hf 11.868913038925967 16.185854116647217 15.325833127568812
Hf 12.260903176210828 15.527088542812594 12.37896145375301
Hf 16.69725427955831 14.737217453647899 12.565631964139738
Hf 14.572894669402965 15.519214793984647 14.310631294804427
Hf 17.58621960175367 11.92583303494191 13.377059370917074
Hf 16.359052345293 13.469413168197121 15.541249080323581
Hf 15.368670680022362 12.026075774461752 17.82215129276407
Hf 13.809573243379017 14.319280826000067 16.836174891148527
