41
Energy = -355.71194602 eV
Hf 12.532969692212362 17.77892190568523 13.221503243241054
Hf 10.318898896980098 15.89950967670702 13.650862327672046
Hf 14.613558965209755 17.975836443468495 15.14008109771053
Hf 12.254793941219656 16.31243259509039 15.90958032392641
Hf 13.463006769870649 13.601895050860179 16.802173694536556
Hf 10.800971449636014 17.177954591588172 10.982234818960611
Hf 8.96362702838266 13.300375285851093 13.248526883749818
Hf 11.237798313117082 12.027345616815916 11.464933628598189
Hf 12.010342003059039 12.766381711277266 14.224751636121217
Hf 15.45310158033029 17.26232130506491 12.451668921186227
Hf 10.45826978001638 13.903443431207533 16.14017179660539
Hf 9.411686761657995 11.405202177178685 15.238946944095586
Hf 15.047046576021414 15.905258490228293 16.963101454430465
Hf 9.701215922000209 14.638211668113769 10.661618032706329
Hf 12.520373410060419 15.026460206015306 11.86621654299411
Hf 16.913346222387865 16.390975650284407 14.90087645495478
Hf 14.31781146619474 15.168739925532147 14.265369427663213
Hf 8.475879388387227 12.149144238966763 10.556042679505339
Hf 11.777419515724441 11.11792088980246 16.637349113839317
Hf 13.45632606208228 17.550642001514042 10.439476706444607
Hf 9.055144728479183 10.258882618192809 12.677228634902562
Hf 12.235689141497101 15.306235415125533 9.094114273877805
Hf 14.507150950651425 12.63990171946097 12.450191512748702
Hf 15.126129233876325 15.15061753258498 10.281311933202844
Hf 10.78241052123167 8.887753734759503 14.854350870695322
Hf 16.489730139472996 13.665948325874355 15.538464135973419
Hf 17.03749982952886 14.604658197226627 12.64837884120415
Hf 12.909974160073872 9.991809196899617 13.070776204862335
Hf 14.688935590555378 11.411862066814056 15.198582841020912
Hf 13.529771528838246 8.942215469811778 15.852936313320631
Hf 10.76570081411616 12.480819974309746 8.744925463632208
Hf 9.87817736115031 9.920542028755012 9.870032602057853
Hf 13.709401460810705 12.698047203273845 9.664580999186667
Hf 12.685295876478085 9.815782690419276 9.771183687376842
Hf 11.09500393354406 8.147446573727366 11.755319789219072
Hf 16.657555501121227 12.698350170324098 10.531409311526458
Hf 15.44877559155594 10.193586553998575 11.004161516655898
Hf 12.972144662691282 7.183260269016172 13.850244158833313
Hf 17.046721632876405 11.637175340957194 13.174640516540817
Hf 13.91757468585423 7.775907871961246 11.33382625939042
Hf 15.469691773928414 8.808085382434625 13.633728397560093
