43
Energy = -373.36923806 eV
Hf 14.760815434843423 12.075661493712895 7.683919687252728
Hf 15.330147001873293 14.74070273780478 8.680875797825598
Hf 13.517000995928752 9.356915213545706 8.056778915086603
Hf 15.967568421927373 9.878536640910443 9.185441296232058
Hf 16.511825660904435 15.656549827194487 11.16291297777753
Hf 11.84961712524493 11.476648670668185 7.747234942217058
Hf 12.415033864134609 14.075567311276869 8.908773842041631
Hf 14.28436049727903 14.198434639452577 11.48793145608147
Hf 13.968180198691451 8.575588445462465 10.87766167404055
Hf 16.58973162167151 12.625149676705309 10.064772924847817
Hf 13.738467973842514 16.554710794178554 9.85894107066
Hf 16.135684674304436 10.314885820487222 11.983096217048388
Hf 13.62399255040483 11.38600915365013 10.184727394101
Hf 14.235109398470573 17.22206127498563 12.584066203826188
Hf 9.820371592071654 12.120305997989052 9.521454270989375
Hf 16.966586824849525 13.04848005404971 13.03078334481849
Hf 11.217751615998742 9.557632459020105 9.830399016866098
Hf 14.42758380363603 8.970744009016423 14.043006099562723
Hf 12.682076725154925 15.138299394961102 13.926226096339366
Hf 14.159311138618026 11.896129555959307 13.68553480753939
Hf 16.59932363177361 10.697790903313741 14.770160406851963
Hf 15.744266442127769 15.415657901981566 14.12684359934028
Hf 11.338813509295212 15.983323158144968 11.466180132692385
Hf 11.530157016199924 12.940175008408463 11.557341918453284
Hf 11.534083952515946 17.714115810680337 13.869896591972303
Hf 14.354367388540709 10.706469627491495 16.58791562824596
Hf 11.953612998424447 10.126930391908564 12.596525052287445
Hf 13.863854319081337 17.404939641707568 15.402056972473954
Hf 8.84050843802458 13.98532623438823 11.725859959707225
Hf 15.78282213908972 13.201584963458775 16.042895621747213
Hf 9.14983425756156 11.147431691361188 12.267033105209276
Hf 12.839148157541212 13.342344130148293 16.174001970764618
Hf 14.129530533599505 15.494891083515636 17.529486210978746
Hf 11.990764505477525 9.922559508180976 15.391003385148403
Hf 9.602404206433196 15.498310782846367 14.076966124359119
Hf 11.394620898456049 16.244312286449166 16.46835592070762
Hf 8.048008178316111 12.983773608759872 14.279238217530068
Hf 14.126631091045024 12.830098081858246 18.593157260755056
Hf 10.851243947206598 12.538036059115843 14.215058710894523
Hf 11.722689915447747 14.279607585245179 18.61627174504105
Hf 9.602469485334328 13.69254313954217 16.65642671367626
Hf 11.422481862444966 11.481380114731216 17.818128851756537
Hf 9.22730291165781 10.830265418830892 15.722553953522306
