42
Energy = -364.73745565 eV
Hf 7.743625514144249 8.19483341585487 12.972896590603211
Hf 7.721719573097576 10.864077067708537 14.108698307686012
Hf 9.28351731797315 8.64081707080451 15.264525850867667
Hf 7.3371362639819075 10.511710992509045 11.164065407243642
Hf 9.095516627951055 8.0433336544301 10.436812584587843
Hf 10.27642726775925 6.811619416875042 13.032637482636964
Hf 7.064923122471092 13.19026377103615 12.45385641745862
Hf 9.123719022000817 14.035807348913274 14.425294690390993
Hf 10.385835122051223 9.503436094252272 12.775537143235523
Hf 9.241413728829322 10.735609892630448 8.944029661447516
Hf 10.44619023607215 11.454554201252469 15.20165800941211
Hf 11.821287035482463 7.022492727349359 10.388364474354917
Hf 12.22131215908068 9.088083485364836 15.220351371942714
Hf 10.657986321622694 8.551476243977117 7.974831921571321
Hf 10.95296399876943 13.018561966184127 9.725988483343693
Hf 12.076879879908562 9.934604613678076 10.200529755473871
Hf 9.603710716543459 12.13254068908724 12.024594142149233
Hf 9.156957636093754 15.163691072517969 11.778050061441174
Hf 13.337528521855955 7.9200029026183225 12.944273280546142
Hf 7.866596350764897 13.355510673940692 9.682147117380348
Hf 11.893059888777303 13.540296730830072 13.21467240465562
Hf 11.424444050400755 14.10683475551837 16.062259343353514
Hf 13.38366944781816 11.922487832393648 15.890132506925568
Hf 15.049871959852448 9.830036679237153 14.618523702757555
Hf 14.499719333946013 8.101999069957536 10.46743804574547
Hf 13.268160410525327 8.389662914862702 8.011689678954577
Hf 9.627671371085246 13.125318762513388 7.2804209253691345
Hf 9.724291205668631 15.497020374860478 8.963769989530606
Hf 12.002797338662798 15.808126547835505 10.720347005365417
Hf 13.010574986908383 10.908974657756263 13.013949671052842
Hf 13.643535427174871 12.76175553523837 10.641806620239366
Hf 12.103596163459121 11.288481920831165 7.615681894151421
Hf 11.628898149049999 16.1029689924926 13.815253676633507
Hf 15.704197170489172 10.255172759220683 11.867379395818414
Hf 13.943632071975712 14.623467123173189 15.11161192106474
Hf 12.206048612808413 14.55191818391758 7.712838498403483
Hf 15.410311283470373 12.636988085394167 13.628231220319352
Hf 15.096912320762579 10.48151111095298 9.042633725206837
Hf 14.516702161241485 15.301733588340223 9.42157019748129
Hf 16.2196798431376 13.062386510387661 10.50692754727134
Hf 14.40329842391315 15.19602509068655 12.352101853980892
Hf 14.602591039230479 12.973544900273795 7.886097728179444
