45
Energy = -391.16308746 eV
Hf 11.561744924524604 17.717020111554692 10.067957691622292
Hf 13.949973769301426 17.433899656273113 11.695588618351987
Hf 13.553662014517275 15.577160949263005 9.191403359838143
Hf 11.290981381934335 17.858642872233172 12.83587152440301
Hf 16.027708285774825 16.628818717265773 13.451469348454436
Hf 13.371837157181698 17.176088427908056 14.654668023681023
Hf 10.361421125599016 15.45887081524062 8.742602216426398
Hf 9.196950559008089 16.517227154999667 11.406845603778347
Hf 15.783335310721464 14.809912818956779 11.019023841636722
Hf 11.730644106549514 15.299859164221543 11.540500317202177
Hf 13.956608525079742 14.690424926059313 13.39376769191689
Hf 15.27585882151799 15.441447482841728 15.867302595352387
Hf 12.193974469606125 13.493821888174836 7.854695087975595
Hf 10.502049645808201 15.405419938169992 14.257388268595596
Hf 14.96398926693874 12.828787139922277 8.660413626590156
Hf 16.7826884193662 13.851889720817507 13.78296989751484
Hf 7.986345390730813 14.420765106518845 9.92480223091205
Hf 12.515747385881209 14.248194267704545 16.012290517396618
Hf 16.40805299611156 11.924817475654963 11.333780990663612
Hf 9.301617316658186 12.530978615218972 8.067979982270385
Hf 13.41275823690313 12.795993586682613 10.754363778810614
Hf 10.403753282714067 12.804043789425268 10.494589488136143
Hf 12.011595298977745 10.871993764965218 8.681983640098911
Hf 16.94987471223168 11.028346199986485 14.266378379280871
Hf 14.402750384513398 11.687869213924712 13.360553048990058
Hf 11.54354767368623 10.423157747623716 11.622992013735338
Hf 7.683926135685282 11.842334725608502 10.660011512015931
Hf 11.545259277998543 12.598792612736393 13.630334962692004
Hf 8.541023230360437 13.704922519409116 12.819075954932242
Hf 15.136591619438253 12.62958371124209 16.02458356470513
Hf 9.67483873656915 12.60839043748574 15.563871558080185
Hf 14.250185326086473 9.880826986683955 10.81266794614756
Hf 12.423385209052807 11.253492053608385 16.277900299611947
Hf 11.865818017110428 8.189133562853474 9.936645535733435
Hf 15.11089930837841 9.54692833807231 15.877649688237378
Hf 8.955220341255522 10.84098140165863 13.0575307100002
Hf 9.505662711071382 9.805411422582388 9.775876826078596
Hf 15.677540127038592 8.6847821220547 13.076727037159982
Hf 12.820774385360748 9.270440140068429 13.955759713126657
Hf 10.191034461787325 7.975834322936479 12.408957470688083
Hf 10.183662971892025 9.423973359834095 15.224024596675918
Hf 13.179064675632471 7.062406661206373 12.164161857226455
Hf 12.498354085052558 8.40315321854355 16.68068591934263
Hf 14.27037404004721 6.960528118441645 14.898560595397061
Hf 11.47477514768167 6.782740936658393 14.606314129186618
