43
Energy = -373.00195455 eV
Hf 15.745017540778328 13.241893895757551 10.822367039995669
Hf 15.714471698439054 15.475495422366006 13.088379144274334
Hf 16.220304758789847 10.91960225736788 9.131555473134322
Hf 17.251914591370184 10.185357601543384 11.802363941253294
Hf 14.023500232304908 15.39581366870072 10.503320978872965
Hf 17.430618332365263 12.853305019766394 13.0002831649104
Hf 13.91068450116468 12.676124697113917 8.618733907914551
Hf 16.103443825581728 13.500786612206825 15.268147289545958
Hf 12.362492764561427 16.193132857252415 12.964000311020301
Hf 13.81601919258931 13.582213411834598 13.194591460666684
Hf 14.063210270235809 9.68702145789922 7.929459486185076
Hf 15.368664700753877 8.298234507322311 10.258023350914094
Hf 13.61899740608741 10.489931545086527 10.592496277526264
Hf 13.77098593736979 15.124157954563602 15.467496802238328
Hf 11.284743765720645 15.994927242838765 10.260193109210437
Hf 15.740216507514774 8.30199258961189 13.228231945718097
Hf 12.154536635933754 13.079272288475781 10.90981067016046
Hf 16.783801730186966 10.589841446572324 14.86283931662372
Hf 14.926326179540075 11.10317339634161 13.119029371435877
Hf 11.00777345854508 13.902789444279959 8.377817393436334
Hf 11.333118939457103 10.919065007515869 8.621990767449011
Hf 13.872337096397672 12.00955874916372 16.000484167056303
Hf 9.585006202618711 16.96165228057559 12.151288739177582
Hf 12.072932551459239 10.899497970774355 13.319705348716997
Hf 12.41308651363565 8.087910791837913 9.538793360271562
Hf 8.714342344126011 12.390756073118771 8.068399496748548
Hf 9.9901068048778 14.158122977753916 12.762686403014627
Hf 11.354914677542112 13.45077864057502 15.190803068841525
Hf 13.70229477906555 9.026174526137886 15.191326756625685
Hf 9.474755387568663 11.875039289706082 10.841026763948344
Hf 8.596984018291755 14.706970501103 10.157738288659548
Hf 9.863458909388278 16.07318966107511 14.83721707412284
Hf 13.014458970077538 7.917292899089504 12.438136547107637
Hf 10.481704730357945 9.18075339584252 11.420710949171395
Hf 6.750907890373098 12.083958210291883 10.014356830917446
Hf 11.362920564259513 10.621401325188947 16.111784240012373
Hf 9.297508125624613 11.061299580307256 14.022745723581215
Hf 7.4543210675325495 15.486048747983677 13.1354769755169
Hf 8.502396048856129 9.813762929916823 9.174045321071738
Hf 10.866986433668698 8.500421000905577 14.311585860621554
Hf 8.392531151911006 13.671759862784976 15.188332088981937
Hf 7.083965045755679 12.600861367007397 12.89470202398376
Hf 7.554406193143767 9.963586848832534 11.839050814379307
