49
Energy = -427.00036945 eV
Hf 16.125322450248163 10.158259350111019 15.978000814828905
Hf 13.882028020443505 9.121318823335866 17.381654623732583
Hf 14.531849657476174 12.00811358610064 17.62161958737406
Hf 14.50167018075747 14.88393886240933 17.319078846845493
Hf 12.188296342258653 13.641046953991214 18.38410405245693
Hf 17.362701095200546 12.92364377094461 12.709331753986064
Hf 14.39692738680173 7.940470751624109 14.819016523055193
Hf 11.612055642225494 10.974434950709092 17.45595818271969
Hf 16.376458296091094 15.718530268004342 13.0655229731633
Hf 15.713157744793557 10.412596635275525 13.079466877035273
Hf 15.673442157755082 13.119085938238403 15.0712864470352
Hf 11.647693228418948 8.423989353997207 15.78497879018164
Hf 13.4979770334596 10.728162899159054 14.99907073475331
Hf 11.775465213020368 15.9839173115446 16.772576947390696
Hf 12.755793065641377 13.394937019012293 15.544934848699127
Hf 14.522269529989345 18.187140150537257 12.880568485739794
Hf 16.44239799181436 14.441424771980326 10.389408560992756
Hf 16.600966375654046 11.507637445197883 10.562833832805039
Hf 13.950961385700557 16.052515019167743 14.783389269028715
Hf 9.834340821133514 13.776208829630297 16.71133328377161
Hf 15.747917128588007 17.208188968710466 10.550137235441943
Hf 14.36388021791965 8.086077738035714 11.981948001511224
Hf 14.437495453995155 12.838832060839096 12.258222372909758
Hf 10.251230271494041 11.380006825915506 14.881918443779728
Hf 11.807868531632359 7.058919486432546 13.07272482179589
Hf 11.099749266615271 15.025841824301214 14.03050846815995
Hf 13.65652219930057 15.670632944231043 11.928812298045383
Hf 13.97158057514556 10.430392233044524 10.331004285631257
Hf 8.992592771091049 16.188519531151364 15.203783600056552
Hf 11.876573936785189 9.887457055077174 12.5281636225644
Hf 15.249231864928655 12.742684247697252 8.32638683081697
Hf 9.482883996295087 8.748169899213053 13.982057280209043
Hf 11.570282095689294 17.576309490303192 12.981024990153905
Hf 8.51045548687546 13.522404466583538 14.148825310637855
Hf 13.00837948085486 17.98126868876716 10.395943426506607
Hf 12.263371896164575 8.060272596657029 10.244829769422214
Hf 14.067530724054906 15.61140700858103 8.700959974283363
Hf 11.038495888374193 12.878390817677861 12.190833713680158
Hf 12.539031669807814 13.154960513605825 9.551287370794636
Hf 9.694859473400667 8.273108738394036 11.281130179893074
Hf 8.958990667948903 10.939966747264988 12.22150513113561
Hf 11.128683090800992 15.674638741533665 10.641117250471918
Hf 8.934954634700025 15.574948865881067 12.2936636276233
Hf 13.013846459292129 10.893014655494715 7.660427448078201
Hf 10.768691406566 10.691401954619463 9.832284365015095
Hf 13.124096223597885 13.607092688206341 6.703319102106887
Hf 11.137324199303395 15.206990743631088 7.8459741642872585
Hf 9.483301571647333 13.492673842752579 9.755639792547093
Hf 10.641143058593958 12.39649036628101 7.393879350526959
