41
Energy = -352.49771982 eV
Hf 16.383283627555173 11.19551831013272 11.79435102647968
Hf 15.24275680813634 8.36286765165709 15.581641427530192
Hf 15.632596890832831 11.046713378478305 14.47527896206655
Hf 15.560317819649917 8.682219220803136 12.713542409386676
Hf 16.176847373720832 13.611328817961104 9.916361340894893
Hf 15.146724368041712 13.550933387467412 12.741391656420562
Hf 14.401887131287909 11.06166499936592 9.632705653435613
Hf 12.894296721461414 7.578130069899115 16.674617597738656
Hf 13.069663892311782 10.2506030684349 15.797119927432066
Hf 12.420618735803451 12.946896345486662 14.34568452465921
Hf 12.890165267017718 8.063250805224909 13.829459320215364
Hf 14.846023093833969 15.849184384918207 8.51656065267957
Hf 13.486590488092402 10.870429209849378 12.472437339974661
Hf 13.258744930492279 8.452680829384864 10.708002196249447
Hf 14.445501314777905 13.14947913151261 7.537500668426357
Hf 15.066739078487965 15.943168976338569 11.270264655376534
Hf 12.78763034420458 15.414114975238467 12.84156905755882
Hf 13.278739126759334 13.850849708769903 10.114462302472988
Hf 12.8663649835167 9.680614858550697 7.694299233929094
Hf 10.547361415301264 8.666319102310872 15.689869206697516
Hf 10.48285063390288 12.12447779048872 16.34846942137964
Hf 10.986519396835662 7.821544005931351 9.006412121041391
Hf 11.286252111556358 10.476918189470817 10.013457377614065
Hf 10.820025267006633 12.859349859264157 11.707861392041904
Hf 10.381364931329424 14.949925462294757 15.300050260754562
Hf 12.368191909870852 15.188256598896615 7.5856078256963775
Hf 10.37198179068543 8.380017506722783 11.839412828432758
Hf 12.478690619944894 16.65131348773463 10.14477200550339
Hf 10.752618126109137 10.6082596356976 13.76330397592716
Hf 8.245278348451722 10.693100355976382 15.40783704786361
Hf 10.122290470039017 10.020918112002628 7.314693052657649
Hf 8.599428751762028 9.189906885411887 9.51818029595355
Hf 11.619807725642396 12.441664144092268 7.807693709938009
Hf 10.252346206050628 14.727874423067837 9.483398138399274
Hf 8.44096801081645 10.830183249932256 11.801322940625173
Hf 8.779899695443381 12.921553656881487 13.897343519802007
Hf 9.954360675665772 15.634544966858012 12.387383957545309
Hf 8.105052466976975 13.66342521155569 16.52167437573734
Hf 8.772710158492147 12.039083657286296 9.078467357264246
Hf 8.033951179990677 13.816706947450683 11.277227510881518
Hf 7.75530174813992 15.415988151897013 14.237422475745646
