43
Energy = -371.17345012 eV
Hf 9.486287563830686 9.202616304342913 16.645975530973523
Hf 11.891110592169685 10.534313705395773 15.64573309955688
Hf 11.999903055783202 7.945305220231669 16.59329003244056
Hf 9.016041215820133 12.074967465892422 15.455529854869846
Hf 10.513210571380178 8.245682039424803 14.171854219474126
Hf 8.08721408825095 9.740403259341932 14.265663677143484
Hf 14.274338354928261 12.736179583593437 16.189742878784294
Hf 11.633638426264387 13.574792612890466 15.272337319302423
Hf 13.434153720321387 8.22127738286413 14.071386512595074
Hf 14.820571506140878 9.796856730165834 15.887610690003706
Hf 16.32887210954135 14.858288273420467 14.950373298577578
Hf 10.616869455798039 11.711486607233546 13.055277423341698
Hf 13.689017548130078 15.470525336617978 16.011042346565443
Hf 9.247055728423074 14.421030394890126 13.553138876015796
Hf 16.52124679369588 11.828755037628019 14.875889967559637
Hf 14.487483713743298 8.268576490279251 11.345986872164824
Hf 7.732261795804567 12.078970521825065 12.745605972325905
Hf 13.861260906049743 11.134031146599776 13.54128812424094
Hf 8.918646980861224 9.704908693182057 11.52023312739995
Hf 11.909199472038166 9.391012819807397 11.660959086518972
Hf 16.304254131693224 9.355830300926378 13.22033322552304
Hf 9.575431373901163 12.365063660863006 10.41004344474098
Hf 14.12115345920095 14.173074362490215 13.32413729393413
Hf 17.001420468008188 13.196567627780716 12.54332746942117
Hf 11.503038248283847 16.424505204777667 14.463902413682547
Hf 10.643121316695195 9.947658959855762 9.176658535609082
Hf 15.303787884940302 11.23517206276242 11.070419662252641
Hf 11.47697322448637 14.949983196691603 11.590151629421833
Hf 14.353642314636822 17.09397917003578 13.782926060674829
Hf 9.557871213905864 17.057987174843703 12.34462679924859
Hf 12.627212198426532 12.221517167844576 10.548447372828925
Hf 16.405667959519047 15.884856282830164 12.258043362550202
Hf 13.524581774062801 9.756185345153007 9.072359874406931
Hf 8.634650282268899 15.139074730790549 10.674707781241809
Hf 16.559180605305755 9.258121009306777 9.894400645093057
Hf 12.115927897186749 17.95611765923259 12.163306158485579
Hf 15.338331184940097 14.106973533710855 10.30803470839727
Hf 14.026739310245677 16.59526982914508 10.715578619126969
Hf 10.223153789216967 14.494586277312782 8.56531427825665
Hf 14.626192835591686 12.198506730350518 8.31901641494388
Hf 11.738199938626435 12.160705858737192 7.830510707527648
Hf 10.97039897987563 17.018597117846152 9.715446245880672
Hf 13.014508275487856 14.744832191564253 8.608453805344148
