43
Energy = -371.8819524 eV
Hf 9.459344341330242 14.240974984406886 9.249794762867108
Hf 7.432654899390559 12.815596018760264 10.838719127253942
Hf 12.380952304524522 15.168381169265075 8.58401772179881
Hf 11.70211708191026 12.32617294694587 9.304736165373729
Hf 8.343153394438264 15.311374686927548 11.65104520348175
Hf 9.488666078408157 10.737122541194703 10.768532241362095
Hf 7.386271823275804 10.627232279245211 12.604167768323451
Hf 15.200513334672102 15.66511164665711 8.996507960951385
Hf 14.42642033413191 12.846859724935554 8.630353958451265
Hf 13.385197899151128 9.990187823895576 9.124274761147825
Hf 10.885222966011552 16.319287299136985 10.933233706872638
Hf 11.818654358976652 9.201163295231263 11.605994883753098
Hf 10.599610585078546 13.476050823513349 11.761736631693955
Hf 7.987494727824692 13.20588954829834 13.620836195652608
Hf 9.318442619747167 8.746429347205657 13.048081619166355
Hf 16.727888367132664 13.820793957029174 10.423707845062628
Hf 16.127598039478972 10.898178164214897 10.142751609211567
Hf 13.495451092234791 17.23341701177995 10.412700807397325
Hf 14.618313581215777 8.785168692665092 11.297787838093875
Hf 10.2966796415199 15.462554790564564 13.834827700195481
Hf 13.593969732109395 14.387778063011377 11.130833107575988
Hf 18.329504068149856 11.897297107855506 11.797895679342366
Hf 13.485379392283425 11.519709901212753 11.58709345034928
Hf 15.775975939313692 12.945849250297336 13.210708873209539
Hf 10.04332782299727 13.298687803316101 15.74036430220488
Hf 10.745553105117606 11.19108725857958 13.685307263407312
Hf 12.930328021750503 16.61750254808629 13.185203743250177
Hf 8.413389915030585 10.541633142081462 15.254898883810982
Hf 12.866537570579027 13.497842682980052 14.244282270740786
Hf 15.751605341587988 16.17555538634372 11.91925206779639
Hf 10.954037357648012 8.940530645093498 15.450143935248871
Hf 16.51330256446118 10.006711173231606 13.005040055422375
Hf 13.567496449919803 9.759971598071907 13.957226444230157
Hf 18.23652003688018 11.89191518073947 14.479518934621197
Hf 18.170773129886996 14.449416829812884 13.010374966158476
Hf 15.703820421394422 11.196537196336303 15.64495112319202
Hf 12.266481093950315 15.533670494980074 16.13284263691436
Hf 11.777032662044578 13.241594995794735 17.937445244558287
Hf 17.083501660244394 13.987119897220621 15.705582582286091
Hf 10.215630848125109 10.940947467585659 17.418180758741084
Hf 14.985968276714214 15.757038457477424 14.916820136880895
Hf 12.76689876639121 11.206761249208904 16.275224456687276
Hf 14.482599886834883 13.721660321168281 16.810557124142925
