49
Energy = -427.41765542 eV
Hf 10.590490278911652 8.022461464120788 13.643284682020521
Hf 10.598735666630791 6.992285465455479 10.962145352709792
Hf 10.808963746046224 9.870567888837511 11.25747837613129
Hf 9.933325262916881 15.495364788953102 15.918816480410324
Hf 11.251517461402875 15.26920828550648 13.099412998786374
Hf 15.680325989972872 8.913983483346815 10.069865150315717
Hf 17.57010758799973 12.912720695585088 13.355488429146046
Hf 10.79963874002361 10.99974946805371 8.44955176510821
Hf 8.041442470323389 15.318701651918238 13.529836412701583
Hf 10.746003342381377 13.212125026139674 17.57530220436732
Hf 12.9759168438564 11.492662987500466 16.86297340248519
Hf 14.00496930587716 15.141566833751062 13.443081103137846
Hf 16.266183895181705 8.16548128479779 12.71153914459723
Hf 13.263235072730355 8.233408214695299 11.895037799139851
Hf 16.29528810198801 14.80819407271965 15.140791071807808
Hf 7.669976642588765 14.213927907166894 10.786506624408217
Hf 12.43935839802102 12.609066610362133 11.62673579027018
Hf 8.489917826010945 12.914271747261196 15.516306354220351
Hf 12.429593402584283 17.027439814191855 15.230714957250415
Hf 15.391991731976377 17.444354253417544 13.998926359640697
Hf 10.444448356916455 13.716771366315449 9.714088977617381
Hf 14.868220853889857 10.631163797034674 12.33083055625506
Hf 9.939617590825346 17.55451781076098 13.794643481488714
Hf 12.161691332824478 10.434340270022837 13.946235759885477
Hf 11.40301684641916 12.936858884741067 14.900000137529338
Hf 17.156742196813685 15.639397542798188 12.351771082793592
Hf 9.619975451699933 12.989771118788061 12.498168794195536
Hf 8.979928426222553 10.492194264406482 13.827808796256543
Hf 13.469717959904077 10.6152570442652 9.593288574096517
Hf 15.128274013393451 17.164587340833084 11.169497565509229
Hf 14.449395219536592 9.126260281617702 14.795629725036358
Hf 8.35069361098615 11.33651917694865 10.481562684676936
Hf 16.97532387932275 10.320550168930524 14.405156549989625
Hf 11.962211747150334 8.37644011408284 8.93420829868234
Hf 9.140719883288291 8.763087399642547 9.166631124648694
Hf 6.92907200327338 12.490865141923656 12.920895932275938
Hf 13.30700190372114 14.458885682435493 16.41097298966583
Hf 18.022555643071136 13.450873307592502 10.593725167227202
Hf 15.217787164458159 13.473154370759916 11.412984109573031
Hf 12.742829661981984 17.740510054634765 12.562380841696317
Hf 8.299646607909512 8.47587301981256 11.851257529448302
Hf 14.727104238744134 12.277923958768293 14.820430821923011
Hf 17.67494949412489 10.614138326723154 11.482402397652637
Hf 15.95242947970233 15.037583941158987 9.340634480348914
Hf 16.113297461364162 11.795286425766758 9.153915876744906
Hf 9.579771396654865 16.30318064913837 11.085135666774125
Hf 10.30490627211544 10.609167164541844 16.375244551720435
Hf 12.88541875443846 15.45454665190347 10.47632596961479
Hf 13.519566781566978 13.30420238669629 8.770918436231538
