49
Energy = -426.21929121 eV
Hf 10.002953675421429 16.779981179937586 11.745880284306157
Hf 8.90702871066528 14.212654603027904 12.075270219773762
Hf 10.460896938718227 16.352884470907284 14.640177607350385
Hf 9.252299017686338 13.481046066515304 15.0019420435873
Hf 8.972649938820798 11.558795769188208 12.801222844717497
Hf 8.888351060130653 12.252360061069616 9.898786926094717
Hf 11.56230184701178 12.565745352419171 10.864048320656687
Hf 12.074979480129981 17.391651289048554 9.80969348680818
Hf 10.02690832850153 15.00648796815302 9.508080274849728
Hf 12.377748453621958 17.77730537436101 12.768285435353357
Hf 9.787386534290306 15.214289390296809 17.258683964136427
Hf 12.022520279432898 14.835602877681742 12.814187171585115
Hf 12.007166369041093 16.965264622513267 17.22921155210582
Hf 9.725724206270035 10.338649432547808 15.256225417313408
Hf 14.567602682712309 16.94483183828156 8.37871272930118
Hf 11.685445193739346 11.963468485430983 14.074471288296637
Hf 11.245761747813866 10.296264816551984 9.140087676902272
Hf 10.521730361153516 12.421881541311157 17.45341216856756
Hf 12.28410770289649 14.337766034523735 15.97234695180151
Hf 12.002722418137115 14.569586358412941 18.862824254223497
Hf 12.466820935875033 15.027203741325975 7.591461654965477
Hf 10.754079804118295 12.759628560114813 7.928150363252938
Hf 11.02022916918681 9.810661091078659 12.093491292110246
Hf 14.728095351733202 17.66009749596299 11.04604178941706
Hf 13.489397092663118 12.159004763080427 8.27024678118531
Hf 14.010364423357034 16.829734762929622 15.109438948387044
Hf 11.65283347924764 7.908655863173249 14.609788316086524
Hf 12.671767872601578 7.572072392297823 11.672261996397978
Hf 14.521148071452975 15.481637144572481 17.57404732966296
Hf 13.807936595063254 12.61295908226467 17.866398167082554
Hf 12.193116284018338 10.126789131811147 16.566309404477288
Hf 13.746840745299641 9.485696669557356 13.502270580838509
Hf 15.319812880789497 14.32771618666805 7.8418257555835105
Hf 13.665815415383966 14.862091513437141 10.188150630334507
Hf 14.235031253759225 12.548221027927255 12.675021967946922
Hf 13.724097555690982 10.251629999372986 10.66272119612243
Hf 16.524800672025258 15.568607968748655 10.123226747668294
Hf 15.050422093617064 15.449867322911635 12.830916332513153
Hf 14.238251027210781 6.649280651191969 13.875129184684338
Hf 16.865233754498465 15.854060242408414 15.098557709568365
Hf 15.182952192736341 13.786230572510444 15.268226585724888
Hf 14.667905775199086 11.092462292440493 15.550276218008282
Hf 14.164537750683218 8.17152325707618 16.236510376236684
Hf 15.838639365660308 12.65690475574387 10.162368567394434
Hf 16.586816768495964 10.61622756096407 12.386878558976088
Hf 15.54818183106811 7.940510876973132 11.718670618554818
Hf 17.073232571075188 13.51652388462109 12.841121398664484
Hf 17.343967073344587 11.571614079438998 14.989273416420074
Hf 16.403471005109967 8.599240424892455 14.439831829485131
