43
Energy = -373.58064074 eV
Hf 13.057405630029264 8.530788930341132 16.094680636761925
Hf 11.948348670840444 6.968965064908515 14.01452290406135
Hf 13.933609369923952 9.083211558201771 13.30991347404456
Hf 15.91664679382126 10.176934201178355 11.40196914912517
Hf 14.028220943911661 8.003183478981876 10.580469621151773
Hf 13.364958452312834 11.527608435093883 15.726596355189645
Hf 10.178671739686202 7.826926676646526 16.017385599271076
Hf 15.945018805350303 10.86640496200128 14.359232837892431
Hf 11.331501302297237 7.633143852918155 11.344317045439125
Hf 11.261764380696052 9.881534307084074 14.293117496368593
Hf 14.667171542179076 9.922941535501195 8.661308941780302
Hf 11.06600165400949 10.191366892619676 17.196956597597058
Hf 13.061543065168651 10.746194623761829 10.831529573418731
Hf 9.176037743944303 7.937201013831206 13.215386129055787
Hf 15.483539651459749 13.522599654107605 15.016744084270146
Hf 15.301644385623597 12.579354533822816 9.839387367852376
Hf 11.685938533857355 9.089194012878194 8.886778703359195
Hf 12.68774997688566 14.436949093871979 15.24074020888906
Hf 16.643680208511295 13.016051115562144 12.429383462118707
Hf 13.883221367589663 12.46043133073392 12.92180774194646
Hf 8.610320655593743 10.210508589696397 15.405940694953282
Hf 10.243410075311752 10.47948377912482 11.54312496560076
Hf 10.183968794144576 12.677292229308694 16.12384652507136
Hf 12.693311218561538 11.945771304504364 8.122470338293914
Hf 14.772179561292381 15.324487302580641 12.802158777134984
Hf 15.742336820766191 15.695342283414563 9.819702400003838
Hf 7.532053504145936 10.219418610512696 12.648019747927487
Hf 14.490738693925733 14.24727627623225 7.616558789069468
Hf 8.793281837483487 8.803495070327997 10.20378067364047
Hf 13.241915054583503 14.612309960533642 10.306420075580514
Hf 10.964124179002582 12.944132613478493 13.262212157139468
Hf 11.816707274899784 15.828928951493152 12.75122564022595
Hf 10.944716100653944 13.25308702884505 10.325852751003362
Hf 9.846377807389675 15.089678667874699 14.709967417617255
Hf 9.741104478894659 11.40419876521217 8.632666652892638
Hf 8.128926621580913 12.811893161249188 13.921169143967742
Hf 13.65938742674804 17.368000420065155 11.024943328242236
Hf 11.54563747025983 14.645285481465875 7.630620966470296
Hf 13.417683358917685 16.745065417763783 8.301836384416651
Hf 8.151073130953852 12.459894532821073 10.86899541414898
Hf 10.94517390445677 16.54558460947462 9.827144868266048
Hf 9.063602774725624 15.073637299493168 11.866725028029022
Hf 8.893563819799843 14.537328241175677 8.950804250220445
