40
Energy = -345.94096142 eV
Hf 9.650163871981457 15.099028573380494 14.476980582658587
Hf 14.778229718741128 13.113006241168454 16.914241223213317
Hf 12.174324873214454 13.807744715154156 15.711875923409064
Hf 7.321743099310839 13.404313633349123 15.031658574518271
Hf 9.725898046225137 12.336983855766988 16.070775158632856
Hf 14.57344969669778 15.46879392182585 15.232549288770391
Hf 7.362360145109958 14.922645472795939 12.608483646591553
Hf 12.708247142896045 11.100036586930427 16.421471991758487
Hf 9.882310642377732 15.369916349839007 11.511893485973227
Hf 12.239559367253877 14.677011961516992 12.994871486785657
Hf 14.098346175293337 17.024894620119337 12.772167617646797
Hf 15.721701704617347 10.536343439647855 15.652531315830108
Hf 16.909511888245465 13.703365663000191 15.018333849230462
Hf 9.157366161780374 12.688182256076454 12.827433321918601
Hf 10.425882826401498 9.591802964116692 15.553234159241345
Hf 14.296236105386908 12.19940968650795 14.18438203467542
Hf 16.78325371371289 16.340818674343122 13.664989530807665
Hf 6.295810231412111 12.344021418989039 12.609064292745284
Hf 7.8953732459198624 10.540497265938372 14.44095803706863
Hf 11.578618468083446 11.485191229275303 13.584174546689736
Hf 17.299050272543614 11.613249518307281 13.333251223046178
Hf 17.883018353339203 14.145599154326824 11.87274937086414
Hf 16.17844843001309 16.474928407616424 10.902880593306518
Hf 15.19120236326468 14.326571258267085 12.444343601597012
Hf 13.125875242576399 9.104735340064376 14.424411841001112
Hf 8.126775368542566 13.072069330266109 10.303062568615685
Hf 9.94654109170589 9.024760594510097 12.808818941321704
Hf 7.695686722384038 10.316738050808397 11.479676671943139
Hf 13.411090078288831 15.535288103681069 10.312021981633357
Hf 10.222566526528386 10.671232407592122 10.516341975965975
Hf 11.394435013028264 13.185639262904434 10.471551166676083
Hf 14.106058150824344 12.051999453441411 10.760963986495986
Hf 15.41361002587699 9.699485420055263 12.609221223209428
Hf 15.988984223385707 14.152905818688332 9.3296334865567
Hf 16.97484069193687 11.48674527300689 10.516748549609408
Hf 12.629731404561742 9.434791859588369 11.437358696935732
Hf 13.306026528709394 13.52688351167316 8.258340447268573
Hf 14.934042167947641 9.402513385547019 9.755302064160068
Hf 12.642320424461923 10.731936252568499 8.647824895266723
Hf 15.334792379847238 11.610587299496672 8.130806048634954
