40
Energy = -346.04176226 eV
Hf 15.616486810012724 8.57458758932544 14.084209669620693
Hf 13.345108007045507 7.103319933331045 14.019844447768277
Hf 13.469115407438228 9.28462808145615 16.04476791687616
Hf 16.787377538431524 9.951192338918306 11.871395245501901
Hf 14.45140347019596 7.876768034254024 11.421758066014174
Hf 15.90611669641026 11.34407677202458 14.508960660404346
Hf 14.65407009954893 9.835859582317362 9.052445886929824
Hf 10.906533307078599 8.27531898687183 14.665288931255175
Hf 13.068865080345349 9.992318114475362 13.532955675447269
Hf 16.45622151030294 11.989765989223015 9.641524546800204
Hf 11.404590240479411 7.339849083528696 11.828303801504699
Hf 17.139524032365216 12.77868100794359 12.299175736241398
Hf 12.994063963047065 12.52008914458323 15.324821421221683
Hf 10.85315983406762 10.8420095786414 15.79797894642693
Hf 12.617402054135 7.765911898360388 9.156597683070938
Hf 14.59965271525933 11.680628751938931 11.751358443635755
Hf 14.827359566761178 14.049509656177495 13.658536906621546
Hf 12.194035141046717 10.016168383073817 10.833933755561858
Hf 13.48425924146818 12.594072802973749 9.072345696848316
Hf 9.539971642364842 9.54406104301458 12.45040274418536
Hf 11.94014445396985 10.317065430011969 8.00007467195974
Hf 10.350853250529669 11.953407524927275 10.081713069155406
Hf 12.633721380820946 13.898835959423051 11.604724682785658
Hf 15.226563312295966 14.469228720269685 10.705875952174827
Hf 9.945150136170506 8.857227932594656 9.582667375998069
Hf 10.826913690261495 12.051108977998178 13.194916880486357
Hf 8.273760196268064 11.385421523526023 14.47290869894964
Hf 13.82342511094339 16.467943485599605 12.351947083387957
Hf 8.029931305968603 11.792989943728486 11.667533522073322
Hf 9.90656685513499 13.674170560759597 15.34809827928546
Hf 12.13254729919051 15.451666891736943 14.369393968658425
Hf 10.813299182987947 14.243135266582035 8.766597023860735
Hf 10.076073048345705 14.711777934301308 11.917598300144633
Hf 7.978165273887859 14.307935782869588 10.11824766993371
Hf 12.60005114498875 16.25850817828419 9.80945343599113
Hf 7.565771112595268 14.159212452962942 13.3060787682941
Hf 9.325896335899111 16.251448484266515 14.336764594616612
Hf 11.01048816573267 17.414376133280893 12.197678067448177
Hf 9.7107568504102 16.62203446040735 9.646892894348634
Hf 8.064622639830638 16.68475255962284 11.869910246760067
