44
Energy = -382.4589967 eV
Hf 18.047909999721504 12.125284948828394 11.663276192437323
Hf 17.231369275995615 10.513696836566313 9.46139552837722
Hf 16.482496249530715 13.403171663077456 9.532010237970407
Hf 17.23052627537391 9.445531398701508 12.037631453845304
Hf 16.286553914019056 14.120097779921727 12.494682056376558
Hf 16.379021942503563 11.483237784691472 14.02377645486837
Hf 14.6862056094042 15.407937742545549 10.528122177006756
Hf 14.701275364305456 10.951677632067899 8.189360877840276
Hf 15.23732452490445 11.490966332902257 11.342603385332186
Hf 13.667300756549482 13.783516885627417 8.333714266258722
Hf 15.040271908423234 8.722363416604457 10.158819026906745
Hf 13.916028016328001 13.235464800110107 13.950362258497822
Hf 14.752111650391427 8.907534458293245 13.28236514480625
Hf 12.857016746797724 13.221576642334687 11.119775542834839
Hf 11.852598650231283 15.70063394331839 9.985660846925203
Hf 13.884179580483377 10.470780738185058 15.607549992092013
Hf 12.685286428903753 15.903085754653427 12.787190129493425
Hf 12.42762310340682 8.86634690187996 8.027237665326227
Hf 12.348751584629028 10.554027155605645 10.044577606114503
Hf 12.096402727197107 11.579181539969133 7.244325377767667
Hf 12.379156649590056 10.622398836772003 13.055336434642797
Hf 12.575599713325577 7.809411691885016 11.663908296011517
Hf 10.472312915718742 13.264567104252725 9.006428237812013
Hf 12.050717475625243 8.410348583229064 14.737293945080877
Hf 12.58723216930473 15.299536238958515 15.594205589928839
Hf 13.04003339869198 12.911182618298128 16.79045731022927
Hf 10.164134959085118 14.220457691328335 12.037270651516044
Hf 10.073298130598976 17.126761873360376 11.869081776966517
Hf 9.781724978928727 10.507397646089451 8.51757522898546
Hf 10.180220740520504 8.303609985086965 10.004377559332255
Hf 9.970631004213965 11.119109654219022 11.51968487196886
Hf 10.020701630591178 8.045553178797467 12.663080318885326
Hf 8.834558413912696 15.623517406703963 9.888615991485146
Hf 10.902770302114169 12.952994443475793 14.590987302845079
Hf 10.11403010385258 16.212979111779294 14.54195919717626
Hf 11.144565542251199 10.777337143841113 16.630714414058403
Hf 9.367675313541103 10.009518373044783 14.348631123022338
Hf 7.936851185397705 12.982431130353616 10.478122277493837
Hf 10.366708813876562 14.058021264278352 17.104936412548263
Hf 7.713980334616913 15.407335299280833 12.55741748131315
Hf 7.815647646477825 9.57273186464116 11.661422075660315
Hf 7.695045176889088 12.319240390866739 13.309924297773264
Hf 8.561938737659771 11.947446394604217 16.19971631893489
Hf 8.178550087432171 14.395558523332534 15.186829433669605
