42
Energy = -364.39171958 eV
Hf 8.8347788438317 14.104151420346792 15.489830854065213
Hf 9.58014355180512 15.660579410791684 13.104579067889523
Hf 11.401774825501965 15.208166714865056 15.550154377111808
Hf 13.122969108458737 14.001999522567381 17.465623250346212
Hf 10.769413330379013 12.396273129670636 16.641489329013663
Hf 7.590995932374934 13.496649467701227 13.201191713353413
Hf 12.37773351895287 16.72859472861889 13.12195550940516
Hf 8.543808718302145 11.213069518588831 14.725740453562418
Hf 14.372682772316837 15.533558040363983 15.270082962965189
Hf 13.430721199737095 14.097741807000906 12.468256167478302
Hf 15.211575267757407 16.520880697346236 12.766991928669434
Hf 17.22144368850363 14.901334696646344 13.960313910026551
Hf 10.522981252733535 12.704566511063407 13.477483024052045
Hf 8.306221412914235 14.602713521606429 10.625414528083724
Hf 13.181148771602178 12.574919673672065 14.978536608160711
Hf 10.773798554011432 16.443602094092792 10.442210872964528
Hf 13.747131591288172 11.179502925399277 17.20819336337945
Hf 8.396342062341533 11.580529729693655 11.430580290549583
Hf 15.879134579312451 13.401229450026435 16.71265945871028
Hf 9.959995288981421 9.401353886900928 12.579332199686522
Hf 11.357367051270362 10.130358274615816 15.040948661143643
Hf 16.39498083275321 10.667093327229338 16.129135403754137
Hf 11.00105097618066 13.491310207759858 10.400447541522757
Hf 18.29294157042118 12.417280723032171 15.10664681236188
Hf 13.752583165419235 16.164097657465952 10.490341615027882
Hf 9.750421999416076 14.911658835724678 8.16267872638849
Hf 15.762877690592761 12.525174820552243 13.8099742677164
Hf 14.491379555449704 9.72112798670568 14.26362956225103
Hf 16.20107141354476 14.384366331653792 11.116251212015436
Hf 12.709924033709171 10.8453779024771 12.064017399982907
Hf 12.364422406967728 8.076723944114976 13.30919538227489
Hf 12.446823116678713 15.073230992875148 8.259007224633182
Hf 8.749117100206352 12.408447826781178 8.704089524065363
Hf 10.61027865072933 10.509688706051191 9.715974205771499
Hf 13.829077804571444 12.982067823647123 9.69135672335988
Hf 18.165179098756997 12.603231249741672 12.287374574108327
Hf 11.480681593553294 12.488079574318702 7.703015417677561
Hf 17.350767000538838 10.127764728992185 13.501852351501881
Hf 15.71523160683922 11.23272781833632 11.15478416560477
Hf 14.562720401002721 8.550706584327427 11.54245236241231
Hf 11.905159420298766 8.223429979916352 10.613925796646065
Hf 13.567141459910593 10.128811197521026 9.292845797759155
