44
Energy = -378.87769113 eV
Hf 16.39973396203426 11.455001234120118 11.075991053167813
Hf 13.106974633159544 7.337323227546267 9.546952785233474
Hf 15.409824337068454 8.709344497771674 12.053659996143015
Hf 14.551009206778836 9.809227587080247 9.61074297564278
Hf 18.232760380720375 12.812202622538903 12.848040744541777
Hf 10.432801917600337 7.518208887572244 10.189359396942953
Hf 16.517675597283418 10.745053865416411 13.972250767764507
Hf 12.47808013361139 8.597499547013959 11.958948884297667
Hf 16.811367186832697 14.634624308293239 10.882416580635748
Hf 13.890459074623028 9.155828531673324 14.68619595566473
Hf 11.7373120393277 9.870764224276089 9.206248529056761
Hf 13.840072911723949 11.085437348602605 12.231906863357668
Hf 17.15954617770364 13.36212461327079 15.539863384056613
Hf 13.889475069701692 12.816536536580793 9.911076164111357
Hf 17.718038194387603 15.428877831979062 13.515501961260968
Hf 9.658929941785553 9.667678212972778 12.247776391706655
Hf 14.839904412012153 11.414067254521845 16.291834389411523
Hf 8.895492349991851 10.173985791251953 9.53799337415249
Hf 11.041898654139576 8.820660917492058 14.530808478016565
Hf 15.492418514344271 13.522668383110954 13.089105506137864
Hf 11.76376528455521 10.6155209538997 16.655247252759324
Hf 10.908201887225681 12.112052664000107 11.034275115791308
Hf 9.895821170760701 12.511715109008446 8.239552363104044
Hf 11.511572048691935 14.726966323080074 9.80730876911769
Hf 14.193638238250715 15.706253966789125 10.110820074886592
Hf 15.75906562117391 16.050723478220853 15.59150107852796
Hf 15.250625660753684 14.03561373294842 17.556331937965375
Hf 7.090643659325426 12.255160172733481 8.816597507612189
Hf 15.276276288770795 16.601476877145434 12.557296580763776
Hf 9.289096445109157 11.003828239776105 14.951396199258314
Hf 7.822403051674228 11.77628420146502 11.640542214792605
Hf 12.81794076016931 12.952741118989236 17.820518410823205
Hf 13.528736254822366 14.019613420647968 15.1730430396531
Hf 12.604498017938342 14.350684178096733 12.347424481243362
Hf 8.687266174269693 14.20977329079268 10.20770374375112
Hf 11.878474350653343 11.723574467202276 14.082170971915906
Hf 10.086308426545992 17.015277086846833 9.472142606262711
Hf 9.590329677769777 13.53164152787912 13.260722111116747
Hf 12.943094097552954 15.81204151709008 17.11956975629909
Hf 12.229971324552807 17.167311456299714 11.769715929497975
Hf 13.363793410985142 17.12454371312589 14.546168544912685
Hf 10.502506044965685 13.390087123206449 16.187168450466476
Hf 9.650067731110301 16.144151610822764 12.024333088987406
Hf 10.989203124221435 15.884312038525819 14.558190299156387
