41
Energy = -355.408609 eV
Hf 10.733103946502096 15.287152989197594 9.343336973955779
Hf 8.717432149775085 14.684881250906757 11.394433318658425
Hf 12.968470364841382 13.133932931495645 8.616170482007801
Hf 10.584972126944319 16.741546292244415 12.300592112842706
Hf 13.369398691652183 15.957077121408439 8.31114307191809
Hf 12.374712645487989 17.642119874943823 10.306422916477368
Hf 12.532842228920071 10.098189422135077 8.475469021956398
Hf 10.872247967571784 12.275316963136087 10.284963054771103
Hf 7.911976147752582 11.523866383305466 10.98066744583426
Hf 7.66328050374797 13.112307487978248 13.346046642277532
Hf 9.094696064408156 15.16535665966171 14.511285282943925
Hf 15.487593668403392 14.081653087556436 9.47631287147039
Hf 10.877095229153772 13.677690489483298 13.002607720853696
Hf 12.94379887570242 14.901369508463226 11.114919085689488
Hf 9.957440305785372 9.530855343108959 9.913572649695805
Hf 14.059158599582847 12.210323742761602 11.257608289635748
Hf 15.070400326859998 16.822483860938036 10.38217479253635
Hf 12.02085737058952 7.433856944059242 9.590768148278489
Hf 13.62681869157964 17.02305414867065 12.925004787275304
Hf 7.937623623114107 8.696464669597361 11.850128354759573
Hf 11.729102335533714 16.052717436312506 14.812429013289375
Hf 14.605548342609268 8.331652285660901 9.662018516274031
Hf 15.830918679406832 14.724284577799393 12.302928799127663
Hf 15.424577518270508 10.966516487494907 9.102268527112335
Hf 7.22864848506458 10.4981056318142 13.755820341642604
Hf 12.588070199228879 9.5809581110991 11.377755031277227
Hf 12.805554764022439 11.574890250952285 13.783348325396402
Hf 16.937690087547875 12.253230474944614 11.18837145779423
Hf 13.89428963519781 14.246804474776493 14.377289492138376
Hf 9.147143617793981 11.703301965499685 15.456944795478071
Hf 10.547195440646894 7.440452717558775 12.082782811876326
Hf 10.031958302411555 10.513297930008731 12.788815328617565
Hf 11.55808952713686 13.336647762077463 15.868633826188821
Hf 15.79623829238139 9.683769966235623 11.886976112393473
Hf 13.690905063660281 7.178106149536329 12.16969775055334
Hf 15.89338327067587 11.900535639413278 13.896740614881018
Hf 9.17182364868591 8.639094947275751 14.717198241261702
Hf 14.395116972915565 9.334237446512264 14.613381131646422
Hf 14.121427439982398 11.84543262694051 16.199258548180673
Hf 11.95363582167726 8.03518201606612 14.313570959047091
Hf 11.703876871219672 10.174575392913374 16.070517814145965
