40
Energy = -341.52370686 eV
Hf 15.310047477680467 10.143628274451872 7.63689847031088
Hf 16.311650326705536 11.915571859763997 9.701672890708739
Hf 16.54374845377482 13.361671267685956 12.616379059344155
Hf 16.964224081378553 14.383613788931916 15.331629771691079
Hf 14.14374563932412 12.71686522654952 7.823587018816447
Hf 16.03876861041346 9.036823598755173 10.11455968671032
Hf 14.216858064613346 13.900042012973527 10.587303789155593
Hf 15.703436241466076 10.700249606480266 12.431205780998535
Hf 12.088251686375564 15.360013231673626 9.157782659015185
Hf 14.886252716757019 15.486689684430122 13.795050837957778
Hf 12.62752606702207 16.262290580042162 11.918996868884445
Hf 12.465800137669422 10.276322715315562 7.387676071746113
Hf 15.513888493508713 11.95312438597676 15.301880047060049
Hf 13.613162034455781 10.83616163472418 10.018838879835982
Hf 10.141858922835903 16.948672944700817 10.519901962850572
Hf 14.345587285813588 14.320970004681925 16.340313003471206
Hf 11.426467620282084 12.62282480928115 8.694506962107404
Hf 13.632756855552536 8.070170095034106 8.846726040615044
Hf 13.682189779839316 12.897547939862068 13.277750660967644
Hf 12.1293154139222 15.013974398831404 14.65955513353928
Hf 9.96327622955219 16.190509464522258 13.175686611652566
Hf 11.853919403789918 6.36751040838224 10.748752276464682
Hf 9.145633926469861 14.400320815516906 9.557811549792403
Hf 13.823586749252957 9.78668154301989 14.4142346259332
Hf 7.79660243571512 14.7857295764634 14.444951193647622
Hf 9.392349361607438 11.55834860767827 10.359609063009431
Hf 11.234568598092084 13.777501043710325 11.410650004795615
Hf 11.757798344988634 10.776662711509108 12.476673773893117
Hf 12.448700657338131 12.009707362392984 15.780435792374142
Hf 13.569531711582714 8.369389664599957 11.765418964348777
Hf 11.168698667057436 9.020003664987186 10.096997085145745
Hf 7.725523192317636 15.92251508680032 11.647645403752465
Hf 7.272437520507251 11.923931379814052 14.565260255100403
Hf 11.071450615721306 9.478816889523536 15.293760187018433
Hf 9.014870974649474 10.349570083775298 13.081807227310543
Hf 10.01825567737031 12.956034473929451 13.93281759287895
Hf 10.773645863001718 7.992806793797194 12.913136690179265
Hf 7.705159652670622 13.14832886509818 11.963719894707486
Hf 8.302903179471354 8.876715242302152 15.173672780635687
Hf 9.38410583912932 11.400418282094387 16.257670409407
