49
Energy = -426.13766631 eV
Hf 16.213380234975435 16.307606204747604 11.364729345764346
Hf 17.70721970568473 13.887950478692632 12.333798887307369
Hf 15.196953249040572 15.16566830353533 13.765499429731873
Hf 16.93499313395246 13.401683183142493 15.105918815674553
Hf 15.635512533940878 15.417518822267247 17.1737448334824
Hf 16.23280745307981 12.536240799571418 17.763810171934338
Hf 12.800631153442675 15.71818226586697 17.96566503150464
Hf 13.112550309904451 15.12727112334989 11.356906332616797
Hf 14.080098675046164 13.665226447801944 19.1049914583641
Hf 17.628602946224994 10.948311378180355 13.479066145598624
Hf 17.409812164015072 11.639818136280315 10.722907409675889
Hf 15.746560408093357 13.964589151382125 9.966612628785924
Hf 13.248565505690186 16.403724875133317 15.2906667872951
Hf 15.205486591344561 12.491482807487172 12.562135888222443
Hf 15.382741373921007 10.824037227530436 15.459136005152146
Hf 11.988378186208472 17.822360921365753 10.596078093479731
Hf 10.71759680024349 15.263077632026416 16.029695226407874
Hf 13.950092068282682 13.48582432532598 16.15564020888181
Hf 13.723874591562819 11.107650081971792 17.923357282088205
Hf 11.243261501459138 16.712089033137236 13.238328958034037
Hf 14.79428218597703 11.123479578240232 9.597039569769997
Hf 14.261223361473784 16.587232989461622 9.291485547310701
Hf 14.017226772615647 17.645565867439558 12.462860794534341
Hf 11.50900485727095 13.025190296456092 17.79693672114888
Hf 13.337219058094346 13.639853972332478 8.235724060564001
Hf 15.943524583601127 8.104076209299068 14.221112636753523
Hf 13.5794587748479 8.562983434698053 15.78246202307073
Hf 11.310998560248086 15.76460620647264 8.757957750057644
Hf 11.967085042458542 10.89697946215878 15.558637169856121
Hf 16.126854015384584 9.300141601617272 11.613438753229218
Hf 13.631932858318734 10.129717261383247 13.185142348600488
Hf 9.601559036517891 12.61382208126004 15.243640099909335
Hf 12.055970694762857 13.66133785247701 13.852345483187664
Hf 12.462068128550184 12.239934740908556 10.714431550702722
Hf 8.934136886773182 14.846693601666107 13.652408930967555
Hf 10.028169380487068 13.873348448847064 11.055311118396755
Hf 12.222210920850786 10.846288485198382 8.237434568482168
Hf 9.357992752009823 16.773277421819813 11.004583462014276
Hf 10.33694706143372 13.02145366327314 8.138983707562035
Hf 13.595618253339302 6.167804317076461 14.524053379957593
Hf 8.473572958343516 15.183471426708252 8.830144271915437
Hf 13.991343494082871 7.38161681431259 12.18355330132694
Hf 11.550154950678856 8.233469056524775 13.612652528849075
Hf 10.721218672397 11.240679900602442 12.809119043330487
Hf 12.476259975702531 9.366964178449322 10.754981582398049
Hf 7.937174865585265 12.269840538506271 12.542658900739335
Hf 7.248828324270693 14.729623490437195 11.32915675328166
Hf 9.902734121537415 10.783709355635471 10.05537425701217
Hf 7.7849063407438805 12.60210753408616 9.548267845383723
