42
Energy = -362.53042392 eV
Hf 9.564542324651063 16.080358303291177 9.376547438040781
Hf 14.062279989527903 16.442692777396665 13.178529624271357
Hf 11.761796693207259 16.107964135029665 11.177312796200447
Hf 9.606655607222667 14.37690868882997 7.271885169001586
Hf 12.145994110643551 15.382030293936339 8.319159522490466
Hf 8.974039993915826 14.997525943731967 11.983446548504725
Hf 14.459504021500214 15.886586441202388 10.38406139550812
Hf 11.219609329657594 15.190677607849084 13.989943572300339
Hf 16.226812001017834 15.564325201561333 15.065405545087815
Hf 7.808234927963201 13.787507120055745 9.550126134496146
Hf 13.76702777710341 13.140469986171494 9.391195376625745
Hf 8.66500729120997 14.303520164644032 14.699945608876716
Hf 10.710525394312231 13.31519206098828 9.920556499258383
Hf 13.461775943171874 13.752714912940387 12.280072832760123
Hf 13.61035500515403 14.29966208190989 15.453705061133975
Hf 16.385166097034354 15.022553362529157 12.237727899520289
Hf 7.267618910708351 12.724838683007103 12.748245802238673
Hf 15.885611103103528 12.314716144972639 11.129228587997588
Hf 9.057813535819209 11.792044579860988 7.872962150300074
Hf 11.79840388492267 12.44248174634564 7.283712017435198
Hf 10.886709131210623 12.824854235448841 15.930466535268414
Hf 15.873829528716053 12.895044305237723 14.05552842421127
Hf 15.893693693965716 13.471512664559596 16.95184488005549
Hf 8.518589714860049 11.121498381539652 10.625390146794562
Hf 10.222014032245697 12.25620829972524 13.104926834679247
Hf 13.145735389336966 10.964071245533992 11.301924834277976
Hf 11.064600419905743 10.206831159300762 9.108022296141149
Hf 8.181858246248186 11.702449283229235 15.362636052588147
Hf 13.077108562605257 11.485924850324833 14.365241099878498
Hf 13.439821788194093 11.957626857846734 17.29896811580825
Hf 13.790010414225781 10.306355643879796 8.41178911550895
Hf 15.731275051928721 9.477753356868691 10.257166117811293
Hf 15.54927679848113 10.054220311555772 13.046197327084444
Hf 8.174218294021891 10.03335218717675 13.208451127819659
Hf 15.582116353861055 10.597108511692616 16.06162654692402
Hf 10.534801011718976 9.28051220769331 11.918494686570583
Hf 10.559849634080537 9.952148912012195 14.929408103599878
Hf 13.109908800829576 8.24809281174331 10.295481872938629
Hf 12.955702668727461 8.56880221868928 13.431968249749351
Hf 13.138113776078434 9.217529947191723 16.333367315900517
Hf 15.284937578704074 7.336128340698766 12.142514168556017
Hf 15.253202435785806 7.805764563230054 14.939012701037424
