45
Energy = -390.95405991 eV
Hf 13.907024950015078 15.170862680307577 16.417345913379684
Hf 15.024807629185931 12.813015769942242 15.008397632062742
Hf 13.526594634775776 12.511782484176837 17.47509997440888
Hf 16.300795261974518 12.398391753844209 12.474991412850663
Hf 11.65552243221987 14.554413278062723 18.036362643903637
Hf 15.604323713436825 9.835660169519908 14.372413407304377
Hf 15.82651520330291 15.277744369666028 13.374494704997474
Hf 13.40033624134655 16.66043826663288 14.082828274199224
Hf 16.610921554234444 9.738013841829527 11.672842829479436
Hf 11.00223578794004 16.254432353782608 15.748918950242482
Hf 13.504525875928929 13.867844829636867 12.717844885475717
Hf 11.617251842542336 13.532124990888377 15.225744128152998
Hf 12.6843422525571 10.74492632037411 15.398273725231938
Hf 14.826499924019998 7.816234574463702 12.28861146291473
Hf 10.749648044645191 11.77068187206258 17.47039813792832
Hf 16.49138865547684 11.521826340316542 9.384848059017257
Hf 15.559765837044433 14.38217178938077 10.353916852329808
Hf 12.88353375328535 8.208302184299983 14.268459102222918
Hf 9.19496346774515 14.052320505174931 16.81473993344475
Hf 13.755592945985818 10.603055574946447 12.470598062233616
Hf 13.864654879472399 16.47616372766101 11.29961722974008
Hf 11.02041167261211 16.008513467579824 12.680320353137985
Hf 15.002034094574382 13.382267549889098 7.6855314694613615
Hf 10.310962116060356 8.974934071671493 15.61648941946677
Hf 8.910994439241781 14.678743108403241 14.129735742725519
Hf 13.761431215007846 11.855143848157388 9.836558691526236
Hf 10.271418087371936 7.265436510583691 13.202397644953452
Hf 14.745500639538749 8.909518147019888 9.577718969773011
Hf 13.395617203666736 15.646711522571385 8.390396010612085
Hf 10.751002185893809 10.066592381556891 12.98505212062805
Hf 12.173511329338995 8.254973219329178 11.027019258631656
Hf 11.823622184344856 14.202391743352097 10.148130505103863
Hf 11.271347846987382 17.048457616592 9.893603865041733
Hf 9.098315739176813 11.77113689378519 14.909506765515706
Hf 14.469881254672647 10.74921167928005 7.2992999276596295
Hf 10.997705378860799 10.925565903983788 10.274330092703066
Hf 10.464684143916433 13.079644827379754 12.316491859225733
Hf 12.049058448014923 12.598183119096115 7.517117239748814
Hf 8.164322999479378 9.158906739716299 13.683206814941455
Hf 12.1948807459841 9.50242058957997 8.203687460298061
Hf 9.08476482266933 15.215224860190489 10.545896625620585
Hf 9.15475042700349 8.686860648318973 10.973356565054141
Hf 10.463009072527809 15.18794948496901 7.915042125723422
Hf 8.32766378970575 11.384026008280811 11.741370697295638
Hf 9.369165044952904 12.82006890846249 9.061863545477898
