40
Energy = -346.04599967 eV
Hf 11.251390355130177 17.73587671845446 15.384586212199903
Hf 9.87469890565522 17.10083513156207 12.975319301518649
Hf 12.6787679738513 17.67410210465052 12.811882306575427
Hf 9.341257337231383 15.57993094043153 15.428019663779587
Hf 13.934895188255584 16.851696529913305 15.2911303437977
Hf 11.908839015843363 15.268132503086903 16.79931162499308
Hf 11.844065678963222 15.262144615062976 14.002337928741404
Hf 11.76169871535742 15.03621428894319 11.17723110929988
Hf 9.452165322097498 13.850246877903938 9.668106178502315
Hf 8.9427931955316 14.467393225922518 12.81938900108655
Hf 14.587471621190629 15.446562522276919 12.840709507897255
Hf 12.06744411185916 14.282196360947728 8.352694603842439
Hf 11.018334403204852 12.745319468259892 15.247743646954875
Hf 14.065485585027618 13.87121809274967 15.406956186289538
Hf 8.389437819686682 11.922776636994083 14.147154017758886
Hf 7.686581933599001 12.277272666104325 11.443642956101051
Hf 14.29502315839003 13.329718403819966 9.924581948747242
Hf 10.371315872161727 12.42676952451523 7.259088655899093
Hf 13.525465468043615 12.8535778975677 12.85739260385386
Hf 11.688516086060803 11.640013759951875 9.763313734431348
Hf 10.50551301789649 12.270129900139036 12.224413033755859
Hf 10.146801199567362 9.649190057978423 14.945971891856923
Hf 13.231256460547323 10.672468738665522 15.065759244621134
Hf 8.660612249541732 9.677122075987617 12.21798858526491
Hf 15.85044998544993 11.343486159248828 14.06211609932767
Hf 8.881680579605511 10.874575349543514 9.24003805066636
Hf 16.370983609635626 12.693804759376462 11.661828756780391
Hf 13.317086038480335 11.750990121168744 7.4777943079335065
Hf 11.072501024998907 9.80880842793104 7.570879598815803
Hf 14.315987019562623 10.58779571200395 11.512060951009898
Hf 11.824430358638912 9.753560658354244 12.642858251633342
Hf 12.45276452320914 7.866228090664408 14.692748262624477
Hf 10.309549515049493 7.42140449405654 12.945385852271947
Hf 10.656162539509737 8.550854034588168 10.179689244435417
Hf 15.92927590724542 10.736511684240021 9.254997738232197
Hf 17.13395962033261 9.954010549252448 11.882740571581651
Hf 13.385966106541481 9.043172544641758 9.033469286784564
Hf 15.06285074513146 8.533031378802322 13.541704265062245
Hf 15.572932713304052 8.106278680698482 10.645799936594628
Hf 13.023439719813588 7.238516670984186 11.780119171151142
