40
Energy = -346.01906756 eV
Hf 13.092680603414797 16.886585912075216 11.926235200307314
Hf 15.468955239356598 15.879772821417044 13.138504847565466
Hf 11.950578506373013 15.611958012592257 9.655083774799667
Hf 15.127907249147658 15.556807510457142 10.200550179439935
Hf 12.769627918771926 15.413019738966542 14.481209429164062
Hf 10.663534341713246 15.154147768236964 12.324715225339526
Hf 9.394758603466327 13.80252948366299 10.034341036937226
Hf 13.676615096679232 14.040809938368913 12.106055436482709
Hf 13.794214142414619 14.079044457190221 8.056312225290965
Hf 11.114021431245163 13.30606768722296 7.5551233526080726
Hf 10.14514456155718 14.177755733828134 15.2166740613293
Hf 16.511379812327306 13.434406759041611 12.051637252720518
Hf 15.502906295582846 12.628817317534713 9.596053993352557
Hf 12.593435406016727 13.732282434574529 16.798988470377694
Hf 15.010855181426484 13.361646019434357 14.74977974960888
Hf 8.397247195882612 12.034110540121397 15.275594049047388
Hf 12.400784378755421 12.254928031160311 14.330395683542019
Hf 12.175343891661361 12.73681923487273 10.18014380133504
Hf 10.023664570865204 12.083107795172321 12.718484387359663
Hf 14.372316430547066 11.213392849720634 11.745737434670746
Hf 13.837561296290476 11.284284485445317 16.66166446620907
Hf 7.851250713583586 13.606062586561427 12.864922780822907
Hf 13.454102933005776 11.116033043584178 7.864458633964962
Hf 8.19541074298011 11.046459886839642 10.561984989632306
Hf 8.828518881783681 11.726778471015514 7.999022695020575
Hf 11.037153120358214 10.306487567914102 9.627396157925716
Hf 14.941184316030986 10.32521720581636 14.312200887229357
Hf 10.79141094914357 10.43500382864375 6.622941623318966
Hf 10.862114242948019 11.455015013444136 16.621560319510674
Hf 11.750517227641895 9.810247387678299 12.464418324360228
Hf 7.430922351622437 10.651521511463262 13.204912927117595
Hf 13.896751273285304 9.011149587511753 9.943664943218376
Hf 9.565046207877067 9.39776747170902 14.73444889907766
Hf 12.551619277269126 9.025797686332641 15.319712821561115
Hf 12.144301660294955 8.391490143500556 7.852296621579679
Hf 9.083887760159175 8.566294569245368 11.806218774157562
Hf 9.11962253205013 8.807340576269656 8.54409137250447
Hf 13.833116294547475 8.003875436366181 12.745883154355491
Hf 11.611886674741845 7.422664704223258 10.613440782506457
Hf 11.09248553592501 7.275322890573774 13.487289906377269
