45
Energy = -391.47651676 eV
Hf 16.344470098148914 10.145236567770189 11.596243628182194
Hf 15.607922395770712 12.576904942409795 13.085051010985232
Hf 15.546023092239425 15.168071840021728 14.476916471883747
Hf 15.080045523454235 7.534895490588258 12.252320984222665
Hf 15.1272700539431 9.758809342658703 14.262609559176274
Hf 15.142208751598544 15.165706462141447 11.694734923934304
Hf 15.596272075964889 8.367197979691541 9.608349241947975
Hf 15.154435207055549 11.11479265133326 8.866114053907163
Hf 13.684149211721785 12.682551466473747 10.987611704665673
Hf 14.639083982375798 12.619168324291229 15.806650633519496
Hf 12.664730946963976 11.338484981999141 13.660929154447976
Hf 13.03139655640668 13.921063769840519 8.488082609235079
Hf 13.146305882425342 6.968677976635618 10.033804937689787
Hf 13.418377689652665 15.196327366711275 16.18918122512097
Hf 13.210430454865909 16.852436698011203 13.61684349315925
Hf 13.301981311872872 11.570129742631034 6.578775471881217
Hf 13.550320650403247 8.861256790254957 7.672016981730918
Hf 13.513522229951565 9.616285300011317 11.228756678551857
Hf 12.980383975709 14.181220049185868 13.435383166620783
Hf 12.712413487000699 15.893329352686294 10.652908252898111
Hf 12.53531207336884 8.375882986854226 13.889370574800097
Hf 13.026700357608808 10.215636785452645 16.235079787990053
Hf 10.781709456058552 15.545268009239626 15.230851724134178
Hf 12.056165012299136 11.038857678044794 9.0294235615863
Hf 10.555893077791609 10.148114222366198 11.815795000672415
Hf 11.729953461534548 12.868662902055359 16.317488983586493
Hf 10.494363858961497 16.167422275129848 12.272924340999285
Hf 10.704685339945813 8.217615799100413 9.116852120929808
Hf 10.298731556344931 10.468846917646305 15.512574337414273
Hf 10.813701206047291 7.092327119704021 11.728421210259906
Hf 9.611129825187021 8.17266176830043 13.867481289056585
Hf 10.316098154933085 15.491509594855579 8.997831086271958
Hf 11.011674919899002 9.864825753995495 6.6012906794365
Hf 10.804835220932377 13.280216613683017 10.553225603083257
Hf 10.719278829160759 12.796958395653883 7.060779588651536
Hf 9.86150470893771 13.123471957919195 13.33879592821562
Hf 8.287561663632102 15.490861778578669 13.99111178699904
Hf 8.351292178721316 8.619327827196146 11.19511505789234
Hf 8.668662508518254 13.124690625517786 15.796267042086448
Hf 8.15463375465734 14.718287202075755 11.164557138223616
Hf 9.070540106622428 10.50734919883485 8.693472375918274
Hf 8.488790027832573 13.252401162283412 8.727350174918271
Hf 8.091832142287974 10.582050766981896 13.743669854118387
Hf 7.845286022548892 11.755029315124997 11.084321674928557
Hf 6.943652222543247 13.196590270601103 13.383118755853818
