46
Energy = -400.28151213 eV
Hf 16.187053937283128 14.140980918861873 8.649080083777275
Hf 15.612564291296732 15.34870064777053 11.369511845329574
Hf 17.057250640128544 12.681816541752646 11.102283515859707
Hf 13.795424217676931 15.806735645436403 9.070009050344181
Hf 15.426834563115987 11.209614268385454 8.088917406102068
Hf 17.057348750300534 9.966616060586317 10.016764506308027
Hf 13.31369607929579 17.332876699010168 11.556279607600885
Hf 15.050962413343935 13.033981029477022 13.334258174565093
Hf 13.70893897850067 13.351294188785923 7.437537076489654
Hf 16.927632556377542 10.345338989895076 12.89430955001263
Hf 12.595760874086343 14.662748801285133 11.545421362871604
Hf 14.00508684119943 15.645252333848806 13.882500056299383
Hf 14.640873639345397 8.292731989066649 9.195093405350269
Hf 14.290693928786363 12.820535816031466 10.249917898895468
Hf 15.923035357976836 11.144855304795628 15.466912939417917
Hf 12.561860264202286 10.902007571165543 8.592657679775856
Hf 10.897610293297815 16.393045153559175 9.87837243093643
Hf 16.26101480204607 7.8950932096179605 11.622924604373736
Hf 13.521819599825482 12.584303943104041 16.056503867365898
Hf 11.204157703943466 16.276653873728634 13.454721788944273
Hf 13.42010867739537 10.580098787125191 13.977813782973447
Hf 11.212336794418581 13.689973786791708 8.987717020954648
Hf 14.32763613736292 10.102790168315622 11.179836756551223
Hf 11.827751715755538 13.390011875948861 14.00568168067377
Hf 8.843657965042611 16.79405751013772 11.740909188846643
Hf 15.340390914523525 8.388856044773863 14.437062339330286
Hf 11.541569492341232 11.513241585432842 11.358383285280178
Hf 13.852244724054842 9.72564469958497 16.67867799501305
Hf 9.647644681272176 13.970435650426328 11.792520290008722
Hf 8.294001976702521 14.696714040377477 9.48435262303223
Hf 13.518237041399397 7.399712057998587 12.121748809529683
Hf 8.51248559716331 15.466056174529692 14.232091627040727
Hf 9.243312769711402 11.803619242763233 9.43457664136182
Hf 11.777269980421975 8.701507075905306 10.158019674436764
Hf 11.053572181637408 10.629718055059852 15.698946527368694
Hf 12.459959260014458 7.949881056722156 15.013983283257852
Hf 11.12434676611116 8.931935827664113 12.809345214657261
Hf 6.781334632608698 14.973227785274533 12.020290712022907
Hf 9.539908238724705 13.331518780258834 15.910198967793121
Hf 9.288100514830477 11.583147689961017 13.517377863487013
Hf 7.033049816838356 12.251208511756511 11.222586337370785
Hf 8.640880889077103 9.6782388301381 11.386204732760152
Hf 6.910573890844832 13.147426590048154 14.341714954138393
Hf 8.804611382308561 8.79490424118359 14.272840198847316
Hf 7.986520031515739 10.933742192651826 15.95892918885622
Hf 6.641869151644023 10.388000702494898 13.431361917864912
