45
Energy = -387.72533826 eV
Hf 16.42897235246483 10.116330128764744 9.980516752126823
Hf 14.510724701300278 11.408684439097826 8.35829493611052
Hf 12.419935354409715 13.2263769154985 7.6515437270724185
Hf 17.016791724216223 12.748221407509448 9.387335990918894
Hf 14.823331548388264 14.482576669665482 8.74759739786912
Hf 12.005047221608596 15.921106242201764 7.84631862361284
Hf 13.671791691231407 9.533972264301314 10.597683401692946
Hf 11.689056302602268 11.570650982660625 9.933393275544791
Hf 15.789173210350947 9.297626170431839 12.587496997148811
Hf 17.440176969782023 11.81500863881893 12.127968496632548
Hf 9.980223625085884 13.886440316217785 8.792827105517926
Hf 14.622948399140894 12.370474806519637 11.006171272313978
Hf 16.69932140621374 14.601795491724985 11.652552995415846
Hf 12.263725670984037 14.664355291850871 10.398117799383762
Hf 10.743688004877207 9.514136406692709 12.3794205090831
Hf 14.4415491211873 7.8043533250051125 15.047621813412425
Hf 15.118461682714115 16.695458342824494 10.814292391971177
Hf 13.222567015087023 9.918737445938842 13.617181463780533
Hf 9.016215353547153 11.595067389209516 11.71820880923063
Hf 15.011519552195674 12.158826755767189 13.828981703662162
Hf 16.365723662616478 9.99732648283669 15.176908459432363
Hf 9.989201152445135 16.496884724470064 9.778588617278535
Hf 13.74316216138905 14.940966105282797 13.098579590775337
Hf 15.773678377495203 16.761716893412917 13.848555121331549
Hf 12.439907672072886 17.694346948347643 10.146978259365405
Hf 8.23391356726228 10.151771570879909 14.08283463881953
Hf 11.813683101836384 12.505588831300054 12.63973320392863
Hf 9.421842929298778 14.451224301158057 11.710753638012303
Hf 13.926414066844735 10.049222577408065 16.715447034779928
Hf 11.670995736001265 8.505347448204459 15.564561342661499
Hf 16.89438341816872 14.134655830633037 14.47193080970326
Hf 10.701866763246839 11.106240383363433 14.833431942827346
Hf 15.878569373694933 12.432407816006965 16.645595126948038
Hf 11.015383234377536 16.86685467747714 12.574984510128628
Hf 8.387050990403775 13.020879761449736 14.038267050212589
Hf 12.818181436073207 12.88827837692225 15.683646208595823
Hf 13.599688571284048 18.04875456017931 12.638520367579778
Hf 10.802434395957688 14.716606721935023 14.568079220838099
Hf 11.466846985870967 11.018498376812575 17.723548917231128
Hf 9.782504403736993 13.147625974791376 16.787730381843144
Hf 13.594064398127355 13.062337123755812 18.456529564699125
Hf 14.771312281544388 15.055692003356375 16.337710996573318
Hf 12.883661951830636 16.917765105999585 15.068212447443125
Hf 11.851506088194737 15.103350286984455 17.44147955316942
Hf 10.893694363732862 13.288848936579132 19.470830817822854
