48
Energy = -417.89105925 eV
Hf 15.67596929015166 14.670381725693153 9.886731710815958
Hf 17.26683127752237 12.21497591005015 10.690120084860903
Hf 13.112280677537735 15.180469274917057 8.372683834794657
Hf 14.928387590722457 12.499764240905794 8.437739526266382
Hf 16.45187970421058 14.625339095998289 12.571404534700578
Hf 15.05469340461291 16.9081616221476 13.850011166145993
Hf 16.993121013184584 12.073570064098993 13.898982419558463
Hf 13.753253726953105 16.099625170357708 11.347855011216454
Hf 16.004720443759354 14.618365247265677 15.59861458429933
Hf 12.340103663445959 12.471417045311973 6.940152887822666
Hf 16.594937283298943 9.785582240845226 12.258992796676607
Hf 14.786720000442875 12.119554985575297 11.644635329446768
Hf 15.249886472111685 9.872850885167688 9.75331642095999
Hf 11.062315787393644 15.933999406874156 10.520480246856732
Hf 10.344081692824384 14.042977013300193 8.495340657416694
Hf 15.96444279735355 11.84119594746452 16.612509030971324
Hf 12.61321681306885 13.411282047776096 10.335275502459039
Hf 13.63368972869066 16.337323880901476 16.140746339860467
Hf 13.677067180457318 14.417008034832579 13.986537716896981
Hf 14.153548138631807 10.048482864544932 7.132350005505215
Hf 12.038333430779609 16.806174248490173 13.708228655362857
Hf 15.547080034329078 9.502853636825956 14.98148319056734
Hf 13.965559163634298 11.631658150101655 14.471754415393175
Hf 13.639154332369289 13.542328250228934 17.06252889050141
Hf 13.483930458266828 10.56851861928086 17.033841490428244
Hf 11.561772063013306 9.513084903980667 6.648542095967092
Hf 13.769041115726328 9.087275143267963 12.1171775275471
Hf 11.106872584608697 13.984384606785936 12.851820145220039
Hf 9.704852514173698 11.38420046047659 7.472738211295564
Hf 12.312552199028227 10.62777078292867 9.359021691164164
Hf 11.331956170287587 12.19337701181554 15.549054892391787
Hf 12.819171648427195 7.96351465588296 8.846366014487849
Hf 11.158542821329464 15.038896343387977 15.911860104936348
Hf 9.72328588328316 11.727236581268738 10.371742750296947
Hf 12.129961849003653 9.323146006852943 14.8031971869778
Hf 11.758034701302051 11.0794132883932 12.515854590716899
Hf 9.899577276351758 8.891566462805786 8.832368544434996
Hf 8.911008698647185 15.133983324868126 14.128726413535485
Hf 8.480352531698484 14.274194540357856 11.392096624915704
Hf 9.053598414581732 11.804785689807762 13.278561557683794
Hf 10.983219260530314 8.450672337211591 11.366379861361798
Hf 9.352537996877269 10.225418451391723 16.052779996269656
Hf 8.332227782491879 12.872649916620059 15.920221939410528
Hf 8.188876280863992 9.3911512430972 11.548627400116109
Hf 6.8709970447010065 11.850722495145991 11.390363153475532
Hf 9.381310494942804 8.66925412461492 13.86161891673462
Hf 6.658327776478981 13.451231923490436 13.657998293009697
Hf 6.941556523814993 10.419905117608048 14.211593511669925
