48
Energy = -416.96199873 eV
Hf 8.659037847901953 13.326535249921713 9.504015417487508
Hf 11.268685645773308 12.395487707105243 8.206664298510965
Hf 7.84077138462865 13.748406050998659 12.447810744363453
Hf 12.073398426147289 9.662544011919493 7.977609625517734
Hf 9.502252742284954 10.287319010114775 9.256695403362006
Hf 7.879953586783116 11.14489059569694 11.445441931361252
Hf 8.241863772006253 15.90926652535121 14.34682823476479
Hf 9.648908871514873 15.614637642834703 11.663489954185431
Hf 13.456832285806936 14.059074686719352 7.824845889855832
Hf 11.257193498610864 15.173045135643612 9.233688639451033
Hf 11.166165120880727 7.853853539074014 9.752151855439942
Hf 9.707344990122795 8.957070990585867 11.909282907844648
Hf 14.212068704828157 11.374007006989812 8.400799903584621
Hf 10.813769469043534 16.921833002567926 14.445858728589927
Hf 13.311163997457546 13.460286276162757 10.83242196414998
Hf 12.371268222077845 16.56962220121575 11.737282783931489
Hf 10.428950908243023 12.629317538498698 11.417135011546463
Hf 7.7783927549875855 13.448720825426252 15.400101197554601
Hf 14.262670305052163 16.046189948168927 9.655421041563775
Hf 14.092351600527609 8.538205899463636 9.80289766932515
Hf 13.344127788526192 18.018892447051957 14.178351152405781
Hf 12.251429980723339 10.351968025033194 10.897380087515522
Hf 15.099890415665856 17.56326137784978 12.183899100337479
Hf 9.885974391892212 15.202793440067795 16.65191148588009
Hf 15.829624654367349 13.634281870485204 9.24989240477046
Hf 15.765016350522876 11.232679687996399 10.814266454382247
Hf 10.494469131992943 13.946303057947608 14.159418649749952
Hf 12.47532162767034 7.624533587042601 12.240892182055022
Hf 15.594209681963275 16.661416790038025 14.966209763082896
Hf 9.378605360303876 11.114948549086485 14.053745641516944
Hf 13.073484217555274 16.223823852126095 16.35255514271563
Hf 15.439969186083323 12.283025545121575 13.587713960584107
Hf 9.776082348022312 12.377703592613681 16.809100194315647
Hf 15.834757878907487 14.785319315129923 11.870561163801552
Hf 12.378372902384552 11.407524765457879 13.869227452528591
Hf 13.55114423651498 14.813751095560647 13.895949301040948
Hf 18.039247112411864 12.809522882570684 12.339401754356954
Hf 10.966540378793358 8.68767780578219 14.405417764772597
Hf 14.737968202975592 9.386851855345087 12.7214374348771
Hf 17.54627245649608 10.21569372871931 12.853509773966504
Hf 15.364006391846909 14.15461334502803 16.377810375391324
Hf 12.501021488171773 13.257002426028556 16.377708537269683
Hf 11.76693357308282 10.365430367859599 16.53139279535056
Hf 17.3903274359003 14.587155361975276 14.326341702525271
Hf 17.70133534148762 11.975996706117542 15.302261410942144
Hf 16.42368504311845 9.427018312285552 15.169525913076598
Hf 13.652181657155827 8.610533911171474 15.235803895924306
Hf 14.564797652404662 11.184029719424233 16.313634647339487
