41
Energy = -355.74421855 eV
Hf 11.483027855958563 13.455669475611893 16.559101530835406
Hf 9.257190088299133 12.423789889960796 15.048411936533515
Hf 8.720795303347925 9.580009827649219 15.139089251159042
Hf 11.083671044526312 10.567345022548487 16.503577303672724
Hf 10.963968287697984 14.754136422495488 14.061503236473065
Hf 7.9476762487789845 14.410925007229126 12.983085664609714
Hf 7.687563282666668 11.206622933167274 13.02493696485621
Hf 13.298209262770511 16.25204156230244 12.770015080148958
Hf 13.931007243735813 14.267407293065574 15.211532431878329
Hf 13.696324803833894 11.769982660246871 16.79384855225772
Hf 9.777050582312382 12.955072902665357 11.656592106248157
Hf 11.025169792528034 8.103153461753244 14.967049586198598
Hf 12.446697278803919 12.079378257352635 14.196262054052958
Hf 10.631145631152634 10.304290542201564 12.895600572324794
Hf 10.37282026852902 16.004606315323063 11.563412318783334
Hf 6.910786034363761 12.64760042589929 10.770895013990444
Hf 13.54009316713653 9.354454636427828 15.095953637122538
Hf 8.240156205632186 14.915875165026682 10.033103008192061
Hf 9.246631812645836 7.935275550588116 12.74431201619777
Hf 12.688650694638877 13.878514552333995 11.513354617929574
Hf 15.438716177776524 11.563561865169602 14.59506889243186
Hf 15.559671873540756 13.903243712692086 12.797594775195883
Hf 12.625939577078721 16.31691700393039 9.868225639110195
Hf 15.057430920909402 15.471628349739817 10.5806360583558
Hf 10.748196539416583 14.547889622980682 8.768078242165618
Hf 8.750526453844147 12.54990066564819 8.476511564177372
Hf 8.499838453476947 10.119341291998845 10.578107054198876
Hf 12.506422021305172 7.855804529435322 12.62344436766464
Hf 13.995331240301073 11.104716731611918 11.566990427683736
Hf 13.562902045008272 13.883808276756449 8.552079232524607
Hf 16.93685520021795 11.414402655487345 12.236373024207843
Hf 11.441444674587189 11.343106375196276 9.720829457730805
Hf 15.423312493113793 8.954786145762842 12.77274397739611
Hf 15.985643448917926 12.811352629941101 9.978955423366587
Hf 11.49529494141138 12.037787991028711 7.053768732443286
Hf 10.796764976139011 8.36242182628186 10.218212393878451
Hf 9.61675869397319 9.902839057328395 7.95268906621327
Hf 13.764963694632655 8.518014128727991 10.045696609113278
Hf 14.257237728745562 11.025881067878956 8.28448186617399
Hf 16.19316803708825 9.892153657946691 10.088932475406127
Hf 12.19868556874354 9.234263875754005 7.748572485818735
