47
Energy = -408.78155871 eV
Hf 16.79640054022481 10.891929733159326 9.866809951168545
Hf 16.673867046623425 9.177717472413558 12.31819516674232
Hf 15.822548763579084 13.368668707070618 8.606763263109757
Hf 18.146685581320778 11.486418342812344 12.363914413583137
Hf 14.228670280438358 9.098279435431753 10.710788091165155
Hf 17.436349885281558 13.793564325548688 10.876601263276545
Hf 13.634667039626722 11.620395701620554 9.351125980135995
Hf 15.287143454023827 16.201573568493906 9.226592558338481
Hf 16.362249898909084 10.978769705361756 14.764482976142784
Hf 14.155848763260503 9.2145451837485 13.705773439886192
Hf 13.196720874220478 14.19252571794352 8.40845494885464
Hf 14.52437018611889 14.493049229040784 11.123383325026536
Hf 15.204870218288608 11.659334837421302 12.038365388950853
Hf 17.038853891136785 13.70701157800037 13.802891259152323
Hf 11.81272121672573 7.841681160496676 12.376991572219028
Hf 10.21895188775246 12.583188815997271 9.233061672194234
Hf 11.457204026367286 9.757858962323358 9.230065159854165
Hf 16.44969299546243 16.36322645689129 12.525348132818177
Hf 12.193254572446575 10.632656842248556 12.067612776012277
Hf 8.683484226781326 10.269594827019239 8.953176621814197
Hf 12.244716050545193 16.18348638827811 9.933278952630271
Hf 12.057834390480107 13.430923203011869 11.254063143097264
Hf 9.632135236558065 8.104715374115134 10.54799464093778
Hf 14.099829506342322 17.545751099038515 11.514519165920618
Hf 16.537844027282116 16.068723885099576 15.359978717275517
Hf 8.937363809095 8.540149658320905 13.31856747208407
Hf 11.483596959481629 9.447577805875165 14.82769449586118
Hf 13.433005934213783 11.968192909774729 14.554903186890236
Hf 14.15831471260212 14.834722153149274 14.171666568378866
Hf 7.175886234967656 9.225539579302644 11.035712725247995
Hf 9.394320205277628 11.05241303234718 11.82464588770954
Hf 15.581196991080915 13.409854958899382 16.46442950529568
Hf 13.92880200243232 10.771726581600513 16.856694066572928
Hf 10.944421658034605 13.352523453966153 14.063764911646468
Hf 11.776507300842326 16.380457510703117 12.70820079102604
Hf 14.243358016368049 17.627749729435955 14.419616139982875
Hf 9.434332713641476 14.600271739665997 11.267426567340255
Hf 9.089055331593379 11.137232879421612 14.928896689180263
Hf 7.239585396830687 12.263846648083234 10.577732791969776
Hf 14.26685209432672 16.031115512480273 16.863520226192765
Hf 6.787646585863974 10.771041207716795 13.212842416123676
Hf 11.086743305409533 11.419752533317759 16.871941532500948
Hf 12.65524676991901 13.602010165875843 17.02701726495162
Hf 11.688705364673561 15.948778732239578 15.552213887481482
Hf 8.016710090241904 13.307233073417835 13.415031809833055
Hf 9.279317627302937 15.774444744339732 13.999772660518905
Hf 9.490670958786792 13.899761352603436 16.341959850017037
