46
Energy = -400.24009736 eV
Hf 7.1885015418437295 12.009298063479708 10.429446776869172
Hf 11.4092554180611 10.97223512756854 6.537531089494211
Hf 10.644821090086133 8.80264579740508 8.320796232565224
Hf 9.095631346062284 11.494505847654324 8.222051926424955
Hf 7.472473839740573 10.522357998790698 13.028419422795508
Hf 8.02994596470906 9.256522693797429 10.166890638573747
Hf 8.418633480483722 13.475100275389964 12.759978362409099
Hf 11.442091591852282 13.541284406928812 7.935846122600059
Hf 9.331051374501357 13.932996938387227 9.950462709711088
Hf 10.520715541021058 8.12344288900904 11.038040258723608
Hf 13.522009368300571 9.31149129220615 7.498214480361024
Hf 13.937218391834508 12.066008978852395 7.224288068582426
Hf 9.769042787390108 11.296844908059725 11.156284415118126
Hf 13.161913728661125 8.310190407250657 10.123779130547362
Hf 12.477180543243293 15.970959473497519 10.405803490736636
Hf 12.165380611148866 11.073658253432075 9.325866840588485
Hf 8.34282334285838 9.47628581618561 15.712595604722825
Hf 8.507176824983159 12.207864735602957 15.34881960360205
Hf 8.880518673178168 7.812425981589775 13.407100237882675
Hf 10.549187590346563 15.889568033222938 12.48612928252664
Hf 11.931926550629344 13.359179907899316 11.326688059874996
Hf 14.056588925426171 13.83521061162401 9.357143028495202
Hf 13.437703286319124 17.688929710085183 12.782966160429215
Hf 12.028489451732362 7.594634612813876 13.28252715960578
Hf 10.44675696173738 10.113605466448567 13.904700895789738
Hf 11.55464794091364 16.990028244804485 14.932844972266459
Hf 15.331816775948354 15.814463040187196 11.093295353187754
Hf 15.030416052249585 10.776659924557544 9.939101083752426
Hf 11.061554223806551 13.02675029161549 14.072627574617545
Hf 12.782231573400257 10.406907334216495 12.227933331285639
Hf 13.384906825425363 15.021063636523774 13.479018769423138
Hf 10.66583469303108 8.010290789841036 15.831394923800868
Hf 9.47768709483351 15.088336533830002 15.077543200514748
Hf 16.78991502597214 13.373443211745817 10.04751945378296
Hf 14.948928722121101 12.709312415613208 12.21748295196376
Hf 14.132773048222802 16.77007559309756 15.660396782894383
Hf 10.979552911421628 10.935377062128333 16.555769824885886
Hf 16.002865602145995 16.602280054381676 13.69486935072658
Hf 13.106784264584425 9.267320045867345 15.227619413347897
Hf 13.664844532057899 11.959526006090071 14.953757614893075
Hf 15.290355521744518 9.774496218604792 12.959283038161592
Hf 12.446213212789198 14.459649317706269 16.290136934922646
Hf 17.359418838572132 14.138505798249726 12.867490228412015
Hf 17.445685072643965 11.349851106587282 11.859326934136616
Hf 15.595099635776704 14.293675178703255 15.447915286648003
Hf 16.591620229601318 11.785733481434796 14.519729688119321
