46
Energy = -397.15572647 eV
Hf 16.05385735104658 12.341713526420925 9.129573182656477
Hf 15.725608298259697 15.163687141674682 8.86412241345918
Hf 13.822965108923306 13.498784057263427 7.559686325144665
Hf 14.421478416447576 10.375111113572785 7.848024685839993
Hf 16.803619309972113 14.151720546200195 11.42797970682863
Hf 14.971379043713059 16.522767540938272 11.361295441881513
Hf 12.994828902817181 16.220934081962152 9.038092263835967
Hf 17.206516915595344 11.16165868604048 11.863614860896314
Hf 13.81628191155039 13.81922866719136 10.480179020892475
Hf 10.975809371199107 14.05378974761314 8.553783040100091
Hf 16.351166596610874 10.552884104966445 14.710337119203524
Hf 12.44733802470046 11.533558697217403 9.236979217190806
Hf 10.17746042828113 16.47672789965289 9.82094506801158
Hf 12.134186092627424 17.36659169705144 11.788001947312708
Hf 16.064106526138918 15.504375995981553 14.138756037209415
Hf 14.096718953383817 17.638225799433567 13.895419776818745
Hf 14.529025115997799 10.068768025300788 10.784775398775288
Hf 14.793535522191117 12.316992255177178 12.953719590051529
Hf 13.21762368227289 14.851703821145811 13.611864241977697
Hf 16.10660353886877 8.515113278498326 12.682209481544227
Hf 17.422933134552483 12.975685441649663 14.04044878056376
Hf 11.13474751786607 14.367061274038907 11.536342091614724
Hf 13.926606092483976 15.990741248388753 16.146116534576525
Hf 11.46875751548051 17.02498476469686 14.719017108961795
Hf 10.002010534784123 14.315163156710481 14.286349763618961
Hf 11.673846866472108 11.417433155281927 12.065469502795269
Hf 15.020248760670148 13.177463751657257 15.781189170495345
Hf 9.567261769551834 11.765465433887536 9.918700821899897
Hf 13.805321179661075 7.301912557281505 11.877542046015954
Hf 8.410724948681233 14.299550598432539 10.612432250625565
Hf 9.434073628964276 16.51173061395427 12.48874372794435
Hf 12.22062711938822 12.270579847608808 14.999130989189617
Hf 13.487291085661376 9.626458958922768 13.596922718225251
Hf 11.836788253575886 8.852260482226834 10.38553115497128
Hf 11.393630263546154 14.635428588958167 16.66429234743465
Hf 13.96239611966819 10.280514452549038 16.57438375352809
Hf 10.287204675464034 10.068893519032029 14.56589067211654
Hf 8.817403076178767 12.174155152825525 12.77562550505482
Hf 13.08075185776071 12.516012700380074 17.986537283950096
Hf 9.18987994948382 9.599058877450117 11.728349392241755
Hf 9.438191335723582 12.40589765461583 16.316102566936426
Hf 6.957226640049483 11.530959448778914 10.78802047930816
Hf 11.135546190062634 7.791040624980895 12.913496908215572
Hf 12.246841581680119 8.102163586167986 15.546092799486987
Hf 11.212024585937005 10.408826756144515 17.398067224863645
Hf 10.511430067592368 12.849961453373645 18.903839968456705
