45
Energy = -391.1318847 eV
Hf 17.128024384861856 12.248496535359656 10.552347119036591
Hf 16.57051078675931 14.960224858247537 11.374811842133107
Hf 16.43735026966389 14.478821517444539 8.669477953655916
Hf 16.098508049778665 13.179800404759844 13.52353137340943
Hf 15.469716313590972 10.533731387050649 12.670870493201159
Hf 15.67812584224326 11.937023628726697 7.826538636705537
Hf 14.926523399405214 8.446058018733183 14.670805955777109
Hf 14.41373929763817 7.802552738601418 11.755717078228779
Hf 15.07641853217685 10.14694437451503 9.943721468237392
Hf 14.387959950518992 13.089308905120326 10.155043808082832
Hf 14.42325518575847 16.204292216353405 9.796142364638646
Hf 14.348396613022997 15.699499095200048 12.823956771004248
Hf 13.850844054328006 11.345178135701351 15.295364294932735
Hf 13.906928755101855 14.257207796615502 15.426526621687119
Hf 13.757955373929741 14.247680521152482 7.552775511777428
Hf 12.767645209161014 6.72869975708319 13.881615837908972
Hf 13.330767969664592 12.694478566745545 12.82876234447484
Hf 12.63341511162857 9.536750588508772 13.425127770837458
Hf 12.431858150194026 17.352494282685782 11.425134798811348
Hf 12.424797688024187 8.570673622218193 16.069789785696745
Hf 12.815908138733372 11.288618578386421 8.225818520367119
Hf 13.0994575242837 8.28420395652333 9.039788477881796
Hf 12.303221053371567 12.647756149757512 17.483796389244894
Hf 10.514518025091586 9.18344934489333 8.932017945654648
Hf 12.258677548001463 10.360573092856995 10.834336212139213
Hf 11.413378452044613 7.445769390607729 11.320223059776843
Hf 11.676559168405758 14.455048246125392 10.948320602101647
Hf 11.495062369768288 16.349535522837574 8.82706734213182
Hf 11.545168408198323 15.96467948245533 13.758790589352945
Hf 11.438863015927906 15.321124958060478 16.78003274047946
Hf 11.012622380713985 13.563533998020622 8.041011746674101
Hf 11.200213417700487 13.209592075570486 14.91384238018129
Hf 10.322277694558519 10.589171578077995 15.91087847139563
Hf 10.153951249172094 8.039517279722817 14.160494341355552
Hf 9.793706712415762 16.699474073581854 11.416557721624729
Hf 9.78638101056022 11.900643974523684 10.092440319800724
Hf 10.146405059912158 11.226945335040192 12.979786466825315
Hf 9.06479629723897 14.732349274328339 9.577001331496538
Hf 8.916855290787016 9.054258272133067 11.434772396344247
Hf 9.52919687797362 13.24300631013928 17.264300617255188
Hf 9.090577214967938 15.216416238469991 15.161420153511843
Hf 9.06428801917353 14.058364687099402 12.45064893678127
Hf 7.943341854608265 9.744777940862829 14.144942102206162
Hf 8.012178687363644 12.518651647849044 14.803808631882616
Hf 7.509795192019476 11.589393195788839 11.984916842080464
