41
Energy = -355.46754039 eV
Hf 14.476278501484389 11.74548843449852 15.392163531036138
Hf 14.716654090905065 14.53550256142337 14.000410701877378
Hf 9.404388954253742 14.407282655178957 15.589334035900759
Hf 8.515069967291145 16.283410135477098 13.618060224842708
Hf 12.174654423923286 13.447804170582478 14.876264919547374
Hf 16.79609692165724 12.61062671211849 13.562329617955127
Hf 15.866287097587799 9.950599212163638 13.702473094639135
Hf 11.732214443621908 10.821794834369618 16.11811238173107
Hf 13.406191415914929 8.816194835061642 14.688004596380974
Hf 11.3883775553393 16.170711591430546 14.270411650183938
Hf 14.265073571668994 12.208366009735192 12.39799705791123
Hf 7.388580364856844 13.628365189513836 13.667035916100204
Hf 10.445573857645241 16.738061160772165 11.65524970919702
Hf 10.33983959922698 8.687572218419218 14.65775727647552
Hf 15.809192675826916 14.21658888747183 11.238536472564434
Hf 8.099145808200744 14.93806126315293 10.983263796892583
Hf 12.83778992146664 14.904290459038833 11.772320720022856
Hf 10.109983860664554 14.034973069650006 12.805950289669433
Hf 9.409175215410226 11.599700424116689 14.44594723933121
Hf 14.335019742162299 8.915068383363664 11.62135153389117
Hf 12.044863008424574 10.899392075037298 13.303182118626511
Hf 7.6765323405760135 9.537129464369821 13.373599756973102
Hf 13.365110894659457 11.332157145481917 9.730744791015757
Hf 10.165306078854634 9.505673940772567 11.690578186804986
Hf 10.650521690237989 15.066394825625755 9.342311385835318
Hf 16.614587690027687 10.950914257733928 11.133736404563422
Hf 13.662200976529913 14.203656605838916 8.932793608715984
Hf 8.11008717096221 11.810328013628984 11.474940913678159
Hf 11.844252881340852 7.241585456804153 12.421995944054785
Hf 16.01087037618597 12.467250097285069 8.883869535237917
Hf 8.921483837258071 7.1074139506037906 12.601599901064036
Hf 10.913333945726677 12.441725566431769 10.565995408597173
Hf 15.079051511566133 9.586491960657524 8.54791708178689
Hf 7.619993324411671 8.853932105140158 10.621473396226738
Hf 11.311893609073383 12.666228003040949 7.604308090203639
Hf 12.427933859729567 8.415816596098262 9.670178374233448
Hf 8.70758326945438 12.981265822572862 8.84356247844617
Hf 14.139519405056479 12.003472582048007 7.028775752030709
Hf 9.88263515558276 7.244601089151825 9.960204491953943
Hf 9.89659707316035 10.233034300930447 8.889499800930496
Hf 12.357102278230721 9.922603481569439 7.284577869187493
