42
Energy = -364.17990257 eV
Hf 11.86918595802232 11.690357156065748 7.558196910908644
Hf 11.875110258258436 9.05710889325205 8.645581700095827
Hf 9.432184316495857 12.967787792903257 7.628819115885831
Hf 11.660544028496426 14.892429828561104 7.092285080858875
Hf 9.402417095604815 10.406836611637418 8.934502786532759
Hf 14.115043143840246 13.407214524892426 7.90657591066522
Hf 14.169008694997869 10.8590616284343 9.416030534646856
Hf 10.127515499374347 8.361266602875855 10.94365244057936
Hf 9.12811869241477 15.351713697194226 8.70339390446348
Hf 16.017613015535474 8.89434053203382 10.92611128977142
Hf 16.823777025781197 11.613149138827884 10.867526728425071
Hf 11.633616665556078 14.028243593145458 9.757262001391608
Hf 13.185178208322112 8.362347053710069 11.034110888941262
Hf 11.58048252348842 10.992224662802725 10.839182932413415
Hf 13.846032857612565 15.873630591543643 9.023729924235077
Hf 8.943232186260305 12.998537747271026 10.636381476491161
Hf 11.325358826511776 16.97911651180502 9.209152121889463
Hf 7.789613985416607 10.10896739878596 11.588469929729266
Hf 14.81866216813799 13.713731095028727 10.785239775050034
Hf 17.082299952344695 10.050465812077512 13.255570494612526
Hf 14.81527658799205 8.25146164958054 13.672563451376668
Hf 8.991683571184753 8.34003544024543 13.64833565562093
Hf 9.700409428549005 16.006486944411762 11.304826432482411
Hf 14.424301821663093 10.840266398433856 12.312277913589032
Hf 11.781748482827053 8.614338401888205 13.437595353849277
Hf 9.848374571934945 11.241889916105468 13.340256065946392
Hf 7.3704306046950885 12.744841047251361 12.961893919205119
Hf 12.709423750343339 13.453894103562948 12.754805473073938
Hf 12.672043909960122 11.146094092707026 14.55018983434484
Hf 12.608132853096295 16.30415907606945 11.740545168874464
Hf 14.822360406440506 15.367159088380824 13.343790793235884
Hf 9.937682278384758 14.192661800724922 13.45661902264378
Hf 7.372083852685846 10.328374727855387 14.504012901051604
Hf 16.20824981122132 12.858410178343675 13.515936688282924
Hf 15.390663221253247 10.613128513009206 15.5173744565838
Hf 13.12936660547358 8.75763889017763 16.046306881530587
Hf 10.312975457511774 10.160475430212404 15.934595803698887
Hf 11.216802460681736 13.20288253338712 16.083026008000164
Hf 8.466060387693918 12.69342873819592 15.541706084951688
Hf 14.221059382531665 13.529966879692024 15.634022540147404
Hf 12.306557676694531 15.552187781901047 14.645624592295533
Hf 12.957482092113139 11.266388372685421 17.281276151968108
