49
Energy = -425.18408555 eV
Hf 14.934233788787134 9.542919203802642 9.04057983136855
Hf 15.570687968354076 10.853732809644168 11.399762082981542
Hf 15.144748626239233 12.50001478828319 8.954008597137129
Hf 17.428239906140686 13.427146817909914 10.736155099353487
Hf 14.723094411890695 10.701535799800418 6.526228143021752
Hf 17.84285416752106 14.044398786253318 13.545071734483319
Hf 15.526046067760339 8.683359670459117 13.230848777037188
Hf 13.167882459463483 8.718864319407745 11.295851155268537
Hf 15.621626756138301 15.240502901284678 9.544966007369062
Hf 12.776189076487668 12.512120481361427 7.298158754293182
Hf 16.092433069813016 11.713529304980618 14.297877024997199
Hf 17.193743413706844 16.17442424388482 11.765546970604898
Hf 12.620665463877495 11.455047229595575 10.48026970647732
Hf 14.735116225962479 13.481467585410778 11.814211401265796
Hf 17.4988293115446 16.603566074226222 14.716181357871568
Hf 12.281983050121903 9.818293424058187 7.977935471823772
Hf 16.48045316310254 14.112124234052127 16.161078391546386
Hf 14.976269431939626 9.27856595200906 15.816056295511572
Hf 12.837301722165217 8.033530786275842 14.375701232070462
Hf 14.264676820152348 17.209416090362854 11.10372608503278
Hf 12.750249326291321 14.396392503126275 9.540329889827849
Hf 13.509218279947115 10.75384544966967 13.533740757051483
Hf 10.327807156547928 11.878905339501383 8.652955002563363
Hf 10.821034817691679 12.752512297973235 12.508121059186452
Hf 10.337336873348065 9.363087402124654 9.981275216614096
Hf 15.15243734939675 15.499410915741564 13.781283592515559
Hf 11.406281994645461 16.943222119056195 10.309985732011233
Hf 10.722989243401427 9.806613653982504 12.680404711129752
Hf 14.391790896955722 11.796656139461238 16.87700727509677
Hf 11.367041596841023 11.620856425762568 15.423948931676602
Hf 12.389138106995134 9.38617643618744 17.067797729717714
Hf 9.741308461694217 14.42927466102105 10.206112870250417
Hf 15.355397771113397 16.852648814733517 16.417624753036684
Hf 13.331541388623283 13.783132761550911 15.05946808070738
Hf 10.11285555172628 8.829554749269168 15.19490313342427
Hf 12.365714325317676 15.276503389375065 12.470735982068234
Hf 9.63887015308486 16.400330205666027 12.378931707943728
Hf 14.83565321438193 18.244848169033038 13.966355422314983
Hf 12.135043154247294 18.13319173468006 12.795269623917052
Hf 11.787556069037946 12.178840380502102 18.294269651239073
Hf 8.655570410502353 11.55649304518885 11.057573449902078
Hf 14.039692345153899 14.668707066177168 17.737377869152986
Hf 8.786200139142553 11.527858535077101 14.341983687315036
Hf 9.634067598738186 10.395464733600036 17.319556315197694
Hf 9.248030151191232 13.068683324455106 16.96171001309299
Hf 8.14653387536498 13.940957756673006 12.580849139934912
Hf 11.319534199108524 14.824140758781795 17.260186597861885
Hf 12.631680165256947 16.67588420457403 15.421975577895871
Hf 10.2204841981788 14.60418032285468 14.672198021273504
