41
Energy = -354.54973001 eV
Hf 16.329254365449753 10.553208464538729 14.220121263985874
Hf 14.351062818698786 10.167052598257307 16.322496431573757
Hf 15.054475303012888 13.018784560806793 15.07131090103804
Hf 14.90496215144758 8.30449826460328 14.0752143698085
Hf 12.980487342297565 12.648674208883707 17.175318198343568
Hf 16.297691133121205 12.63798498507733 12.366411324945107
Hf 15.976919152557127 9.327578494794809 11.513918787180192
Hf 15.344071508894565 15.527350803584696 13.18357995565286
Hf 11.485656105245724 10.202708394303794 17.007378180090697
Hf 12.34123625555982 14.537353376175929 14.916745363767129
Hf 12.178507953095519 8.368381009423613 14.724180509369255
Hf 13.792207886511337 10.592652713542906 12.386988430620667
Hf 12.411894838639522 11.504076119171515 14.692594977357764
Hf 13.262803285645274 7.617718612715351 11.949227081705715
Hf 15.048821446607455 11.951996022393809 9.74675632027018
Hf 15.733657954784071 14.676395093114623 10.435966735381607
Hf 10.216213350453673 12.683101846689695 16.176071467166764
Hf 12.769974433439577 16.931616057166035 13.325547905809744
Hf 13.592823808021187 13.588953047588545 12.31038836935546
Hf 14.03251435919074 16.93211328943335 10.751830776219059
Hf 9.679869752351665 10.04896541206926 14.803866515819514
Hf 10.238552395427995 7.3885435899784095 12.560028560000232
Hf 11.211641838252103 17.89794316969959 11.273332874516585
Hf 10.444773735899954 10.177905813958258 11.875122979335142
Hf 9.972529188203813 15.893248126079351 13.047882783045354
Hf 11.39684956318228 7.978871264912732 9.908110350932075
Hf 11.705976589743841 15.13143493262371 10.899916976447217
Hf 13.621689608636371 14.550492299587237 8.578445520215583
Hf 10.58496363511649 12.962422640622794 13.219773462655718
Hf 13.529698897517292 9.622440777456113 9.490006436861252
Hf 7.807385766876816 9.137231322109212 12.701105773256586
Hf 8.033995444956359 11.873800284351628 13.212926550255105
Hf 11.796031967590046 16.849094980292975 8.641253273381091
Hf 11.976246106482852 12.185863447978384 10.213257593847219
Hf 8.779523555819232 8.363649968180269 10.198389864745986
Hf 12.862095018241554 11.88915017482917 7.624526061698009
Hf 9.291643293589555 16.25557895157146 10.001713152028273
Hf 7.843917969970813 10.951113113429415 10.474971318581039
Hf 10.267131516697422 10.483870938845493 8.718098918223406
Hf 9.240974796499714 13.472038910220567 10.836545105112302
Hf 10.691283940457426 14.087192983342483 8.276896064520345
