48
Energy = -416.0181054 eV
Hf 14.593673145122274 15.166255490925375 8.685773774060856
Hf 15.473916491204823 12.588855580880242 8.101948729450635
Hf 12.316697525746434 15.77460970932632 6.855064404100854
Hf 17.258913541493854 14.040547246402017 9.861633785819034
Hf 14.395178531948456 16.140293892954343 11.30374566946934
Hf 16.783133985860058 11.084620014017887 10.017415681961587
Hf 12.274087077790323 16.704882430557838 9.513266267362063
Hf 17.714216403464 12.593054769259634 12.40924799522051
Hf 16.749141885248697 15.312441729763515 12.841292016585342
Hf 12.497898467121582 17.93232946199142 12.643522828298405
Hf 15.021827539904727 17.532414242226398 13.737214192890365
Hf 12.429152080763567 13.174403582016664 7.861334372251047
Hf 12.200055317124344 13.7853312287215 10.972008815577563
Hf 13.392595302218114 11.082336202072398 9.687171222280709
Hf 10.259032089962348 14.808907983013379 8.776812428141842
Hf 17.28206734863358 11.179402031151898 15.009450692902796
Hf 14.994779873233101 13.070539895023776 11.089561813753425
Hf 12.956681930894678 15.261193746780918 13.827424766965638
Hf 17.772744525298314 13.888567272416063 15.043202900222896
Hf 10.422884758005567 15.964115086980042 11.690885594813386
Hf 15.621508790069722 15.668280223263018 15.695502999567918
Hf 15.660346777432272 10.407806189069177 12.678700891603686
Hf 12.941141444176353 17.3413780526321 15.76591030543747
Hf 10.4666790342264 17.208181352332613 14.27918308179061
Hf 10.454623162805305 11.993124253924442 9.473969799619915
Hf 14.504663404765182 8.650268198096967 10.638662373757048
Hf 15.076497218273998 12.961550523328045 14.155500994329548
Hf 13.496416672263802 14.616075214723287 17.347026410053136
Hf 12.696324211652662 10.827628123035213 12.707520973777092
Hf 15.856990774729345 12.7791754575167 16.962857924631457
Hf 8.727562549297225 13.533829649607522 11.276152848338185
Hf 10.717710413981406 15.284802991430219 16.241698259506855
Hf 11.666963958622885 8.907484800921488 10.404191231036465
Hf 14.804802932208915 10.240794761461288 15.708566263607606
Hf 10.514143738985943 13.342824757869284 13.50465173191898
Hf 12.143481825175684 12.455202033182317 15.667102123937362
Hf 8.45311930005913 15.095687399713722 13.987587270396368
Hf 13.916384702739153 8.064007484793867 13.363711280779231
Hf 9.792212204736725 10.732500693011756 11.96265029234168
Hf 13.396113853095045 11.602200290451727 18.057686484356093
Hf 12.756297777424313 6.480577388171462 11.33029453791457
Hf 12.197474569478095 9.36439220648447 15.378702911884208
Hf 11.170665999505724 13.326733730411673 18.270705133457433
Hf 10.994625945705083 8.169503713572176 13.046353186361188
Hf 8.991667229247874 12.901116024758792 16.255630207183906
Hf 7.8442348768768815 12.231672141519779 13.64954211835387
Hf 9.601501186419965 10.42473601590064 14.863800801156856
Hf 10.604261388679506 10.734000313878116 17.48522408074301
