44
Energy = -380.16472996 eV
Hf 16.472913934207455 14.162509160869467 15.38315525129266
Hf 14.123073927266155 15.325685389450921 16.467262372067143
Hf 8.885698587564804 12.978262241324735 16.89086438902893
Hf 11.267205687188325 14.342675867661004 15.903732190508606
Hf 8.75294073196498 10.460625865020155 15.752017978516315
Hf 13.969564214157883 12.808246645476336 15.167821562419082
Hf 16.57235751025845 11.40117937101398 14.250941331906143
Hf 11.450942854717475 11.493560095038186 16.489817764371452
Hf 13.83065631157379 9.881873938198638 15.046401495879259
Hf 11.101369768186489 9.009699532993082 15.118588450857512
Hf 15.451084229704941 9.054356480332883 12.627111734435548
Hf 12.37848338572564 8.572669795788153 12.651034133174448
Hf 8.39121097724526 15.198044484093046 15.289422217533776
Hf 6.813576362125475 12.694181427285846 14.843547557113512
Hf 16.70758223783203 13.895451364055258 12.534176902085862
Hf 12.289827703092989 16.78311984140282 14.932794030363173
Hf 15.044569539174436 16.139704540390596 13.848661971493728
Hf 6.915863739961472 10.046944286369914 13.709245105608794
Hf 9.479175320165757 12.873123021896909 13.939014871595695
Hf 12.55818003279286 14.4862217530063 12.964520279232064
Hf 9.54182854489506 9.509972419317082 12.682228249667823
Hf 14.532351664456135 12.06078629973524 12.343507276351287
Hf 11.913209941257225 11.372379658818945 13.424617170889006
Hf 12.853813092668675 17.317628969863126 12.321840402304105
Hf 7.758948900553251 11.80599505401805 11.717741459106358
Hf 13.982486234969947 7.2232169783503455 10.717299250587748
Hf 17.055031653403667 11.13441513675731 11.429080776925103
Hf 7.456392782629266 14.547645252948486 12.64826699995238
Hf 11.392637709674622 8.306767243643035 9.831610523146502
Hf 13.65886000663521 10.120698606929182 10.236605088568606
Hf 10.111278004007177 15.941081530148125 13.047916630541236
Hf 14.653649155624283 15.52697693432537 10.93768606549891
Hf 13.775915673363563 8.223076090338184 8.099392154124969
Hf 11.651508299203803 15.876108127904235 10.194461626385548
Hf 10.654538609990595 11.073946534613587 10.591810458881108
Hf 12.803346244606715 13.029050037272716 9.99146356394443
Hf 9.88888050739825 13.816790905756381 11.070585062585115
Hf 16.136722234731824 8.799688608397478 9.767129700298295
Hf 11.976207774593348 10.546094429498366 7.852307405491392
Hf 15.58413970864447 13.05086810645166 9.451874077716933
Hf 15.06351555218309 10.623276401035099 7.672199405203911
Hf 13.641778351693107 15.191650401531748 8.252650052602496
Hf 10.97659627837392 13.765926815640471 8.163879827925312
Hf 13.525292134351771 12.816861896548245 7.08775730067038
