46
Energy = -400.56164789 eV
Hf 15.521381987185565 14.472013092935146 8.718127678959469
Hf 12.80320665263493 13.360666657647371 8.371502923422966
Hf 15.115866883903585 11.605463099186512 8.372418493002991
Hf 12.513115893519453 10.465252365360595 6.959805702338883
Hf 10.036916120258285 12.462533276332453 7.61525332899154
Hf 13.397909866115118 15.80445173360391 10.154880959004721
Hf 14.63794738824212 8.813688403324498 8.253393329963915
Hf 16.074220083124658 15.546809405817752 11.195984977030237
Hf 10.64911394492322 14.770960140240229 9.652978652181641
Hf 17.15515450133805 12.79770273478807 10.707879120589615
Hf 9.843507379855918 9.534644575619236 8.256534744689501
Hf 8.044270809403736 13.851999788966404 9.299375735511594
Hf 14.367717095222034 13.050492821802104 10.900631626443188
Hf 12.09692077640267 7.888858093224258 8.454789060968366
Hf 7.649626673537139 11.194503626231409 8.77041039287504
Hf 12.66354111238412 10.460871841130539 9.70447457737266
Hf 11.186271134780064 16.19544916857951 12.510426183530296
Hf 15.772710689044336 10.041057058615765 10.684769197860572
Hf 9.943860840170075 11.735621690513483 10.492967219274636
Hf 13.993701222885806 15.638431421429932 13.082014282675178
Hf 16.801897417382857 14.09323331718987 13.510285707046771
Hf 13.595969475156878 7.8140694957967005 10.936936836979788
Hf 8.841418631481801 14.705783976859458 11.935310953422073
Hf 12.42128841118093 8.214971584922665 13.871542254379921
Hf 12.824518614138457 10.49679635980985 12.532511853516729
Hf 14.967914939596854 14.850863318448607 15.75969965901771
Hf 10.823850969739489 8.215533046092512 11.044500046708455
Hf 14.272272148329643 12.670807105929926 13.963563950690864
Hf 12.056779667957985 14.427262028791104 15.024146846582829
Hf 9.08279395905909 15.14197774652709 15.043997944556743
Hf 11.781002208689873 13.476874171839475 12.146032202282228
Hf 16.748682932054262 11.08682700304833 13.304556758636762
Hf 9.39143167814006 12.538995549481683 14.011483532550994
Hf 7.259165208757845 12.065359063706724 11.562615652417565
Hf 8.12591239101788 9.333667154223633 10.788400142295327
Hf 16.429709688076137 12.385569032506279 15.846743478048774
Hf 15.227662278803388 8.69130005971554 13.08622336545529
Hf 6.745536631027033 13.833281489639319 13.803749971855414
Hf 9.795529112443282 9.876003218748213 13.110047625808159
Hf 13.704451978449272 12.544272129800941 16.840193309192767
Hf 11.842084372224113 11.023877206178737 15.296545238146308
Hf 10.27910487353578 13.022859475754283 16.848299703318773
Hf 14.626965956708684 10.08425813535516 15.447439557143358
Hf 7.549236001596082 12.877872702396202 16.27287103997588
Hf 6.988938456161365 10.908140981975446 14.218085975604875
Hf 9.109205007270276 10.465714446798485 16.035178990333208
