47
Energy = -409.04180664 eV
Hf 7.0827714996202475 12.416414455311225 13.452025354317366
Hf 7.143059761346854 12.55306381327516 10.636493241719178
Hf 7.129783721670633 9.898741565604968 11.623773513778803
Hf 9.292173488455392 13.742897865982451 14.990046502666894
Hf 10.71375251127977 16.145507051611037 13.979845954647118
Hf 9.053585613417004 14.543408686698639 11.952158755473338
Hf 9.776990742807497 16.147609580523863 9.32118802303647
Hf 8.86856009799769 8.821391926122963 13.783778417043834
Hf 11.459655369105121 17.409121115816 11.52857766851633
Hf 9.019133389435114 10.984080412437015 15.42507212745166
Hf 8.656743188763807 10.523710494126487 9.074466662219141
Hf 12.614551470807095 15.03611987340097 15.674017537760477
Hf 9.352416328894824 11.508122410368111 12.202461098589177
Hf 11.567940243341896 12.012220325484371 16.416093771732445
Hf 9.142794240268618 13.407588378734875 8.770681589076668
Hf 9.83496288694711 8.61376731042935 11.099206502126744
Hf 11.502496812806807 13.201565747663981 13.432039937148833
Hf 13.326987795259209 17.45492193241143 13.94189932640417
Hf 12.45094560157537 16.84227611265462 8.905281874756932
Hf 11.727690390677614 14.338268279260376 7.707727231785218
Hf 11.049083142958382 8.863524175213366 16.132558541392083
Hf 14.313481882161787 17.139890265266377 10.96078068466288
Hf 11.684971443472312 14.550701791597064 10.563603599517775
Hf 11.531891268240852 10.256648073757447 13.927402536464117
Hf 10.834698252675274 11.612658679760527 7.315378837143576
Hf 13.39173444815013 15.121104298003301 12.76180209182349
Hf 11.217364615790569 11.63254583507325 10.115531011656339
Hf 11.446053307489109 7.291654485099489 13.16903875443295
Hf 14.296019449208764 13.035906030643156 16.98784929806419
Hf 13.95646269798043 12.00386010613817 14.338635778426251
Hf 14.475042126607146 14.69631340517932 9.11781983186273
Hf 12.201097476685483 6.928821470548529 10.398902186822044
Hf 11.479919947473453 9.125629567890227 8.636336409237787
Hf 12.878370410196434 9.535828541703305 11.51630172295709
Hf 14.006221501534423 10.193101936126931 16.529366445533636
Hf 14.104775749114866 12.482121451114716 11.442460067883255
Hf 15.568823496286688 14.510815738984144 14.757146596570008
Hf 13.544278242184303 8.089866988199319 14.680066322526844
Hf 13.721550395916564 11.528699710546386 8.744653971140293
Hf 16.175184010176263 14.918556707638105 11.501832876257684
Hf 14.235704063135667 8.472489561239623 9.213016801745688
Hf 16.42675502739005 11.814201942574659 15.650908327860186
Hf 14.608562640764946 7.376327808807085 11.966260185604314
Hf 15.646499377722215 9.690195979101185 13.68752344344128
Hf 16.403556244887362 12.663903172145416 9.802778889152345
Hf 16.75851672562898 12.359396256605754 12.796295645746506
Hf 15.901631736140722 10.052736628605032 10.814436535311232
