48
Energy = -416.81251809 eV
Hf 10.240826175804637 8.611071957084054 14.963397667361363
Hf 12.569832492674047 10.027757009293321 16.497530389365743
Hf 9.342510346417939 14.135439437028962 17.075337570651882
Hf 9.953984110727454 11.350757102916887 16.103851362649532
Hf 15.923718376379158 10.409333835085139 15.808122606807014
Hf 7.6251400565994265 13.098840113526032 15.199175914464803
Hf 11.878647145694773 13.027882671275059 17.691644956816116
Hf 11.88888223743515 7.143049313384023 13.30251679294621
Hf 9.86707955187018 8.738624938860102 11.98261074716723
Hf 8.339489249308816 10.448087175085524 13.699844422852387
Hf 11.434530015627557 15.912668234159653 16.539130006338837
Hf 13.936189955197149 8.959255841276164 14.061349438870167
Hf 11.508190506164386 10.74597469709548 13.47759722464098
Hf 9.12288962251495 15.855044088707858 14.72981596903848
Hf 14.621368965069 12.054232636489768 17.83155826031833
Hf 11.254419044225134 13.758582190998244 14.813299417511596
Hf 6.862378650380318 15.014051629732062 13.240846421370648
Hf 13.752902290334333 12.191301903394793 15.182085140469319
Hf 15.65554238605691 9.232164171344547 10.47886831243344
Hf 16.290470027426622 13.420452711283678 15.917963381534507
Hf 12.819210507433764 9.069405936109474 11.369944157941477
Hf 16.70059005499355 9.447100181510137 13.14708850513588
Hf 8.129082966153625 11.240485535132958 10.714715247689512
Hf 6.394809689097011 12.29968457063174 12.663140434090213
Hf 9.229816541284883 13.147316022495032 12.625220732697299
Hf 17.321475027239227 12.084741390245036 13.824138249600953
Hf 14.584636262691223 11.381992585987586 12.272811796065916
Hf 7.175420618602527 14.126351294225746 10.657024668888209
Hf 10.966630624966621 11.174207107884751 10.517036204608521
Hf 17.512327562533127 11.260806887690435 11.137662180982488
Hf 13.997071756524031 14.69591875532911 16.795076841696034
Hf 13.811917102190684 10.932764230210731 9.171296058763131
Hf 12.336274522972618 13.542435517510793 11.73907317952442
Hf 11.823235296421382 16.130559960741184 13.22727475392086
Hf 9.731370873890732 13.755430949251071 9.70249632866225
Hf 9.20374659021921 15.981522710760588 11.734602141943274
Hf 14.374050648589767 14.517887183689336 13.71494844503214
Hf 16.766329861345557 11.457275803186638 8.351186646373508
Hf 15.351862211748525 13.475558378705845 9.938986528957077
Hf 16.899587832178383 14.585022669741615 12.271318615360629
Hf 12.457091187691791 13.475029977804299 8.73000713328274
Hf 11.685893708930502 15.917289405923094 10.060642887715344
Hf 14.303056802443699 16.048343911711797 11.242042372720602
Hf 18.3131131535923 13.650294481625146 9.800295683343263
Hf 14.61525926103488 12.85948797444497 7.08365887987462
Hf 14.361888094976695 15.636404629701193 8.212896966635812
Hf 16.783496549223155 16.017267093104458 9.76882212796422
Hf 16.906519470973162 14.321697201473164 7.503891189539911
