49
Energy = -426.72580482 eV
Hf 16.851087367481846 10.334781824705841 9.959345889576356
Hf 17.218613194682597 12.611345140078727 8.418285943281699
Hf 14.681205736119292 11.310204276550099 8.1568367163854
Hf 18.127928150208856 12.645273350612255 11.245617455945467
Hf 13.989038162747423 9.976847449878987 10.712716415201688
Hf 16.178706211377516 10.623866829454727 12.800116011408603
Hf 12.009432047878047 9.678600362464568 8.458414574236327
Hf 14.615346721987017 14.14877593423245 8.173316483601095
Hf 12.123383778560477 7.610831127828583 10.54838225529646
Hf 15.374455555638125 12.75967984150817 10.685490873242138
Hf 17.13052375583676 14.943956430111248 9.595964416139264
Hf 11.939268981458648 12.880704675818953 7.199704022100913
Hf 12.89701842093624 8.620802898032162 13.234312374525201
Hf 9.84189525360894 11.092844135184416 8.350589049565162
Hf 17.512109420767114 12.90112085589368 13.984534189236724
Hf 13.158207974924697 11.432085890701503 13.110382581742643
Hf 12.424093883262753 12.519054746283459 9.7553830513415
Hf 9.455480087583627 8.46747069385839 9.68285477644697
Hf 10.965981903763124 10.187778020517069 11.21132909416034
Hf 14.623519778689726 15.970653977663027 10.485320974925086
Hf 12.018684965254629 15.51515734538449 9.018410749685941
Hf 15.516641311264472 11.81203309122864 15.484085204340895
Hf 16.999906121265322 15.257919765613208 12.406439796488892
Hf 10.058339134478192 7.559581434409149 12.605926642409814
Hf 11.07495826438934 7.636737923605024 15.320030205461055
Hf 10.374133575504802 10.179614995458573 14.204828350850642
Hf 14.656987208456544 13.65194235922215 13.395959340978873
Hf 9.503963833481187 13.684236720005256 9.02920492430207
Hf 14.599500352453175 16.645301219184 13.175928313453676
Hf 7.880364919817971 11.255266506492251 10.302128037914205
Hf 15.852048239912417 14.867158632424463 15.330868431689918
Hf 8.012750826045286 9.154216059304142 12.11633814617525
Hf 12.824338029614267 10.072097940913537 15.921323762695472
Hf 9.75932870898435 15.844905255160013 10.685571682348998
Hf 12.02843331479543 17.156325423495943 11.873409612067025
Hf 9.763927586610803 12.823586016649315 11.93333801080998
Hf 10.94617383877913 12.985030594982588 14.471838604333964
Hf 8.243171447451271 8.742110094536004 15.03783370562468
Hf 10.17009570175021 9.50861481011948 17.052445604071142
Hf 12.28529650367313 14.546365648364432 11.999932515286954
Hf 13.309856529585689 13.225291808271168 16.09703022134902
Hf 12.566128671359081 15.736204170269168 14.746618465869666
Hf 7.580464973409904 14.091558201210729 11.615925021160576
Hf 7.4663787359403715 11.415596136201756 13.464856083481942
Hf 11.139797404603625 11.947634414221078 17.350418221784537
Hf 8.485798187962576 11.729277410562256 16.316953719060425
Hf 9.821654981428003 15.62774286875443 13.476071696761327
Hf 10.089204724430976 14.464097483661709 16.45336218076335
Hf 7.975836212860205 13.872096701956805 14.554023319706369
