40
Energy = -345.92386808 eV
Hf 15.561792719820808 17.60122660194526 11.757801951165689
Hf 13.115829131768955 18.763975141099962 11.961209954107254
Hf 13.715851086098356 17.002911462780407 9.621082325353166
Hf 16.31710544279579 15.539663523492676 13.526587515255477
Hf 15.723052838390714 15.03365535622822 10.476747779180647
Hf 11.099500675023707 17.40941059029558 10.761038665567192
Hf 14.276879196589357 17.56391406917281 14.316058731201526
Hf 13.18228919980779 15.729570315984303 12.241588878282348
Hf 14.153724007723723 13.868531316312922 8.249797238002404
Hf 11.181203848203806 17.427431967592113 13.629904628433495
Hf 17.23119173610819 13.28044093555682 15.107875710194005
Hf 16.305825032530855 12.404291348933116 9.494958153206888
Hf 16.548543270383632 12.778301132985451 12.326981890826234
Hf 11.70686480481807 14.836108321244607 9.593346194609445
Hf 15.551920177514084 15.244998712284545 16.356958587960236
Hf 9.83215260245286 15.278897173524978 12.092585665662934
Hf 12.477845079625917 15.59607304133223 15.49833541319982
Hf 14.233189289256265 10.864767383785917 8.595094364996584
Hf 13.640802684637285 12.677873544213718 10.885316458978416
Hf 14.353005288564255 13.407726024935343 14.465024631921636
Hf 11.356762501038686 13.323677364309273 13.824686276781215
Hf 13.48318480488195 13.969294939516791 17.650670941353532
Hf 11.824079376455352 12.175282352167105 8.536778067178691
Hf 10.770817232743479 13.881432502431842 17.05595772715466
Hf 9.311694915695805 14.984532134457355 14.993875930008054
Hf 15.275711438656124 10.287305982289917 11.283443940725158
Hf 10.439251296183514 12.482904968692848 11.009435499617938
Hf 16.003063043318708 10.666613940724432 14.37054303372342
Hf 15.440905972923836 12.157572300672316 16.916163579768952
Hf 8.502622778196326 12.948765934972704 13.158285037768552
Hf 13.06988527716549 10.711207949309435 13.441681663476501
Hf 12.444709780208894 11.681784800873606 16.269383157413994
Hf 9.421517328251612 11.946162191304893 15.603486885602662
Hf 12.26159454669523 10.116092057090725 10.618644537965459
Hf 10.029610150790825 10.436531054925679 13.126281420553784
Hf 14.616563384223534 8.201092382588378 13.472450736865992
Hf 14.117716422461044 9.25427524390725 16.07506566362158
Hf 11.253321893226 9.129186087330154 15.39452509632376
Hf 11.699037497107382 8.038402206006927 12.817378046404135
Hf 12.854499162213713 6.799789162180523 15.090863888223774
