48
Energy = -414.38602503 eV
Hf 13.651426236530279 5.591028894730609 12.586754693813
Hf 14.222683492791043 10.456395752174206 12.89784618380004
Hf 7.516437277172684 13.683033759130073 14.10197462148235
Hf 13.871115129845832 15.185645751855885 17.969645767357395
Hf 9.585702669410942 12.642705370274978 12.318723755128314
Hf 14.551946397730054 18.20053978857965 12.033139524365367
Hf 14.43725527588455 12.052790730650282 8.625904507672246
Hf 12.169764624866378 17.836399644024283 13.657586064246512
Hf 14.532238779632264 7.933309974720226 14.571387277104282
Hf 13.334949493788477 9.771998129000307 10.021555477771196
Hf 12.15301587761679 7.704621015539705 13.31571860220568
Hf 18.30206819829803 13.954614085004557 17.199524827373775
Hf 9.87677232776121 17.451985539438937 15.636210433027742
Hf 13.19945930591636 15.446201838804962 12.163009528589175
Hf 12.273130636806833 17.469292720789827 10.471407648699204
Hf 15.059286155309218 10.48936620565638 15.892824392057092
Hf 16.125468663592336 15.642325841106906 16.15342904075309
Hf 10.622019853657093 15.093624585611941 10.606738022355259
Hf 16.80362305975899 9.367829146786196 13.613686424895366
Hf 12.15103255369622 10.080388373179696 14.998822565909817
Hf 10.062960865100294 12.570946852056277 15.372945206202552
Hf 15.794863412787485 12.843026803540702 17.36858524714832
Hf 15.49206044826115 15.95630728901838 10.31802353229139
Hf 17.75259738906756 14.665520618860944 11.4985746063958
Hf 10.203290893994263 15.086142926384797 13.88217561645985
Hf 11.11311698765451 15.179439401021618 17.126014465290524
Hf 11.290489033215586 10.100044624580573 12.109821874522435
Hf 8.472392886389303 15.01705839859959 16.31279433969193
Hf 14.76752116062264 7.863863655725581 11.599436991563019
Hf 13.22107265112382 14.713618842041008 9.261862048654592
Hf 7.577404163457455 16.532580384560944 14.12419197983465
Hf 11.979124615744038 12.377371525475043 10.340437236682545
Hf 12.344990710459959 12.698537922022116 13.494230376739877
Hf 12.161297331077375 7.066315112160803 10.650261969427884
Hf 15.380210161744047 13.086456341766166 14.33703701824742
Hf 14.75891317436771 18.016210505119442 14.860876876178445
Hf 9.624245649232114 17.459446804825227 12.214483663532855
Hf 18.16830604317113 14.186241763444205 14.319402020642645
Hf 17.745002706012954 11.586312788012567 15.517212862466973
Hf 17.03416807824568 13.077867371224723 9.425169552131582
Hf 16.044922175652758 16.040529491772762 13.269335655590897
Hf 16.121503152023752 10.439216185869208 10.343741026787816
Hf 17.65984371898741 11.950826951898298 12.381181232224924
Hf 13.27880858984854 15.293356229610344 15.122754133648609
Hf 12.65641025065516 17.589965495578152 16.75613682772449
Hf 12.995003316067535 12.673767947385707 16.438164213756306
Hf 14.933043137860388 13.159399552608482 11.315799511068324
Hf 8.056777617160973 15.112549110768947 11.756402613625093
