49
Energy = -426.93172162 eV
Hf 14.110074733727181 11.500154098174564 8.738337720305406
Hf 11.846022916173677 9.680118540605987 8.483110895328211
Hf 13.704134047352046 14.393346239123204 9.124916524131994
Hf 11.353401110053253 12.670395524943633 7.995581861355981
Hf 12.173043403218653 7.039401134810293 9.898906170352106
Hf 9.666313785988466 8.117695623906123 9.683995847276265
Hf 9.114042155852502 13.708630046406606 9.502180681193373
Hf 9.419330570769537 10.959988082242859 9.639471597546844
Hf 15.786360837440437 16.064761540510187 10.451147178082207
Hf 16.53867208041629 10.448980253987157 10.058806749965726
Hf 14.410111946511275 8.668792507390119 9.945896136554541
Hf 15.983995029049032 13.276097989575309 10.345309518597126
Hf 11.286194147340247 15.563395959409581 9.690813763635948
Hf 11.688846567099125 12.816123728516438 10.798397071923748
Hf 13.47180463470362 17.708685006484206 10.757809956785282
Hf 11.727459402685867 9.526539423275535 11.469808194371502
Hf 10.464647475312802 6.933476521322947 12.092273734971783
Hf 13.178336051657167 15.276960916260673 12.017710108369162
Hf 17.80757306354816 15.030666681847563 12.36831535104937
Hf 17.254340096176335 11.76673822413994 12.395474222466556
Hf 8.06602372179005 12.358099083539384 11.924645733152804
Hf 9.449941002347478 14.971559800853658 12.005017987122388
Hf 10.880275890469415 17.416981300959417 11.784493972169615
Hf 16.00188844912314 8.948178947248076 12.46087756591244
Hf 8.83996942044011 9.49067163065704 12.20714741597523
Hf 13.450135932590161 7.321348164140949 12.430650195351054
Hf 14.352362734951742 11.25301204229855 11.856171364730988
Hf 10.59747097417768 11.746331212634749 13.45967067457015
Hf 18.009936824389378 13.196216211986597 14.76177323014132
Hf 8.363935985501643 13.954982303874287 14.439401992769389
Hf 15.488480990698294 13.995121970256799 13.501875301910946
Hf 11.430257754449578 14.96611292675278 14.419682700441543
Hf 17.076797626286808 15.787793443318808 15.122262629545254
Hf 15.565308998571236 17.087442975488074 13.027995773357942
Hf 9.689369853612543 17.19781085240717 14.357395821491497
Hf 12.648935388699686 17.9128660902324 13.845244049119872
Hf 13.223608615002586 12.459190145714999 14.598345984174596
Hf 10.633634523224432 8.821887549925632 14.239736569645862
Hf 8.411976702474515 10.945340193196525 14.874540810235345
Hf 13.538074235313392 9.572667745596611 14.413030212711103
Hf 9.552878474322503 15.448626290329928 16.6144666097567
Hf 16.096124888664036 11.002634450014163 14.92123389734391
Hf 15.738026934176778 13.535895276592248 16.531476876100196
Hf 9.867694691775505 12.76624795956213 16.549280447436942
Hf 11.42918995580974 10.601062603779292 16.273738848062493
Hf 12.566186351046177 13.956948967388378 16.97475049031399
Hf 11.789804506568084 16.997927223032438 16.44883058340451
Hf 14.21697830993729 15.943176939271554 15.460593350078058
Hf 14.097106571717466 11.192412057004775 16.979326658514662
