40
Energy = -345.64825693 eV
Hf 7.591617989809233 10.020967779169814 12.549130935536445
Hf 9.193094736034418 8.161292433532282 14.098168518217221
Hf 8.699067715611745 7.94309831425422 11.203594812992424
Hf 8.795045976609199 10.568013606956228 9.829320011580103
Hf 9.106757972280038 11.127058004866532 14.686022140016547
Hf 9.290771512542458 13.983122288923358 14.264244657033009
Hf 8.714784447640431 12.612603570749426 11.974176224641793
Hf 9.737992888982118 13.575470304695068 9.407487785474839
Hf 13.083253023341962 8.216300264463557 13.764139968788355
Hf 9.034317063875335 15.772419064776471 11.969993573220103
Hf 11.054398868065707 6.897012930046314 12.176246521061126
Hf 10.62070491283579 9.80947402189212 12.326332212922168
Hf 10.817178082244407 8.552861725217712 9.396525053346812
Hf 11.076793020917515 11.196601655557952 7.67249884650353
Hf 11.496505906488355 13.542702032447608 16.14198293181715
Hf 10.80305597036711 16.37414518342547 9.614577338552522
Hf 11.019006835667511 16.1313606376079 14.502362927411157
Hf 11.739397978117411 12.139246964125046 13.696150228425408
Hf 11.374171285912077 9.838559536045327 15.48378017960018
Hf 11.721294001514275 11.584322113556356 10.170146226626018
Hf 12.496484956681094 14.127970061990455 8.833489383262132
Hf 13.238044480816324 9.385433527858186 8.434455693636712
Hf 13.86898031177245 10.864207196745529 11.802739020790966
Hf 11.469758036457145 14.476707092721313 11.623215361085949
Hf 13.490495626887274 7.881331055490143 10.954128157359225
Hf 14.050896726518344 10.61907650168167 14.902045950528287
Hf 11.371502510140875 17.49970381564591 12.061148791714478
Hf 14.43989685302419 13.198370155298328 16.37097301029397
Hf 13.301966955824884 15.842263292891312 16.270217005913807
Hf 13.519650888015475 14.331849785818893 13.823627519174917
Hf 14.622163091001386 11.775728009350681 8.734371417190253
Hf 14.484982089137256 13.579614967169606 10.92377553852778
Hf 15.638584537157415 9.31079078854042 9.849073022942902
Hf 13.872499281514669 17.12608489332102 13.590400072064078
Hf 13.60807476981962 16.400413536894682 10.61983427587523
Hf 15.742138971049705 9.138594694767793 12.74633910371105
Hf 15.844287463696244 15.317379304939049 15.104847960272357
Hf 15.83635068655204 12.596072572769376 13.665952077036797
Hf 15.964505998093255 15.375165504189528 12.357782215865216
Hf 16.581655183033654 11.618609714071983 10.981299215311992
