48
Energy = -418.34970892 eV
Hf 12.981572016938768 6.84268800870582 12.726503583264757
Hf 15.340458296189555 8.598313048052296 11.592197726673344
Hf 13.141992372503436 7.996736289580921 10.023724659497447
Hf 15.197539841167242 7.932109373046951 14.345337211188674
Hf 14.221689863540853 10.248955719306705 8.407399257944816
Hf 12.67016872283676 7.701059457482215 15.558313949665147
Hf 10.243153739888685 8.195479635836474 14.10050742887263
Hf 10.658473410733842 8.763201561972048 11.292926523645232
Hf 13.043685408293507 9.500136435180224 13.353708926160678
Hf 15.767170816333659 10.766068666983372 13.697966319987962
Hf 16.13406523319413 11.487827562934312 10.90707775938444
Hf 11.359808303401007 9.599124900439193 8.662953389690056
Hf 11.22961598055097 10.079547123972844 16.30277627569488
Hf 13.103705628815424 10.938661812971368 10.827807247797436
Hf 14.319005399358538 10.089750147270133 16.21273713981139
Hf 16.630204904664357 14.337182671060507 10.509209534838932
Hf 14.301938083710587 13.179336515197246 9.251270454182738
Hf 13.116903438529386 12.28553885905425 14.754746535457487
Hf 12.824759918870111 12.443900726093231 17.472156504407483
Hf 8.835316457128746 11.300921819487352 8.689612909566318
Hf 8.477111799016106 10.491068506307405 15.150538160450644
Hf 8.108709811210685 10.427071688686777 11.964262861577575
Hf 10.53830309693232 10.94716261350103 13.43893926428907
Hf 11.64028542590154 12.25228825893697 7.917942493488447
Hf 14.4114499945034 13.40478162492663 12.163053997014858
Hf 15.479053586488856 13.178957349904858 15.995258762131296
Hf 11.406593106518462 13.780321681223667 13.30134555336521
Hf 11.856240166716422 14.250364652627308 10.519079071204242
Hf 10.139405119892606 12.865457523864617 15.983283657046325
Hf 10.334610909532087 11.909825610499956 10.783459121600412
Hf 12.45005556054672 15.13770360673775 7.959481866463751
Hf 8.285221317974724 12.986110425097962 13.521638182749685
Hf 17.13378205274925 13.45971600587095 13.251052276103307
Hf 7.717690115536163 13.10540976869207 10.66719119317948
Hf 17.139652673564015 15.456710296824447 15.347925612563674
Hf 9.62531605510174 14.302662583832888 8.660316416204319
Hf 14.448303526569322 15.543011067251294 14.10040719198643
Hf 12.217549449959314 14.96453494654634 15.953630273435962
Hf 14.069692657680989 16.04513855754096 10.577964555820918
Hf 11.756980937944178 16.61943762233941 12.778707946526424
Hf 16.75270939727756 16.36598113558984 12.555526175339189
Hf 9.610541233791048 15.484743840080915 14.55084742531938
Hf 11.119390154442689 16.83565284761013 9.823429211124768
Hf 14.822165652954283 16.039935134401098 16.92193088953798
Hf 9.21232701708701 15.383199556530055 11.603583202935347
Hf 15.891054133163754 17.91572446101567 14.955488324921776
Hf 13.040078082700981 17.77914206437273 15.273085731760737
Hf 14.25549705370486 18.131835532453106 12.68250874747662
