42
Energy = -361.88410578 eV
Hf 12.906377051799005 15.232745968439838 8.702352449461172
Hf 16.395233751818857 14.156583164969742 9.370438806321353
Hf 17.37389532643365 9.084475900749359 10.358107330278726
Hf 18.361478250454265 12.528626915685992 10.889248342634001
Hf 11.20043001147556 13.047462043481854 8.356011601332325
Hf 16.497625124243257 11.384104412287869 9.105393507573433
Hf 13.90630795398567 12.483349790834454 9.162286863629605
Hf 11.724916563267954 10.831717633400286 10.192629429700125
Hf 10.001134415839392 15.338424105298243 9.5990158435309
Hf 12.106821100896983 16.9512807239531 10.727243386810958
Hf 14.643437483238287 15.701670061207842 11.119509379173369
Hf 15.273293134344653 8.57552379544016 12.72310274520725
Hf 17.40260260847208 15.10048034812543 11.826713953534489
Hf 9.22361641461121 12.38232722260751 10.313778875716581
Hf 17.34262770283578 10.48097093865181 12.62087255076522
Hf 14.526735512591742 9.590946768836039 10.15402901809766
Hf 17.70275424207239 13.044956010512166 13.779574865774483
Hf 15.464659246565734 12.805990243609825 11.816596075227995
Hf 11.996553096123657 13.909997774722124 11.147704632476445
Hf 12.36493058101476 8.460818859779266 12.109597505332466
Hf 8.008365377994659 14.532130786194172 11.568860253266601
Hf 15.485809676851186 11.14251759610597 14.593548276988138
Hf 10.077629967607924 16.18880584221227 12.515635070161514
Hf 12.828267151489479 16.179211739829416 13.442211632155036
Hf 10.216391363458849 13.103769539811038 13.533670134997049
Hf 9.967403132283293 10.401957903056578 12.389663706793822
Hf 13.261489095420556 10.900312608164924 12.77107557727882
Hf 15.582767330143437 13.385660077308868 16.416291045923664
Hf 13.53598685418982 8.719044772439267 14.811253198766657
Hf 7.576950543052813 12.08624960931998 12.78403421402903
Hf 13.238316461303217 13.30606325769118 14.625696151079083
Hf 15.60456538728798 15.108619548784874 14.052456006886988
Hf 10.773314617679617 15.369588710051618 15.359719398378775
Hf 13.368214320152857 11.012472788144915 16.615579517462855
Hf 7.812069163268918 14.51505935331772 14.35987270116369
Hf 8.409161661864326 11.890451637789386 15.49121521052955
Hf 11.132590996830356 10.313489267024645 14.897294036585915
Hf 13.71323036763623 15.622376117860517 16.3617675756235
Hf 13.343589023512346 13.518985127519228 18.134964129831125
Hf 8.651061754690126 14.351326009402584 17.130528956105724
Hf 10.99354299998641 12.692186220764066 16.71697046530724
Hf 11.170103637024658 15.279748025238167 18.139437461118803
