40
Energy = -345.45323983 eV
Hf 15.076804064650563 12.849510362314255 16.83046160437622
Hf 17.29263721860438 11.922659109834376 12.515089402601305
Hf 16.83194666267149 13.826363018084244 14.603911612285566
Hf 15.722378390926432 16.45933932968018 13.697150709223806
Hf 15.85377244055864 15.645411280181424 16.51202193512564
Hf 16.411322817856195 14.482136263345222 11.683581683169233
Hf 15.710827851276312 12.057591526873239 10.146198314089279
Hf 15.4728472416117 9.761383226320053 12.170391517915679
Hf 16.005231615086768 10.948804573454064 14.81444008218062
Hf 13.424317964305805 10.08429919540601 9.909182308545388
Hf 13.036710269261942 17.381448645898345 14.171391009442042
Hf 12.355209081399305 13.793449259639377 17.32232525986337
Hf 14.384786780859345 12.493601316437351 12.798183458476732
Hf 13.742418598109827 14.579729309484277 14.823925105903237
Hf 13.54977661081169 15.58184385870676 11.870351610790982
Hf 14.44029198759049 14.700126713270272 9.21427302516023
Hf 13.352307342678955 16.51653439809908 16.95314588671858
Hf 14.080101690724034 12.081212303945687 7.898305347309939
Hf 13.83759344665276 9.045036475741966 14.392886841387128
Hf 12.820920472901648 11.554962786115912 15.495717568966986
Hf 11.380233076980039 13.527235044806611 13.34481293331624
Hf 9.897135888566902 13.05014749703711 15.921827552516412
Hf 12.337819439678945 12.925985390552448 10.228560118781026
Hf 13.050495486831913 7.79602071944964 11.937551388894015
Hf 10.939593119199666 15.854276156572107 15.666089106407583
Hf 12.228091346114415 14.063907870662536 7.459322324772933
Hf 11.941698454190442 10.511983827604887 12.616351617050032
Hf 10.225368889289433 10.28710601321129 15.047467934914957
Hf 10.71821887767866 16.436498807993047 12.709183915980429
Hf 11.528136706144966 15.700697019339186 9.741164662720522
Hf 11.364040130422724 11.256077687661243 8.015899391736474
Hf 11.280009149331036 7.760400759665343 14.187224453150312
Hf 8.803727041259618 14.839607574741738 14.051955206845532
Hf 10.906683745656432 8.796084298658164 10.158495193871069
Hf 9.304989277048794 14.256862777155172 11.306078106740934
Hf 9.81628322823026 13.546057176575864 8.670267559050883
Hf 10.431684360540075 6.540685956398052 11.819304806444766
Hf 9.740003568689731 11.350275521326544 10.576050418521374
Hf 8.747566466553879 12.072673259567088 13.389163467948107
Hf 9.286847309223587 9.089787489050645 12.618419209248808
