40
Energy = -345.5056982 eV
Hf 16.62534815099147 11.869924586133449 12.855957637444302
Hf 15.944984390470283 9.198739031504791 13.286177352745332
Hf 14.90196996788343 11.235188705334382 15.280563884403348
Hf 15.11839012817005 13.276748775382968 10.783523465084482
Hf 14.908667880953308 13.98475222130959 13.863252465063734
Hf 15.716906141620003 10.2982785437268 10.415070652322013
Hf 13.484734420308191 8.775997042158364 14.482652967649502
Hf 15.185331624144226 12.072017444290868 8.025408267339198
Hf 14.206574760716386 16.12418839249371 11.959112598240768
Hf 13.867040449946074 10.974807906783296 12.491621329850624
Hf 12.91104983358889 14.083972581034898 8.540322485968328
Hf 13.360451183059894 13.533536739893556 16.335675085375208
Hf 13.803951202234916 8.181043326295395 11.504156108384924
Hf 11.957854712619374 10.833986513148135 16.186950217993182
Hf 12.429007058669713 15.539242151044949 14.36752441773514
Hf 12.47640804621522 14.136684959777043 11.49636203907125
Hf 13.96930353624636 9.312576940736017 7.974125366295384
Hf 13.008179490957243 11.455449271961465 9.643984047912799
Hf 12.122525100035768 12.489973541957344 14.021523814184244
Hf 12.696106933185114 11.712441617887215 6.8114250361079085
Hf 10.959552225987336 16.67523247181438 12.096374263705524
Hf 10.325597738025646 11.872497528061867 11.120449996681664
Hf 10.325830601561393 12.403374495519266 8.219738894464088
Hf 10.971149290638428 9.557178274552985 13.409581771944127
Hf 11.222699178709844 9.30508636960721 10.500563128470182
Hf 11.111374811584842 6.83340166075027 11.720117766810953
Hf 12.299455008342717 7.132612151183535 9.046711609920173
Hf 9.905618696918827 13.921146868474393 12.96927608029556
Hf 10.019770790501429 14.863788267610616 10.010994495978723
Hf 8.722421040336645 8.402499675504439 11.825053109867245
Hf 9.533829503398314 16.21260142410714 14.570272385627627
Hf 10.432533213970279 13.74465217921931 16.03940102476949
Hf 10.977893703128801 9.480988124863156 7.6025355271688335
Hf 9.316331002572998 11.452777143690072 14.952702707526468
Hf 8.45057115779882 10.236223372237646 9.54378463752054
Hf 8.127124698952162 15.953969715615996 12.080825829294337
Hf 7.872230365197318 11.128913657136794 12.525699423626772
Hf 9.513131247767333 7.464593105365046 9.272016360816659
Hf 7.804065655216198 13.337773882943658 10.909163187741397
Hf 7.505064496088664 13.803969006247328 14.119931740134204
