40
Energy = -346.27374403 eV
Hf 16.28614064913056 12.673247721030654 10.84837717378647
Hf 16.42361897660486 14.223039871306167 13.296068941852592
Hf 15.425820095503838 11.157328380978031 8.560858425048107
Hf 14.929147894117168 10.051884637120185 11.19345661096024
Hf 15.46892871576661 15.431349726954599 11.07145131077946
Hf 15.574562871383039 11.414482851749414 13.692668479372735
Hf 14.914954683537546 14.07558908800905 8.531412659523935
Hf 14.757657689846882 13.647277350204048 15.354997744035712
Hf 13.730688078489393 8.788610993014942 13.949242379414503
Hf 14.077257762714137 16.000216286501 13.616438516755972
Hf 13.071669542412415 12.357291863038432 9.916026077891932
Hf 12.988749245525172 9.48146704049835 8.986119368106213
Hf 13.325207939018947 7.76439236410676 11.313384486003253
Hf 13.622707415042917 13.446304805066006 12.614674608388393
Hf 13.236077079644332 11.917741092315742 7.089656441079509
Hf 12.235761833841897 10.437705378576636 12.352283218400364
Hf 12.851591992833509 15.662268439093346 10.340011718089391
Hf 13.187762502956934 11.280018114273588 15.35420245288206
Hf 12.016634155649093 14.261420230672563 15.118984911808155
Hf 12.066340490919018 14.358261791145592 7.930056319965924
Hf 10.984096668776296 7.673078416378048 12.802504378169075
Hf 10.968072871105248 7.10959008622156 9.787489483989967
Hf 10.85680506680962 9.593752910340543 15.048375823569241
Hf 10.67262740909271 12.175829762285026 16.33612925194625
Hf 10.498416689439376 9.137838599230971 7.547388166285627
Hf 9.89801873474135 9.712435259340868 10.366204024821505
Hf 10.558305332543888 11.925063613103452 8.279193946564314
Hf 8.515667663412325 7.233690974316753 11.424197627096039
Hf 10.477014167150223 14.038661885285634 10.39093193176018
Hf 11.097206134035192 15.29243966531165 12.8067646901847
Hf 10.114966037563574 12.364380763173928 13.272701377417242
Hf 8.509924336444982 9.531101689785036 13.185368082120002
Hf 8.296928913545708 7.79972206158106 8.749565717275665
Hf 8.331354898402672 11.19083582120974 15.496249126817178
Hf 8.049921776240495 10.497482796512779 8.197980269524267
Hf 8.812313823642116 14.053994553767396 15.083323161626696
Hf 8.126166806039192 12.23052465162366 10.577249113216029
Hf 6.960194724441517 9.57704208679591 10.72187469489373
Hf 8.3339328990112 14.562288301251593 12.253063535351531
Hf 7.119631432563437 12.22712937946266 13.260578751226642
