44
Energy = -380.19003427 eV
Hf 7.488920199967261 12.243769104262835 14.790273804607864
Hf 8.339819018196653 9.533199696915236 15.05588901158335
Hf 6.893286193381465 12.775145146709768 12.033703599825031
Hf 9.897869831668382 14.328909110161652 15.917550501817177
Hf 6.910670723896666 10.177920279473563 12.749224634163085
Hf 8.940818188727869 14.360537067860058 13.182778102576371
Hf 11.061944267754132 8.53345386454704 14.791233371811998
Hf 10.552948290313216 11.447681816575374 15.714619306198516
Hf 12.489276693260269 13.526058009364382 16.765486103188298
Hf 8.307370745644173 14.372481363717212 10.083229618069225
Hf 13.123480720058556 10.100792657337994 16.136760839397578
Hf 11.077752465409775 16.274210422780975 14.099472662185551
Hf 9.162931049149329 8.461394340914591 12.447618407841658
Hf 9.598492904283008 11.284171322983337 12.999435147459518
Hf 8.450705627586187 11.136379018755491 10.294781734890762
Hf 9.947006839566052 16.241369923074895 11.308068538993696
Hf 11.762531830327182 16.28543221856887 16.95894353152806
Hf 11.167086973136044 10.148134899601093 10.430250823520698
Hf 11.840103451349833 13.379834124871579 13.701190807883146
Hf 11.806241065887464 7.75602059265511 12.1339913502442
Hf 12.668123489822847 10.484125236597627 13.12186298464169
Hf 10.759438089295124 13.230119794614689 10.94523269037547
Hf 13.719288964673591 15.417111490617069 14.901972853392945
Hf 13.984447508083937 8.175683671060478 14.07354214601546
Hf 15.794251970888197 10.348629132425264 12.512472095326448
Hf 11.536982422652427 12.317229706781635 8.258854045322627
Hf 12.769875131024582 15.580215204537371 11.602689252097482
Hf 10.960108121299765 15.377344151116757 8.970891554899108
Hf 14.515820768170476 12.505184397568135 14.903966370089778
Hf 15.22268890443314 13.62934807229241 12.200361709313116
Hf 15.869131487917798 10.037204079877508 15.41051131395469
Hf 13.565849814862617 11.903702291891628 10.370154689549365
Hf 13.591941437771641 14.533016582845443 8.699958229027974
Hf 13.247497864306698 9.85759471859146 8.343819249991098
Hf 14.020545021423233 8.916148253615372 10.934683541436739
Hf 16.55472668155367 14.780256020445961 14.70118611008774
Hf 15.388696367519856 16.033734731837647 10.259390293670494
Hf 15.414514086185457 16.566093160489615 12.886172751103233
Hf 14.424141844795464 12.219972315346377 7.524563240521406
Hf 17.326628809116013 12.301108657184844 13.91442512254693
Hf 17.702739215571572 12.048476728780003 11.192575861576568
Hf 15.983897993623128 10.600822852642318 9.354048632557504
Hf 16.40033848577239 13.587355486395195 9.245950113026986
Hf 17.64817748254775 14.917529156968387 11.849751790374683
