44
Energy = -381.83049462 eV
Hf 14.817695037734147 16.9924057830569 13.625859228941717
Hf 16.81861928660336 15.521826939370456 11.93669200508156
Hf 14.289753623613878 16.319716904245325 10.67622513305782
Hf 14.515061500522975 14.202394596996353 13.046425470385373
Hf 16.796708828635232 14.899384489728416 14.586756057460436
Hf 15.241667821937455 12.294839833669695 7.658300098582628
Hf 12.040211310114179 16.82638492769436 12.354792467268755
Hf 14.504248767891365 15.439934043321276 16.184183290201744
Hf 15.585384909315028 13.804318246561099 10.042453639353331
Hf 13.245996119495953 14.31722731847517 8.334881970711246
Hf 12.296302760125261 17.215245211032705 15.235673606522802
Hf 9.564872498315085 15.104848157449048 12.557663022782314
Hf 16.702032867633477 12.377968152932878 12.630184596300541
Hf 12.337993813088604 14.175587455411854 11.242221512619487
Hf 12.607583232187904 11.621275002333787 7.002211743241736
Hf 11.898168210583284 15.429714338375076 17.312242178879785
Hf 10.734379399251269 12.82655564418173 8.65679196984047
Hf 9.635647714340319 15.736604998885753 15.621550287606548
Hf 15.372948297907588 12.505527682761777 15.370810038164318
Hf 11.896339696919638 14.428916653612701 14.579171523432194
Hf 13.400402235920213 11.644967089502146 9.874425780447236
Hf 10.733368761101305 15.720359584143642 9.7472577861326
Hf 16.200360810652903 9.925521313961228 14.488689667961754
Hf 16.32598171098242 10.833677346807312 9.78771924585165
Hf 13.119246239045362 12.799291693673789 17.018517780806594
Hf 14.071814981861944 11.118286910257481 12.853206573490494
Hf 8.572678487714498 13.824791867805269 10.034599424698348
Hf 14.327724225577512 9.618631966171732 7.940640020424713
Hf 10.446601961237516 12.295154379481964 11.815571946456574
Hf 16.16746170560737 9.176745048555595 11.957518809868603
Hf 13.805568678002208 9.911557430652751 16.054045533145086
Hf 8.672660925800038 13.113088960642896 14.659729840351835
Hf 13.736017618574268 8.643483676640649 10.585292522351883
Hf 11.477814204989434 11.433422898158858 14.626638486707776
Hf 11.499698776863433 9.698001659983955 8.943871026536504
Hf 10.218040762135736 13.1068736838017 17.03472798914368
Hf 11.379603243722611 10.408300607954718 17.35883547920392
Hf 8.87996756867944 10.862227223698177 10.104234111073675
Hf 13.89200381483868 8.317673926654624 13.593875951622543
Hf 11.39617610009659 9.470214525184257 11.979037546565689
Hf 7.584119367359827 12.556270321939182 12.136295234209001
Hf 8.926740817442973 10.209213257845377 13.234920172612439
Hf 11.127654157264377 8.704844519529168 15.025650528383771
Hf 9.0034657400291 10.612207794585384 16.018883233985076
