48
Energy = -417.74162336 eV
Hf 14.52032397057553 11.697035284408289 6.928410664801685
Hf 12.500256629339347 13.938097879121113 7.220026283177409
Hf 12.087712263525566 11.005256332035385 8.250828254065052
Hf 15.42668769567442 14.366791928309715 7.361565411981792
Hf 14.556788486706404 10.033044842053725 9.432923099188574
Hf 12.301655608802335 8.748889320920824 11.060236345945466
Hf 10.205198729042865 13.068608717222057 8.748302478091562
Hf 16.716388105778883 12.132040730358266 8.711868317650081
Hf 14.114316361226946 12.950353186302877 9.463062193271762
Hf 13.849560952621685 16.146308745058416 9.049951863813495
Hf 10.873528529769917 16.07596391856881 8.750269502480865
Hf 10.668041504751434 10.162424244096991 13.28503733820347
Hf 15.050691393313395 8.421601165568577 12.086340682633564
Hf 16.873261709064472 10.0727485520996 13.889054567939443
Hf 9.583581661791234 11.126067897909692 10.78025997345514
Hf 10.30996013719457 8.821169124689938 15.768087266101606
Hf 16.376772500066654 14.790667975056305 10.093896985836416
Hf 14.083972357649218 10.612705520499935 13.549681810423435
Hf 12.533073341069535 11.457390546761482 11.177309642263829
Hf 11.75176549651093 14.52275593648328 10.755747422731181
Hf 10.651323183868042 12.991308145483554 13.048363043301356
Hf 16.070820778493207 11.850846905037859 11.629123448923233
Hf 8.492641980921425 13.797987758945254 11.018519995175552
Hf 12.579358178698481 7.904624533199431 13.938081745469518
Hf 9.726520006383575 11.852981462620049 15.798610474778988
Hf 13.023881994355863 8.351902083040136 17.011725044778824
Hf 14.178874857301778 13.897005232133822 12.454279520465603
Hf 12.444383921630418 10.83012382546875 15.909654840505372
Hf 16.890929356176176 14.683912199046773 12.86108164529327
Hf 15.14833210896302 8.084713857688001 14.894539972748632
Hf 9.530849553020792 16.44665578925205 11.545824710629205
Hf 15.816195656284151 12.761408616530142 14.699159806538114
Hf 8.510254451160298 14.913886792983947 13.712129573636956
Hf 8.127822491648285 11.875549331801999 13.193235103572462
Hf 11.953797298821383 15.678240292460142 13.533090612882305
Hf 10.809225330058089 10.198925416484746 18.102587215685325
Hf 14.888530619329758 16.746847439865967 11.886095366087407
Hf 12.067256104320457 17.51202035946232 11.147428293533967
Hf 12.785001946398662 13.605992497013679 15.2180184408215
Hf 15.510241571794603 10.357740632833856 16.5582808586306
Hf 14.854481856622858 15.795863059993108 14.728003021458663
Hf 13.499350164563984 10.750666350660527 18.679632249987158
Hf 10.123174492235272 14.92000406486022 16.0024093402388
Hf 13.212333025562806 18.135767938742823 13.998859342439813
Hf 10.17966885205397 17.491771586179297 14.419142803862199
Hf 14.543169439796698 12.98764333677078 17.32935157348946
Hf 11.737642445492284 13.005894440057373 17.909234719179988
Hf 12.384607073877005 16.459152595294743 16.242065478318835
