43
Energy = -373.00051012 eV
Hf 14.664886927789395 10.996231134629685 7.029220001923725
Hf 14.138025398706255 8.54333751760432 8.337058535984209
Hf 12.199005500206106 9.67022342641424 6.592582795697856
Hf 15.658285259078287 10.591853011503405 9.763183251882344
Hf 14.527915447374403 13.336364616082767 8.650345747709869
Hf 12.251341024403056 12.625556687928764 6.83490861521196
Hf 15.152428367342166 15.810519877967565 10.002795162700425
Hf 16.196557998664765 13.403536601790814 11.100425601225464
Hf 12.682848081519499 10.922601173357998 9.227946962010318
Hf 15.243946169312272 9.572616040570557 13.984523068289864
Hf 11.182672418212611 8.435271253064718 9.007715036536784
Hf 13.80981498234702 8.76091609376156 11.179179206780148
Hf 12.43599087954493 15.613804413078817 8.908999283837664
Hf 10.050796875611878 10.953535532687408 7.772822253081811
Hf 15.308419550407429 15.42686487844883 12.965988805506111
Hf 13.084499014620357 14.161667107140538 11.236463415901005
Hf 14.067074107330114 11.506636759595809 12.065424499498166
Hf 16.00104467832003 12.717812986249111 14.067786411393966
Hf 10.709921887510285 13.344293114397999 9.276942614246968
Hf 13.087112952740906 17.051460304766756 11.36818671018274
Hf 13.084790606698641 7.519081661946362 13.741560163498747
Hf 9.122470804582495 10.132119086664062 10.316827810029357
Hf 12.283608427312304 10.445950093134153 14.352617016781727
Hf 13.112372144089735 13.376780979868334 14.15701460950849
Hf 11.023508836401465 8.723709201351285 12.081600264576071
Hf 13.710515415791475 8.592873746820784 16.16847484141087
Hf 14.442011562959078 11.438041880908255 16.25097766829884
Hf 12.913343438149639 16.472257120767388 14.085962963013573
Hf 8.44291590965081 13.011698890811118 11.309667740808587
Hf 14.542814537465619 14.628234932276309 15.924532524048473
Hf 10.415186161753168 15.527478885191739 11.34737596127038
Hf 11.105500676659439 11.705049753536276 11.751141696145464
Hf 10.761646390440802 8.342785770634045 15.348582588125199
Hf 9.022917742484559 10.268170642050308 13.225521648076642
Hf 10.342969614837275 13.72561562736393 13.875953067090853
Hf 11.819116857009426 10.148356260503554 17.330336096920668
Hf 11.794367300390471 12.939418476206965 16.78029077090931
Hf 11.645137234214877 15.576695626946266 16.22920174222598
Hf 10.03100232215993 16.686472724331924 14.199067546804166
Hf 8.01080138860116 15.23075551791211 13.13151042006768
Hf 7.609256477757062 12.656525801755643 14.106133800379153
Hf 9.689973219839077 11.326946521565938 15.768252102543482
Hf 8.816852332776918 14.563026477899431 15.975830579935813
