49
Energy = -425.1171039 eV
Hf 16.850815346880378 15.771031661721278 11.51758569283542
Hf 17.79927077250952 12.711976929292204 12.14876479861865
Hf 17.49303248576721 11.734707319614442 9.392360112746921
Hf 15.762757936092525 18.547940832651406 11.327971796284386
Hf 16.92597432650134 11.272534009220148 14.445452733722348
Hf 15.438483141373041 13.42770329789782 10.422213328156154
Hf 16.748540013520426 10.159434433029432 11.705083091276713
Hf 16.087068667273023 14.213004397392512 13.86044134747177
Hf 14.553588727438186 16.43178933929071 9.99161258753946
Hf 15.178264487854122 16.912242220328096 13.491577085008013
Hf 15.591117615312724 13.074930654058601 17.145341698406842
Hf 15.405846127971659 8.980725071196506 13.908914420420283
Hf 15.555655936224005 12.434138284079982 7.565880114238247
Hf 14.781289299659527 10.435512590058357 9.373728707451628
Hf 15.376337297747288 15.762382117463723 16.214520880712396
Hf 14.510760365174658 11.754955824813777 12.855286482365184
Hf 13.517449466960539 14.303804331957368 8.079905456631458
Hf 12.469426370854332 12.341083028883064 10.278634560379574
Hf 13.363431587911194 14.743872032390703 12.266833441770356
Hf 12.935714222179154 17.737777765855096 11.967393636211398
Hf 14.586483983895205 10.46133578968169 16.173735332763066
Hf 13.456143365118509 14.93773243981254 17.83193874527969
Hf 13.506032823090779 9.0786929265275 11.772817040621469
Hf 13.523111816867052 13.494696884554564 15.289842788105437
Hf 11.770527729157246 15.774474076487651 9.86186407108349
Hf 12.67646067729229 11.54975691383104 7.468398443411259
Hf 10.860929360568049 13.76318365592314 8.062411449539319
Hf 12.752474988132338 12.136216609018318 17.816132165687133
Hf 11.86579996197336 9.360654497545054 9.531517384762934
Hf 10.40922895243386 10.658429224911744 11.846305537627153
Hf 12.131367902798981 10.930352242950272 14.384118081899109
Hf 12.771722876904253 8.132623043457379 14.5196409180254
Hf 9.916299363336286 11.337249542807484 9.014265168510406
Hf 10.900443956347493 14.348762512518556 16.775711577306314
Hf 12.45110070376152 16.140087746318443 14.784112888915281
Hf 10.670012766324989 13.754899562485654 13.852161301516892
Hf 10.265257825969824 16.226460722364024 12.254398675897702
Hf 9.67126961343855 13.571212604300664 10.895390413090507
Hf 11.949908200077411 9.45599875504813 16.84423911986321
Hf 10.774939798358938 7.800259276488121 12.207638984473325
Hf 9.009838809061188 8.772589542173312 10.055735546453715
Hf 10.056572251603047 11.636672134762536 16.46863115025814
Hf 7.665389842064858 11.23741637910423 10.967572644686678
Hf 8.226560542489247 13.847528858093652 15.69726691581732
Hf 9.908529038916669 9.102414924828034 14.813467960273066
Hf 7.964673777935797 14.559720868116884 13.02024843822755
Hf 9.451728022463255 16.223181132933863 14.966401904924075
Hf 8.362919213978952 11.667045680890132 13.841087844385543
Hf 8.102036272229867 8.992439132393814 12.633788764741698
