41
Energy = -355.34855455 eV
Hf 11.439929570376458 16.666433599548036 11.836902174531472
Hf 13.205226261647034 15.657100138559697 13.854288700262229
Hf 9.966637824568162 16.631292123918524 9.293679983583804
Hf 8.741849099297971 15.647902441559664 11.646908597860708
Hf 12.665827934581047 16.3737999284055 9.177154265953325
Hf 14.174246135602282 14.711449643883675 11.034882310536338
Hf 13.063459285588287 13.393259616028878 15.688948232284124
Hf 10.392445388839006 14.505316989144813 13.820777156086399
Hf 15.29890414095891 13.858453132163257 13.801293158262325
Hf 11.089044046406869 14.13783177122651 10.469388671878264
Hf 15.289127649945115 11.232363557827318 15.302958459817214
Hf 16.12170668841521 12.958665316752027 9.650105358848014
Hf 8.443303515873238 14.30587480991625 9.158132448517355
Hf 10.949521049665126 14.435994698177463 7.564050860242699
Hf 12.691334517249526 13.036628459750563 12.837057093717958
Hf 10.433990871527048 12.008368269364468 16.555191909795425
Hf 8.611373184409901 12.732251207790405 11.660934213283578
Hf 13.933349094375014 14.112386033228155 7.949001441410462
Hf 12.98675052980922 10.866295806996442 17.104559905002265
Hf 13.450507357324081 11.833263679354971 9.712948376444078
Hf 15.095243144412843 11.558627869316204 7.340657259327682
Hf 15.23995267646023 11.492280193201285 12.183061132440706
Hf 7.999865836507084 12.878104906054636 14.667862415468269
Hf 15.929810016962392 10.12389939334386 9.690319512877114
Hf 10.114104916064848 11.404180980344213 13.77370986904308
Hf 12.208553397077402 11.628803439708566 7.072851992708294
Hf 12.85210041519726 10.399056506503056 14.118847621667685
Hf 9.715268413342404 11.858772106047978 8.694112934014942
Hf 11.286084612264252 10.590568926118832 11.317187679288569
Hf 7.334356958925226 10.533866393761086 13.199144882515936
Hf 8.39615935970408 10.159782034979441 15.72242033134256
Hf 13.98925464124507 8.581681331282754 15.953488603739418
Hf 13.729467978490824 9.237083419277662 8.14957166951691
Hf 11.0352976166687 9.02973098589983 16.074962103674565
Hf 15.24817478810951 8.866343312185588 13.457469612711002
Hf 13.637899726427946 8.88705480716075 11.092614319316754
Hf 10.971657987207768 9.366904379894462 8.716344599285632
Hf 9.427695668393806 8.453833701214789 13.46391466033185
Hf 12.4407912708193 7.623032961673096 13.589043154740926
Hf 8.697139790299202 9.661037721833445 10.780204478191385
Hf 10.875045839738636 7.722496620379052 11.050760667957432
