45
Energy = -390.88707016 eV
Hf 13.761667684074743 13.449007020825439 7.180123616696061
Hf 14.829547735177481 15.980976487306577 8.434236943011115
Hf 12.231064223490721 15.972841544491335 7.614779172150011
Hf 14.652674342004136 11.127211439247494 8.981017576027268
Hf 16.081761196851506 13.59973727307535 9.371821027354391
Hf 10.7216617987506 13.597609472180798 7.648850949591327
Hf 12.031509477779005 11.02719101841268 8.234908426308683
Hf 13.081419101676467 8.127196910071616 9.412023057650838
Hf 15.75099934428646 8.756547319630782 10.112816151095307
Hf 9.315208969004528 11.298476317698709 8.72165166640571
Hf 16.99396214254897 11.215841285594411 10.99182394824834
Hf 12.946299259763123 14.16638578581646 9.771172357922538
Hf 15.117415437661839 15.744678155791622 11.28207338734504
Hf 12.854110647568813 17.09963824126173 10.173654424676448
Hf 10.385875670149204 15.781748732245404 9.687118072989332
Hf 13.348447593716658 9.96488560414276 11.519306170710829
Hf 8.628166318746487 13.754788997674343 9.777645663703993
Hf 14.530138241584357 12.631524779436479 11.904999209125515
Hf 10.519128934336358 9.422859961334924 10.530509537349175
Hf 11.05081375459519 12.316018639348929 10.86436193948347
Hf 14.398069528267204 7.1961540459953355 11.842909417769562
Hf 16.05816003857493 9.288064062019513 12.951700687947863
Hf 17.07571105771311 13.901380804487165 12.136842790812933
Hf 8.336757173422148 11.457758402403366 11.53203227160975
Hf 9.708642392481956 14.610926909246826 12.474203127010124
Hf 12.676051537634592 15.271979732249301 12.539919994839533
Hf 16.72825023732626 11.890357271060038 13.811651596196498
Hf 12.132132467772394 12.784943694646369 13.728785179073279
Hf 6.939639845024191 13.522543312336868 13.249774978562895
Hf 13.396075094572609 8.447307819434966 14.306877112954433
Hf 11.604890870352245 7.547051129722096 12.22466015385836
Hf 6.737581336557094 10.768684522180466 13.946934253056627
Hf 14.719967894809558 14.063516676755357 14.349341878523909
Hf 11.12002546074386 10.152842123962744 13.378210870001077
Hf 14.249939062967067 11.073573371267168 14.780306453772257
Hf 9.246998472087423 12.249918187292243 14.210090857869798
Hf 8.498343306800937 14.842704362465684 15.2300826345436
Hf 11.259791033942864 14.981072115410857 15.299603772129815
Hf 8.627003342601215 8.816745329061495 13.195415421624821
Hf 7.132633987176787 12.536888349317453 16.039162371148027
Hf 10.607833529932135 7.972230515491603 15.070327390383518
Hf 12.844690257524608 12.941788181816634 16.520280635133542
Hf 8.756603773088393 10.004473507113826 16.012192341892796
Hf 11.666412295547822 10.374644682550143 16.407862083013747
Hf 9.957590533272258 12.75739819378024 16.935712998834553
