45
Energy = -391.65938088 eV
Hf 7.979822114151497 12.33442268751614 9.688542813795792
Hf 10.116857813939426 14.026358690230234 8.860899533684034
Hf 9.895345906275741 16.601245431029103 10.134736333142591
Hf 10.710222817830461 8.04748791030073 9.6590558322623
Hf 10.55284833691082 10.87914230202991 8.921085624722476
Hf 12.601324875021591 15.631971098502389 9.446558895308398
Hf 8.082318211160059 14.801542630351943 11.384426566403164
Hf 12.846563530965536 8.834057715378872 7.953361872566942
Hf 8.855803708861478 9.79223396063385 11.043951817172498
Hf 12.715973827137779 12.708288663124486 8.1640711653503
Hf 7.3134360727007905 12.320409910715437 12.581889393887574
Hf 11.446163066420453 15.08296285604596 12.164543144975598
Hf 9.438342656499788 17.035446899870113 12.955498518839178
Hf 13.375068589178966 7.451469946111883 10.586254592027679
Hf 11.999152942933867 17.78168219807694 11.573264561877549
Hf 10.15848276776797 12.418147726822827 11.390054993499517
Hf 15.080721464269931 10.864977677221171 7.467178331025602
Hf 13.157116746026961 13.119247594652279 11.128143260943842
Hf 10.757748513113736 7.4580850901855404 12.525191342630459
Hf 11.714722384791937 9.841497675679442 11.843464354354108
Hf 7.475428791412079 14.90392141534712 14.499887339724525
Hf 15.495480613872415 8.407502578657429 8.79306332723504
Hf 9.302144202608188 10.205606938512751 13.798820772715638
Hf 14.214280080643874 15.900644255820733 11.834287182991241
Hf 7.7398837453504585 12.038419617006943 15.422250146038348
Hf 9.811061582601116 13.571133613238448 14.117553636675353
Hf 13.902876695179916 10.5424414075451 9.965425372958775
Hf 16.88587286179223 10.755302694032386 9.858892364636697
Hf 11.56219096771097 9.007675164176188 14.898461178479383
Hf 12.49999707360802 16.65007815281507 14.29024884704866
Hf 14.15884392791342 14.12077020390067 13.932586949377784
Hf 15.249769201753429 13.155111861605143 9.181083984677677
Hf 16.148194857666436 8.337872535420011 11.609803897847819
Hf 14.747315177989144 10.652131664676046 12.785405934985057
Hf 9.945321506951469 16.23245579175247 15.616112676135025
Hf 10.61575443809971 11.52541741619887 16.194150599556735
Hf 9.157270280350497 13.960497770610967 16.853119576387915
Hf 13.79045702023665 7.894310127828907 13.546370627442197
Hf 12.320019614859927 11.878208548617176 13.91017294684217
Hf 16.217632664666677 13.143042282207068 11.92903843553309
Hf 17.66781532547779 10.6958298982199 12.656852745597977
Hf 12.001478525229743 14.19720083842436 16.087886416149523
Hf 13.999267169819431 10.275023032906777 15.673913927438383
Hf 16.26634561287078 12.037604758607207 14.72183081842224
Hf 16.328808864384527 9.077095190668688 14.50061749558786
