46
Energy = -400.14128504 eV
Hf 9.81011504685579 16.43715861145458 13.470816396481567
Hf 7.630665513950519 14.365576149352993 13.127595811475276
Hf 12.29111529934258 14.024415411525968 9.343101641299949
Hf 12.597523871866443 14.94982213500404 13.798380991116462
Hf 10.701392070594242 12.663823373624501 14.34469466931891
Hf 16.876189079517424 8.940365816576954 11.071190128597289
Hf 11.252249296640146 16.48389656580658 10.579774501917036
Hf 12.266190755005297 10.972443719279958 9.518543156642272
Hf 14.21373026870475 12.734271506692778 15.520552552545395
Hf 11.73599814735217 12.221440609418009 7.052095575105511
Hf 10.830806543734885 10.887205994556364 12.086909976552088
Hf 15.92647184835767 11.18509800893458 13.320197301618292
Hf 13.385578262106472 12.824719772373344 11.891567150453334
Hf 14.59732957219455 17.07531341556553 13.939122905058124
Hf 9.895419454717457 9.015887912809227 10.278994147280978
Hf 12.123433476053656 8.173356150596806 12.349065344750628
Hf 13.662184860708656 9.837077921408007 7.243241535015378
Hf 9.170544408767686 14.67431210679598 15.736292476655827
Hf 7.433046185666998 13.690633211200971 10.307552484042166
Hf 9.428392982998869 11.807494639310464 9.201304534162926
Hf 14.527732091294297 6.971535839580005 11.173290927185779
Hf 15.315425314490678 8.003886082356933 8.795042053360158
Hf 12.22791015418195 10.789974691808139 16.80330546837843
Hf 14.461147845803726 15.44491666993817 16.11877019687664
Hf 10.67950695716141 9.604160532922965 7.63306391009703
Hf 9.599419941376539 14.8033483315065 8.772743211790548
Hf 14.07682072337048 15.760386117984874 11.336657953945585
Hf 12.397167400023918 7.796093188722098 9.285688696221598
Hf 15.959440876654504 12.49002295218713 10.7108796933879
Hf 12.05431530344835 16.98144360959075 15.633524418562512
Hf 15.024584183630873 8.451923650806028 13.534071473475713
Hf 12.214858501348571 17.80073506605376 12.884722574171999
Hf 16.21416504676242 10.54306913113448 8.608474613409223
Hf 14.40096209824886 12.566079921552223 8.119376258439956
Hf 9.701571638808781 12.09611243364736 16.926943668481496
Hf 10.121941592645662 13.833678164701091 11.479147780650797
Hf 8.419648231686446 16.228096616317867 10.983617051924263
Hf 11.919259894578673 14.10262592216558 16.785208694286794
Hf 13.004353806570492 10.60713355379636 13.90072430311124
Hf 12.692101742923038 8.273140439622455 15.450574447262813
Hf 10.10599429398507 9.865391136116537 14.928191999207403
Hf 15.505241314554976 14.310392028216832 13.426075597205822
Hf 14.329700097380318 9.88724617462617 11.007464333569073
Hf 14.948080767296196 10.003310605465686 15.996697836427687
Hf 7.900480055454095 12.062998429145553 14.865721740011457
Hf 8.074717643242927 11.541036232848798 12.00597174484835
