44
Energy = -381.7709589 eV
Hf 17.496677851365614 10.187426057918936 11.030439703577727
Hf 18.639022881647602 10.663768652454566 13.590656007145135
Hf 16.27038294023387 8.832177112924716 13.50574897677608
Hf 14.794265461190898 9.362337546496807 10.888345355706043
Hf 15.724221441387156 10.657884171231512 8.375289779153135
Hf 16.87421402531849 10.70791938250176 15.769093805755197
Hf 13.007208574377994 8.372706409423703 13.286087849753631
Hf 18.179326336220438 12.905826298608641 11.803496219810105
Hf 15.916175779962133 11.596632765041331 13.172969873574006
Hf 15.603090696848728 12.48222973481058 10.345352862391987
Hf 11.982989457054344 8.934003747624972 10.680916490660598
Hf 17.82709668454652 13.236646939375765 14.629917689899608
Hf 14.046036564478744 10.298085417724437 15.194948799579373
Hf 10.146069564329727 9.108932333657494 12.799029880974143
Hf 13.005231298028274 11.16479031730559 9.147798643112086
Hf 11.214090505613237 9.349291077775087 15.652366264113756
Hf 12.905065436417567 11.14730926273418 12.456031747436239
Hf 15.118285171260085 13.136665329989915 15.765722740345002
Hf 14.181224913886703 13.705711894611726 8.148246374043877
Hf 15.753695031925222 14.480945553548864 12.760201374876342
Hf 10.509497594076645 11.556331438334038 10.69302285758735
Hf 10.580284249079007 11.747581161250185 14.211105047348246
Hf 8.467421499359748 10.030592321713932 14.98094735425309
Hf 12.816160266206028 13.847238788872927 10.826513786915962
Hf 12.41897306879244 12.061059074179767 16.794512967774295
Hf 8.126771845014524 11.498951773660874 12.396904841207132
Hf 12.98635673707741 14.882749027165481 16.77058922335458
Hf 9.657049738843156 11.565467051610229 16.975539139590996
Hf 12.925157535884468 13.954036491430998 13.96444059398054
Hf 15.29186872761788 15.411627485693835 10.077423193785817
Hf 12.681347776835334 16.19255924217052 9.253719856451852
Hf 8.142568513111373 13.419573560137076 10.119176725462333
Hf 14.747529140031318 15.994901200433382 14.953387486062617
Hf 11.353573820585948 13.385421956952843 8.3146414046431
Hf 9.889194920218376 14.011791669354574 12.44506537480134
Hf 8.018956123035709 12.999393863041425 14.980593997781694
Hf 10.03261489119456 15.465579811143709 9.475856698500994
Hf 11.79654145210471 16.56880726436494 14.674020864801788
Hf 10.34031062152019 14.327367972022603 16.15420935044315
Hf 6.927302566474233 14.13382171671095 12.625350306656422
Hf 13.732084399785057 16.578501219249386 12.24920961809158
Hf 8.186251162861252 16.13943737188721 11.308112889352655
Hf 10.836764152894707 16.907658833302477 11.864330161908224
Hf 8.782628204382062 15.996373780926826 14.160097382279805
