45
Energy = -389.90116019 eV
Hf 17.650009483419275 12.646066938173677 11.218945828011051
Hf 18.13732677967793 9.993494179282205 12.380162380174069
Hf 16.55046864241481 9.227518798882468 14.52718592892108
Hf 15.896502676202264 15.246730505235217 10.096608108901128
Hf 17.54167022558585 12.014117448490701 14.367235025285872
Hf 16.028110849548245 14.33904988300218 13.116966619039703
Hf 15.63488176841752 8.33673596249249 11.956853956613662
Hf 14.452019418484173 16.473832173453943 12.340265411236414
Hf 16.723359753563184 10.110321817220623 10.019925644916702
Hf 15.88541434503382 13.931067947980079 15.929810450994198
Hf 13.901576846542254 15.749980811706504 15.063023725423662
Hf 15.714393523645194 12.527583640831256 8.98672451465354
Hf 12.82358846260537 15.999209590401875 10.200027073718694
Hf 15.04092311676452 11.236622047549975 15.902322504826111
Hf 13.885535252672172 13.424530999556964 11.021435098954331
Hf 15.45596499056912 11.17324545275275 12.53100823472776
Hf 13.661924208367502 9.1862141592206 14.011673930093782
Hf 13.244804137449714 13.481425353267566 16.941391421574355
Hf 13.416122359041434 13.03083311552212 14.030967895317115
Hf 13.8133429408741 14.504039375027451 8.029432667775556
Hf 11.78363471061992 15.29949806887604 12.78271140425146
Hf 13.81374339107143 10.1762988020694 10.300326166168034
Hf 12.427231850273897 11.98606748177539 8.283690528386959
Hf 12.087079794129131 16.985222260151733 7.863222419487628
Hf 10.06081156468806 16.315687642924935 10.22650972152156
Hf 11.587939288040193 10.93676434765029 12.283894723880916
Hf 12.168223427814363 8.173240770289736 11.705386984196704
Hf 12.028121777397674 11.040918264689848 15.76901936725351
Hf 10.912686366282276 13.41198949254759 10.583794474664305
Hf 11.184119397066901 14.927277730058526 15.61038199401585
Hf 10.682008830809071 8.742921341782157 14.21828496348012
Hf 11.005102419367093 9.813599935764268 9.577548732689767
Hf 9.4902357974857 11.969511508894026 8.39160563420833
Hf 10.814346422185352 14.48499777012222 7.842214674326764
Hf 9.836346179704915 12.45213503275545 14.198906732095661
Hf 8.847275038921653 14.764870962038362 12.470473004837709
Hf 9.973103575280488 12.880880547802805 17.173950728533985
Hf 8.603365514016154 11.657758213203918 11.293688303439383
Hf 9.43293009880367 10.206561267174052 16.433298493142047
Hf 9.408246207589583 8.853223647662555 11.70312867300036
Hf 8.336603267727842 14.197246628844688 9.579925857631107
Hf 8.292546442626197 14.58214975548839 15.406795942812368
Hf 8.005365787736052 10.090859675204237 13.884679397410904
Hf 7.015785083559037 12.860732980383707 13.41937494785076
Hf 7.401502067858523 12.001106790668501 16.047989921466847
