45
Energy = -391.19805242 eV
Hf 13.592235942488589 8.646260573902781 8.858414165307993
Hf 10.73004854690203 9.657576416235642 8.796493402857449
Hf 12.904740324647962 10.777421468240924 7.034571680981005
Hf 16.153578708625567 8.37560444475014 10.264426625043473
Hf 8.875754081017577 8.874135954177621 11.225610672048736
Hf 15.583538538987648 10.711091848443862 8.35161665663683
Hf 11.943754998374201 8.836072728763142 11.318448308612187
Hf 14.371034048413874 8.299961887100261 12.894636858643121
Hf 10.523721577858081 8.173306116760124 13.818443027014109
Hf 17.15226208940164 9.387269889174 12.772682409940321
Hf 7.651708535260112 8.87291243109007 13.839786047227518
Hf 10.679344284946994 12.49942053492798 8.08351103883721
Hf 10.39861521322475 11.40061942050514 11.155679521809006
Hf 12.891158417370017 11.362589909408102 9.76932953084885
Hf 17.674910839306474 10.873252223314935 10.382340983255832
Hf 13.923279357557192 13.369422332271437 7.94279834643671
Hf 9.038522634564965 9.432428301591047 16.119840152859297
Hf 8.215832203817195 11.649662069128565 9.586043220532042
Hf 15.28313968659156 10.502150067252211 14.584359566083553
Hf 7.10063556813854 10.921589747755576 12.119271776550814
Hf 15.017857085409103 10.65356913351425 11.411650530376189
Hf 9.776470678138615 10.97592837391531 13.875255214896216
Hf 16.04567342714041 13.254556844991525 10.037153292082769
Hf 11.61979045713377 14.091716369746912 10.74126833914337
Hf 7.359285296018558 11.66285774234377 14.959022367109307
Hf 11.809204195231493 9.813345421995255 15.888581570414873
Hf 11.635058905320939 15.166936844672627 8.008581616495489
Hf 12.686986985165364 10.848996351874787 13.362639622003883
Hf 17.0137647387011 12.435216819298493 12.765005947252197
Hf 13.905039145311711 13.389386381484297 12.447642244457084
Hf 8.307725131247237 13.395746136325336 12.357909580001948
Hf 9.100853342764948 14.652139609874235 9.590614776421427
Hf 13.95978312861074 15.622619431909776 9.889973615617919
Hf 11.328407269283213 13.859534960191258 13.965704259932748
Hf 9.674295577353794 15.858262892690112 12.406893248908686
Hf 15.507672629155847 13.31675592794314 14.97814978521077
Hf 9.95541862758003 12.144228618316033 16.61468749414968
Hf 8.791202153290897 14.585228070390615 15.125655166317838
Hf 12.991245631143954 12.45367897113261 16.085905003454684
Hf 15.74384477583148 15.262780422967166 12.773997443165257
Hf 11.223275026831287 16.835117638592614 10.137213879336102
Hf 12.77202070909485 16.212242916877248 12.54410679013941
Hf 13.60523235922522 15.372227362016723 15.241066167332848
Hf 10.979415819052916 16.607677622222678 14.855183142160064
Hf 11.208996151267646 14.672750284953812 16.800992933127908
