40
Energy = -343.02783193 eV
Hf 15.08250459083747 10.537633010240919 9.408136445017163
Hf 12.357187475536309 11.603937375197521 9.559318805124565
Hf 14.850803397587404 13.228866395156444 10.146694212243649
Hf 16.669554135127324 14.458047866306762 11.817312971520394
Hf 10.13396925499935 11.133123476545478 7.574439853843467
Hf 12.053526952184118 14.672140483289287 10.16775245989589
Hf 12.149212588447222 9.387777642484027 7.837115326820522
Hf 14.600152819202975 16.31244015944992 10.586685792263888
Hf 9.583541185698039 13.147846232381072 9.538631459076786
Hf 7.827296112508553 10.985619498036192 9.465798987614786
Hf 17.07997963648827 17.33576412546111 11.63785203190636
Hf 9.536177069608206 15.12951007170781 11.656034568469892
Hf 13.120770575453127 8.62849158967149 10.409441548455055
Hf 7.459186301443276 13.119129314450412 11.314314862432129
Hf 12.126826725990473 16.89802090286455 12.060864255189227
Hf 13.670274210428415 14.497368289531966 12.766287366209353
Hf 14.697627141295996 18.224753629106257 12.669060297436875
Hf 10.233264422371077 9.542719958593276 10.003740829250914
Hf 16.010395189971884 16.057966938752074 13.969309980160377
Hf 11.023435226192827 12.551921104516385 12.285068729940951
Hf 16.807304616828812 11.412289875056292 11.648330472460216
Hf 13.33281185745379 16.687371384022008 14.813253192685474
Hf 8.634214381976728 13.274917209112397 13.91341574611896
Hf 13.9805827454175 10.946635593855211 12.208335523476949
Hf 11.319428241816903 9.338816441516474 12.713542255809461
Hf 8.601378423578593 10.737454311985516 12.303390694141155
Hf 15.65791475422224 12.747925750229387 14.145664028983992
Hf 15.924601128395652 8.727372486230552 11.390345627767882
Hf 10.931844427364862 15.044584908755134 14.187332025028741
Hf 12.601671667936587 12.915744463595605 15.216952004390997
Hf 10.130105390430263 11.047230563429048 14.886398931455366
Hf 13.897005644020131 8.064157174067995 13.152823913821393
Hf 15.9792286251225 9.809963245584198 14.06355908039383
Hf 14.665563122708082 14.626930341291484 16.435937624440264
Hf 10.180937337152649 13.25556394587994 16.824197494435804
Hf 13.159979664372134 9.905311760490283 15.046201620141531
Hf 14.651802286850334 11.641068585550585 16.813256365366485
Hf 11.905387482186823 15.483592280581858 16.945660270079014
Hf 11.80409651266065 10.946609028045039 17.3141014705857
Hf 12.819966780567508 13.31351833405827 18.270881689714187
