45
Energy = -390.85577135 eV
Hf 17.444555140728337 12.204311131605024 9.677842192509049
Hf 16.282796182845843 13.34847912840964 12.133251814513075
Hf 16.52540799794297 10.396914367042339 11.843449022045725
Hf 16.182170767527833 11.403684674188103 14.74631819010101
Hf 16.237051145179024 9.712451771032532 8.983137434065029
Hf 15.729948122880678 14.285187782644844 14.769325477072439
Hf 15.68682434249002 12.207102707913567 7.360350524442231
Hf 15.818757942196989 14.608403894898405 9.557755889934997
Hf 15.0746187910961 8.886106308598228 13.78618653745181
Hf 14.601546568212399 15.73983413269238 12.534074553150758
Hf 14.016054741016854 11.474380510739948 12.94609440066668
Hf 14.627931088830021 11.86863996096798 9.874413976426196
Hf 14.100101287142586 8.904484150618009 10.96789607232666
Hf 13.145638892165689 10.095179007384223 15.501576003216094
Hf 14.099803522496114 12.751366045495931 16.49448953202078
Hf 13.487097370486465 15.920397047167477 15.495860242245566
Hf 13.415533692121388 9.605848656123868 8.219868280182286
Hf 12.555023750347795 16.448435165101802 9.629407291951939
Hf 12.384329315741985 7.855966099530739 13.380343676009144
Hf 13.772235883784049 14.401407651957172 7.832299191712423
Hf 12.683882040047283 11.993660049055208 7.090018759619464
Hf 12.803669182377918 13.837779059038509 13.969376508060252
Hf 12.077623853874 14.234518404873302 17.41469498344746
Hf 12.903240889369181 14.056725378723753 10.821851279073766
Hf 11.365599199501975 11.299046063098098 17.826751843486583
Hf 10.870249410535001 12.171359546613177 15.323442260655856
Hf 11.332608809198925 10.429300687873894 12.805890905544626
Hf 11.70759730099728 16.27460625923512 12.582289886012349
Hf 11.268641766696744 8.568338646175532 10.472541764580477
Hf 10.39995306898104 9.180059261985605 15.42354622514452
Hf 11.725986726777355 11.480685434995989 9.97895043251366
Hf 10.503841387203092 15.484951410489339 15.432324511179939
Hf 11.025927892307978 14.094801440040078 8.199427067314465
Hf 9.515673238233534 8.291370678696882 12.766754633797772
Hf 10.246749707144502 13.176909909426342 12.32360887615021
Hf 10.173533240145986 10.704304470122526 7.98008144370965
Hf 9.471640178821941 13.548828208235374 17.53167894255128
Hf 9.7109418280248 15.420445913954774 10.416840412552618
Hf 8.542760031370694 11.125655380976086 16.59711289732283
Hf 8.986189392914687 10.50539229835282 10.818020623010403
Hf 8.360951811163321 10.7626427560669 13.794202687622775
Hf 8.900580939354782 15.667150555942785 13.082072019470472
Hf 8.13090803863905 13.498454772609273 14.868336479596733
Hf 8.786886136456692 12.86595149199526 9.332962627294023
Hf 7.579253305131678 13.36416194654802 11.87885072216136
