45
Energy = -391.37481175 eV
Hf 8.773192966441968 9.660620890925243 15.26244975279376
Hf 11.565558365639122 10.311460497749033 15.777139051049483
Hf 7.360383359451196 11.653534729688557 13.593756410896919
Hf 9.580023982327889 12.500621762102739 15.464288503136283
Hf 12.351202698590038 13.246905036295942 16.509946591715313
Hf 8.135308026853554 8.825393236783677 12.57330706644765
Hf 10.470807039125427 15.65485430577896 15.285934949103387
Hf 8.200917020284889 14.428058032802822 13.928425070812112
Hf 7.10779049293493 13.996696695518178 11.192928190784485
Hf 13.817909656215804 8.766403577821052 14.753374754593581
Hf 10.818189695407455 7.934017904227865 14.015243874901417
Hf 7.135686818416333 11.01154350331424 10.85750711305161
Hf 10.28705992596781 10.626358251294851 13.041088584053407
Hf 13.53881033309453 11.79089926032732 13.987321581965226
Hf 9.645922460101154 15.849718080862814 11.945834661004247
Hf 11.51748282770436 13.901697096361266 13.552713473364976
Hf 13.323341378886024 15.631122978536327 15.270725629165533
Hf 10.479671066367244 7.649974380119493 11.293212103690184
Hf 12.360896720082236 16.589424136314378 12.698580214942588
Hf 9.356180361858295 12.899444823729167 11.571652065922686
Hf 14.261599012334816 10.97791693260949 16.62311350133786
Hf 15.601700283126995 8.601575141141883 12.479037158312108
Hf 15.255746514428278 13.448866712800806 15.598049058370556
Hf 13.287859225179448 7.058413208731338 11.662746961074404
Hf 12.82107995631322 9.568326483744563 12.017628077282517
Hf 9.080650621770477 9.374313942591575 9.569928269936431
Hf 14.606638019875852 14.788525350441889 12.855966584342132
Hf 11.285766256972549 11.314399485062197 10.062359232635027
Hf 14.324331542549002 16.208561172976975 10.371472089630132
Hf 14.390458477156852 12.084241170020565 11.041724282120173
Hf 8.577948492082623 12.199031223710676 8.650230107238274
Hf 9.292660803050955 14.910722254543927 9.255389983338674
Hf 16.196276276461447 10.645260841813512 14.425155324066827
Hf 12.133046893954532 14.246039107945403 10.834426552797547
Hf 12.03135389326514 8.574967489385566 9.107126602572903
Hf 16.790606662828424 13.10100163148847 13.157901550923345
Hf 14.94827734949678 9.251996970060166 9.780219910103126
Hf 11.878195264666282 16.179204922179874 8.932830996256374
Hf 13.407914752479355 11.138439195148425 8.041856826300634
Hf 10.621407044895996 10.524093299122104 7.402912820828241
Hf 16.40034832491966 14.029901222636076 10.47058621767377
Hf 11.252790885967933 13.399648480634728 7.830671031710605
Hf 16.98237787887689 10.89220718634462 11.375676469440108
Hf 16.10606604177707 11.779266292172345 8.732609349741699
Hf 14.134660584764658 14.038851175847244 8.500985320738707
