41
Energy = -354.02221215 eV
Hf 16.285614442841915 12.482718581523867 10.140819244998024
Hf 16.295010741672556 11.85738583331839 13.107524800950245
Hf 16.35774611886766 9.1534454381226 13.809250190752676
Hf 16.48607966265905 9.579849719292925 11.011914252360283
Hf 15.39827073868818 10.425446341103783 8.387612089281038
Hf 14.267073067431511 13.718646062032137 11.717684489246246
Hf 14.210130300001717 15.735130462189376 9.636408408967498
Hf 15.026726209585071 10.815594886444805 15.865806130636418
Hf 13.84034021615734 12.895722451449814 8.516329667845891
Hf 14.171489123565774 13.268801342549413 14.479867271395312
Hf 14.471888844662356 7.692947251179676 12.19998704189293
Hf 13.945963492061717 10.929580444376178 10.797684831741394
Hf 14.321125390946102 7.964092321621641 15.079418876421858
Hf 12.765733954642913 16.151980001705812 12.13226006896664
Hf 14.214979961773361 8.27510680739415 9.5296693221413
Hf 13.655999786430408 10.392335384698749 13.579589517388138
Hf 12.327691203319429 15.259011564265085 7.486603623572483
Hf 10.679656684793027 12.737318149157229 7.69224696389388
Hf 11.585972093549438 17.031278084691326 9.634499480416338
Hf 11.780179161660646 14.299708298256348 10.12717245723583
Hf 12.345638947190148 9.361440397762925 16.153475317614802
Hf 10.925931236794662 10.641684275712233 13.355775196084865
Hf 12.383995182622613 10.225668024706856 8.447734447452422
Hf 12.138760301897 12.022536689473842 15.861381036537685
Hf 9.658972312134505 15.393238827743694 8.405480413929144
Hf 11.197034444249633 11.744876366698206 10.641449073751307
Hf 11.525962385161446 13.631587998729298 13.319997652058822
Hf 11.713364822021683 7.824901578310895 13.739962217691968
Hf 11.684337311000514 8.799219544184064 10.940866750988036
Hf 9.656727033450581 15.46731697643879 11.491728438693372
Hf 8.449393230447443 13.081159971546954 9.41805490688733
Hf 8.993072926916694 12.641833837886491 12.33743134776373
Hf 8.84622738537621 8.998960415934766 12.134103814449217
Hf 9.603511056745678 9.308162570197444 15.279567348334036
Hf 9.180940472431065 10.29224267371878 9.528436159047349
Hf 8.67310947974963 14.867944259190832 14.060378258979762
Hf 9.026960774511172 12.27274113368082 15.47097685332348
Hf 6.966616156849762 14.41364450250189 11.65588582644319
Hf 6.84865074490533 11.226396143056784 11.342432843201598
Hf 7.444893854254346 10.384455149447723 14.043823004268688
Hf 6.623076808183756 12.896536027832736 13.976762082934474
