46
Energy = -399.4776867 eV
Hf 8.421902113001597 10.699301222129534 15.028422947335697
Hf 10.713511380738622 10.069639762723629 16.67173348603457
Hf 10.035556082626657 12.936258664524212 15.399603047907416
Hf 7.776479930195231 12.683374221000294 12.940143143571966
Hf 8.320173878460311 10.432357577761614 10.129331337492985
Hf 7.626279314622513 9.535881771348746 12.706575475371674
Hf 9.894189799770286 8.3861259019603 14.312320893431524
Hf 8.662781651726041 15.300592070564196 14.388264829594771
Hf 8.273793300611585 13.32135233868449 10.116973762059017
Hf 12.338702605791942 12.623576401529478 17.104351123633595
Hf 13.593510098066464 10.086991045687897 16.989879916353946
Hf 11.441855725510834 15.449517786787618 15.007185937548675
Hf 10.122410814435499 10.874931221589978 12.461033755161685
Hf 8.031928719921172 15.467564743972659 11.707989353782635
Hf 10.520977208377774 13.988559420408198 12.471332933221477
Hf 12.31688692575931 10.988683358490585 14.521180782031495
Hf 9.797869607202307 8.18885901569546 11.185246165866953
Hf 12.440713494988197 8.383634766786708 12.630533756496117
Hf 10.59818820980043 9.22513610549652 8.32475992663579
Hf 12.6669255519084 8.1884297234022 15.377752747755267
Hf 13.87918667887513 14.998224715833226 16.70553737059244
Hf 10.295449996490888 16.891224747409733 12.613922835050767
Hf 10.513498690522676 12.221927600053178 9.226603580588352
Hf 12.226193724571477 10.037276242873453 10.3076921470687
Hf 13.140694778220304 13.710678915835096 10.048057520517368
Hf 15.110138570601366 12.35541225492511 16.231066716070934
Hf 12.190628499181711 7.219893686179148 9.897210096044462
Hf 10.406397380807357 15.415253172027656 9.835751527414027
Hf 13.635156536368138 13.773870035959451 13.996367699812678
Hf 16.171921111611333 14.819412469685433 15.235108494052596
Hf 14.985118637104017 9.812646201199227 14.114391623316907
Hf 14.160415081734095 11.477216366238528 11.904729736387397
Hf 12.778008755473522 11.554613187657932 7.720287934293653
Hf 14.106474357689853 16.605437419764304 14.383223070218655
Hf 12.924319675655656 16.055712501508225 11.766923057548006
Hf 14.752548598605593 8.447843911487038 10.714559498950239
Hf 16.51677637203134 12.459619659632304 13.522021693823765
Hf 13.607541975774472 8.773603626701545 8.076362465898205
Hf 11.768788234567904 14.182701219803652 7.392760245031909
Hf 15.3127730165901 10.875042908137774 9.05633397921645
Hf 15.770351080425678 15.142100365039559 12.454117754378077
Hf 12.96725989979802 16.279123507356978 8.653809779204233
Hf 16.724165098750177 10.409397265937304 11.566506337953166
Hf 16.285770126267497 13.171452639479577 10.476810748764292
Hf 15.314682153963705 15.882048221076012 9.772661890898961
Hf 14.74306725607579 13.904960178723426 7.776714899549875
