44
Energy = -381.77532575 eV
Hf 15.752481773906117 14.304025735157522 7.42451135401584
Hf 14.1346901536445 11.669056698663189 7.43747872849572
Hf 13.033138323610464 14.444083069958792 7.019767481548086
Hf 16.76834146659959 12.213658265317909 8.848237596937176
Hf 16.664721533880634 14.767131185148664 10.168429819651722
Hf 14.133023662870942 16.30792695996095 8.97844690135428
Hf 15.251963808653326 10.34781462523709 10.138285991204304
Hf 11.375675569852204 12.577381635689528 8.269924832836285
Hf 12.536522734863274 10.782727670832669 10.046156408169036
Hf 14.044775728487377 13.400808438170273 9.555303720737912
Hf 11.2156361087459 15.389242165328632 9.096679613444287
Hf 17.320682013998326 12.039836190896064 11.629992061847377
Hf 12.366535646937635 8.411172592780977 11.822785513150716
Hf 10.271273456150189 12.888309221845569 11.003794807899238
Hf 14.8571694340378 16.268325577911863 11.979553190103346
Hf 12.284428349000946 17.367403097992796 10.985183765478386
Hf 12.057673346844377 11.101458969376608 12.967864713428813
Hf 14.867347449717032 9.785136652104432 12.891888448536927
Hf 9.988407236029436 9.978688590561632 11.16472185409332
Hf 14.820518479214389 12.691679926760832 12.400791183590517
Hf 12.527738407316578 14.548361987812166 11.661057869483498
Hf 16.852311179198985 14.800712597156698 13.472936227062553
Hf 10.186805304519881 8.902147789773506 13.740635958242152
Hf 12.824962259945515 8.711164008956752 14.672178604472732
Hf 10.091067461715443 15.7511498014725 12.009065483866282
Hf 16.55766277844246 12.478698341065495 14.89133038605334
Hf 9.128370488483982 11.572345853163956 13.481088189350471
Hf 15.252388197090221 17.074600055800534 14.71596613528904
Hf 14.11300153464399 11.166630991104721 15.25099455125264
Hf 11.097621887337851 13.760874607989377 14.070645834218366
Hf 14.1745876286635 14.374433357790982 14.628977510215062
Hf 12.348864502954715 16.630876482055154 13.79413763792051
Hf 10.822235081240411 10.789762296377832 15.84317032427056
Hf 16.23586127876683 14.979186050950613 16.50591740061189
Hf 13.036867274017938 10.471962036835059 17.816880458408193
Hf 12.473199181093628 13.275436348540875 16.851121077438492
Hf 15.315894168146002 12.440554579001311 17.729435425862473
Hf 13.19866149918264 16.487424084640885 16.70275868076687
Hf 9.448094349945684 13.3647085760984 16.53609028975731
Hf 10.515001186694864 15.853951520948165 15.99072096528769
Hf 10.626601464066916 11.872972442535684 18.605997146966793
Hf 14.27468593084266 14.966917437441099 18.72323260500564
Hf 13.105891269815173 12.691563030077369 19.623567780667326
Hf 11.194084785268997 14.843553610274105 18.713478491293852
