45
Energy = -389.88043974 eV
Hf 15.591271293169862 16.463846998851384 13.93324130866178
Hf 17.092669131614073 11.639248030885323 14.463584883129666
Hf 16.893467893329323 14.190273000040106 12.790948073564598
Hf 15.734144188109935 14.018079734907955 15.542996540900132
Hf 13.058094051724153 17.40958512026505 13.137821843555502
Hf 14.802817940275451 15.723354954142495 11.205444665400002
Hf 14.74520520843251 12.407374033136096 12.952204521681555
Hf 15.285016368606968 12.749392715953102 10.156168186722937
Hf 13.502014360535316 16.315105946926494 16.07795883171805
Hf 15.599007621293321 9.3524263394889 14.979791948755187
Hf 15.650814825803694 11.364626005050566 16.995495157485554
Hf 12.025409877405332 16.495167071315695 10.556447966718098
Hf 13.40067099944152 11.58697572545441 15.230486243916191
Hf 15.67608234446977 9.8519350267632 12.0413592914363
Hf 13.274700623759383 14.743749686645085 13.675697612057679
Hf 13.5079369138105 13.666473560873726 17.41204247076417
Hf 10.897508634843163 16.677265772452635 14.989583876499722
Hf 13.438999494599397 14.955889117867873 8.637952590138388
Hf 13.911187183086588 12.36463260116473 7.680849459976312
Hf 11.011893286710617 15.228039496430407 17.51603610859997
Hf 13.413739373416727 9.270921169224275 16.751597067906893
Hf 14.457177366564665 9.715190560649528 8.747905889647903
Hf 12.469862681824296 13.688467844826759 11.015438503607129
Hf 13.186546964604146 10.765975244676593 11.129038525553213
Hf 13.112116353222266 9.062858029409384 13.599913137738817
Hf 13.459292014983303 8.004405769104808 10.89518585803854
Hf 11.268478084730482 13.654698837976229 15.280512422720264
Hf 11.490521841257435 11.712187689011559 17.52088700358575
Hf 12.702755849177962 10.16649813994085 6.5509668722798144
Hf 8.776599426694997 14.9050334917201 15.511116689779193
Hf 11.108079770868732 11.715618167693524 13.073952231942643
Hf 10.871734848303376 9.821049493881379 15.375753226940596
Hf 10.266445361915803 15.034499417003088 12.624890161577369
Hf 11.232171147153139 12.68201970880791 6.417470814699878
Hf 11.34455879294199 11.32319261388435 8.928467219254149
Hf 10.57481678964267 14.306510485484463 8.939286294330373
Hf 10.740920783701728 9.05103854746337 11.568955340583356
Hf 11.616153385836652 8.414062961017887 8.667218917262504
Hf 8.21441369995345 13.125279264040834 13.397754860845627
Hf 8.9232059628334 11.866942454390273 15.767242507935448
Hf 9.286023912927208 12.222122739537827 10.931894108984638
Hf 8.586234428538878 10.38473602256086 13.22885610068964
Hf 9.938224119998535 10.016426916329978 6.740173777574248
Hf 8.772800532856177 12.243171640595683 8.011303291449607
Hf 8.934635792526718 9.687462393813442 9.358435640528993
