47
Energy = -409.15170929 eV
Hf 16.51629487886309 9.384231019349684 11.653578125500658
Hf 11.929676813086145 7.84817820892374 14.181876392471631
Hf 13.77935123255372 8.194352354282744 11.685038195826024
Hf 15.032883936454478 9.465003658852822 14.076722848168952
Hf 16.727450925530594 11.956029833871668 10.03176586448405
Hf 15.06861438776339 9.717229094785692 9.065997516566107
Hf 16.598831691556835 11.77839604825926 13.58702083518439
Hf 9.234582467527085 7.069237950905766 14.478970566955809
Hf 12.49089140460234 10.399382594778015 15.105969838019284
Hf 14.829612807455382 11.862130998608212 16.252687939420483
Hf 10.181810196788248 9.104290722898243 16.38180630243269
Hf 10.382634920220049 7.645442825789114 11.762873663103322
Hf 14.38055706271956 11.096247979541928 11.629535510221086
Hf 11.742213298613581 10.321750566075902 12.248371242088828
Hf 12.139835734804016 9.448752378780842 9.594778076415622
Hf 13.839973326473368 12.86395740963041 13.840459723359944
Hf 7.451958091214832 9.17739945918462 15.332336823517126
Hf 15.737173545765032 11.958501410086956 7.319171353017983
Hf 15.698526901871945 14.076756028687473 11.85841802009761
Hf 12.922783067864021 10.955381795858306 7.127641285301122
Hf 7.46516228226281 8.186739427362383 12.548478427717972
Hf 15.897301194860148 14.28167102703218 14.981166260637472
Hf 11.748249219576705 12.153917613838889 16.99147612375183
Hf 13.194184349137457 14.571419281805673 16.16301832978609
Hf 13.781171971923948 13.729441534772045 6.587380705857018
Hf 8.804626682663493 11.894936940507893 15.630969634074244
Hf 10.044835884606703 10.512768359675649 7.851756921234258
Hf 15.708169790468757 14.666930561828 8.573825562579932
Hf 10.979516157433862 13.044793864894917 14.078888815877047
Hf 13.87548113427143 12.732441332732765 9.334867932790832
Hf 14.00385151677168 15.942833816508847 13.442184574947458
Hf 9.518776794828748 9.852815983698722 13.613932792893173
Hf 6.926327028870149 10.952009951923431 13.099223284931536
Hf 10.984682770685094 13.271492854034484 7.29678526785719
Hf 11.031557415932996 12.224780335086987 10.042175825538493
Hf 8.909728347587752 10.161452453414435 10.660968329795729
Hf 12.3995465522321 14.40485650719219 11.54075598682679
Hf 10.251344154007676 14.39540982939735 16.555191920815247
Hf 14.556078764632723 16.400641592263806 10.644708348410141
Hf 12.78832553198031 15.612648203072558 8.573789581186663
Hf 8.857380586477342 12.77339660506817 11.998842521931545
Hf 8.517952249226695 12.653696074592412 8.91965053234634
Hf 8.532983891175315 14.578051580903958 14.399434276885241
Hf 10.091768293315939 15.116824377882663 9.408965360861544
Hf 11.833661056120594 17.063558790121082 11.181612190406087
Hf 11.14796524619906 16.059667976994263 14.240844278364788
Hf 9.465903180303279 15.60416306076472 12.03237131871248
