49
Energy = -427.11486592 eV
Hf 7.16278092514958 12.05150825311338 13.163840892335603
Hf 8.433436593435362 12.246575491287942 15.662607872753123
Hf 7.770897928709534 9.578286836881079 14.686328997803303
Hf 7.6673370940509855 9.784613519420567 11.706733587485163
Hf 9.13571625488937 14.330147195289845 8.52431381919808
Hf 9.051254967006914 14.228403715248785 13.521327841198895
Hf 10.167140689811978 10.208921424461922 16.841490585735972
Hf 9.392542381663649 7.784995359925663 12.741284350405062
Hf 8.975281603459878 12.369639351084494 10.852246711315514
Hf 8.21044176671399 15.258411422708491 11.031146690753515
Hf 10.208245675744795 8.054337154111211 15.223877858158458
Hf 9.82567444233135 10.965787769859547 13.343263894405364
Hf 10.946729840867496 13.123903706984866 16.352532831837532
Hf 10.033977305251724 16.873323549669347 9.58292604597426
Hf 11.573075971704107 12.382636526697521 8.557070305387304
Hf 11.743025274091773 15.466154690562982 7.77027578473072
Hf 10.112498853978165 9.59589517506921 10.226703797384
Hf 11.224555493992668 16.53513981783788 12.448394654769839
Hf 12.283990221209324 6.7417670109117385 13.745280372545064
Hf 10.90195292339244 14.396344253494826 10.688600232228705
Hf 12.179417150557002 9.167653793508814 12.401256510421508
Hf 12.308061650175526 10.84891921598499 14.974366026800368
Hf 11.301671339136313 6.933815010518103 10.859486368396814
Hf 11.588091270691423 13.450995481655077 13.504399817749002
Hf 12.313852457726298 11.647961287567345 11.031864468247937
Hf 12.836962041022897 8.491035415690304 16.28527535814491
Hf 12.865492032526513 17.234727734082668 10.039288598434283
Hf 12.78475160783889 11.226337571723686 17.65838141773008
Hf 12.407928382557417 16.0205230359567 14.93730747772514
Hf 14.000509330804018 7.174829393649389 11.470092441072232
Hf 13.903806942115564 13.561477978098173 7.082900167350082
Hf 13.746776122051514 14.177617003176211 9.90253938119311
Hf 12.816803513515973 9.088608603033625 9.480471371067969
Hf 14.84063202087676 8.530780367720075 13.940263025919968
Hf 13.909635022378563 14.782386873270267 12.805922598264683
Hf 13.74493917872972 13.485275524974353 15.781009160954827
Hf 14.335076491818816 11.655770963111475 13.108381413154508
Hf 14.652983578511956 11.591145325189688 9.123987120758922
Hf 14.480795608758514 16.189882098114207 7.913348211206859
Hf 14.275877425978535 17.503366842052678 12.750832346240296
Hf 15.130100437012272 10.712233028634635 15.809045924630576
Hf 15.293658838101246 9.59301905726513 11.116296065245436
Hf 15.739794365343485 16.495533556106505 10.317681790531601
Hf 15.263211226135738 15.973273345557345 15.036543688955172
Hf 16.270438233981185 14.079352093121894 8.551255694947598
Hf 16.890126692357857 10.567784361907716 13.270541038607233
Hf 16.32875670635804 13.315887891996043 14.27517318169041
Hf 16.251007384844197 12.871741227870793 11.302752463479964
Hf 16.696427120186762 15.598226997788736 12.652111936550758
