40
Energy = -346.22596031 eV
Hf 10.382879601313823 11.143610071242936 16.149829719502414
Hf 14.232223233346733 8.58040506989552 12.787775911395247
Hf 13.180611907877346 11.238656129276846 9.179861120792822
Hf 15.311768717575386 13.465845761188282 13.339154136527748
Hf 11.661438816966257 11.388329367329503 6.770669087024662
Hf 10.016324269255675 11.894308258911888 12.16693219834088
Hf 16.00142847634056 11.560638503763247 8.625383742240214
Hf 14.85575259403012 10.761722511097103 14.563840352342611
Hf 11.714001517394095 7.248905903356158 13.30594135840188
Hf 8.234508491042702 10.662265738744495 14.076472232286545
Hf 12.174035722265776 8.83347975194745 7.962632727743886
Hf 8.599952112202875 13.383650063725801 10.05832058480643
Hf 9.348704137395302 13.484508215081975 14.814933040506448
Hf 7.663785208854391 10.76730048340945 11.076830871572023
Hf 9.874557981526678 8.418131915987669 15.069940584434224
Hf 14.337641312648048 10.264337980176824 6.750548849394863
Hf 9.023978903678596 15.319085692654722 12.383886675537708
Hf 9.387815020238127 8.707935664153888 12.143237918732655
Hf 15.827960442274929 10.849387583202487 11.440781890170998
Hf 13.900084540264698 15.460939413999334 15.243735168482916
Hf 11.357167733539109 17.11103440767004 11.815016424786007
Hf 10.04809492688275 15.907827508324324 9.709118123041172
Hf 10.190046003945362 10.664876868391103 9.453080299611877
Hf 13.056654087345052 11.202479706504578 16.94144803017505
Hf 11.899868237258948 13.928125517408203 16.868974696302057
Hf 12.509975260545755 12.96803337105111 14.429738414589433
Hf 13.977029670222516 13.153028169566092 7.247962513087713
Hf 12.879801625559383 15.982318944352881 9.589191304637687
Hf 14.817913656158803 8.894951835318798 9.359558062302682
Hf 11.702705643012596 14.230986654598777 11.557484825503444
Hf 14.601489120174945 13.708779878419548 10.261020900500393
Hf 14.790476626687992 13.138478144985216 16.26771198013789
Hf 11.718259661308624 10.090800199902072 13.63608261291235
Hf 13.91306605310018 15.886377463752025 12.375374884648156
Hf 11.39024284252656 13.583092296587788 8.661821571380363
Hf 7.357732349810928 13.029192282388554 12.673145581524492
Hf 12.12723166854865 8.71537795323665 10.828000231558478
Hf 13.344534614210612 11.583547509703575 11.98712191786133
Hf 11.22927632723569 15.75706627649252 14.363600894953487
Hf 12.850913384068445 8.609490367045805 15.613594369687767
