41
Energy = -354.79666003 eV
Hf 9.160473287491765 11.111090809150944 15.849499249120212
Hf 8.268339688731416 9.084145052785393 13.67528882717521
Hf 12.649759290026742 10.789342847620643 16.79228601411459
Hf 11.162531832131798 9.528171111937057 14.672288858780236
Hf 13.650007469119402 8.293385737660376 15.65163818887281
Hf 6.829491549228529 11.59497828476736 14.277704955178022
Hf 10.636473467680219 7.6095799426866035 12.67648330904745
Hf 15.460335265448286 10.364124752940693 16.49348598750311
Hf 11.52547930288954 12.808614280340938 14.877560496336251
Hf 6.9672273963315705 10.77699078268174 11.59992226401281
Hf 9.122541825025213 9.139617377837256 10.767959869157732
Hf 8.662721550979482 13.750356145659541 14.865626555375066
Hf 9.4516877508005 11.612521598813649 13.00822216325332
Hf 13.66898869286234 8.02590241204639 12.489969026334062
Hf 14.335424746337972 13.007474703712786 16.035105996381322
Hf 13.875191275240052 10.764035931473103 14.099848285711388
Hf 16.02035078087171 8.847944889449998 14.131030687075151
Hf 11.629602856187926 7.7295350880826605 10.145821274099102
Hf 11.884951383011693 10.201028122397966 11.630925011042262
Hf 7.380151027256388 13.539949843997553 12.237218413683948
Hf 9.02492389594817 12.17704598899097 10.05151985184808
Hf 10.244715726715626 14.419957852075106 12.498778889973607
Hf 16.59087184419491 11.76905087910552 14.198118332514916
Hf 11.325432436599515 10.635649626022815 8.90104955276243
Hf 15.698636346793027 10.127773521271017 11.669676187489365
Hf 13.858014236271565 9.035427771857806 9.58123562202388
Hf 13.010573865985057 13.040849262027834 12.306537779299614
Hf 9.138046377212873 14.917079406310549 9.837316569091966
Hf 12.626324038663629 15.497850544512193 13.846723020439788
Hf 15.254477665107613 14.391061477193317 13.766464651417182
Hf 14.126625625590435 11.729148731948454 9.768200786238072
Hf 10.162323099726274 13.265764118302732 7.388813582477885
Hf 11.95172963058401 13.864873547701407 9.468362180582533
Hf 16.06744025545284 13.027663193345141 11.517541598337711
Hf 11.471808603608286 16.490405090537756 10.903725264808042
Hf 13.047029996671737 12.120298844897441 7.200469560741986
Hf 14.263737536176942 15.39424621134896 11.216125468429343
Hf 10.687323515033315 16.177435434120724 8.026800785967028
Hf 14.848061540065553 14.153945448951768 8.465590136121417
Hf 12.62316025795391 14.780730709555472 6.66981089112463
Hf 13.37135117519718 16.536876321968204 8.744567292990116
