47
Energy = -406.36171267 eV
Hf 13.335295014873786 10.179184680933265 7.9849674290063035
Hf 12.654085826198855 12.822699324625688 6.8605303728379505
Hf 15.156436436055206 9.798956457286256 10.160072822181574
Hf 11.899361484202371 15.589940037504242 6.08852506919662
Hf 10.59743485422829 14.335993432998936 8.141784049853491
Hf 12.443568705223932 9.064375878437906 10.482854067801275
Hf 17.137301509528573 9.564553099381257 12.519982919186257
Hf 13.57472715352276 15.244677244523158 8.231471916606443
Hf 14.298519110576496 12.620382854638228 9.355741983449928
Hf 11.485413245311392 11.806883993517348 9.48669759142519
Hf 8.886061773320762 12.566543488194228 10.644593160914816
Hf 10.376876305522961 10.441980176623883 12.16571787458759
Hf 9.244359961815821 15.599243657097286 10.500082649288496
Hf 14.422409673350609 8.900268020230541 12.775192399237694
Hf 11.460760468209768 16.880869828464423 8.929008109423117
Hf 15.747495941747633 14.97380917353617 10.711643750131959
Hf 16.26641897581912 12.071846941439246 11.601115050418475
Hf 9.912880931416684 11.202362469736814 15.464993747946952
Hf 13.195494154355208 11.539275974245689 11.95154014371953
Hf 8.018785220293651 11.717044780024892 13.254072659723484
Hf 12.42184704218123 10.151004379856898 14.530932576172958
Hf 12.122497156408432 14.642973188739182 10.835881772401914
Hf 7.61652028107235 14.33636520806287 12.450913552445504
Hf 15.158262052481426 11.388021440606535 14.490265042938288
Hf 11.774665730744854 8.778532444293871 16.894857814089747
Hf 13.821690942171326 17.03854370070848 10.85263549750819
Hf 8.527126220865766 13.920444071673849 15.154561033406454
Hf 13.845265201419547 7.78199034306573 15.438723368884595
Hf 14.472437781129049 13.9645773419338 13.18800405015457
Hf 9.470977322929762 16.213038803852314 13.462508599568968
Hf 10.446974151715924 13.30238224598116 13.0531583726591
Hf 16.557816533152597 8.965794144532163 15.18224813217843
Hf 11.103176976732712 17.516848073467123 11.590469108077535
Hf 18.021788958130728 11.755512074825235 14.110245267353706
Hf 12.038170939773407 11.461486944947932 17.826578906192587
Hf 12.375741598845348 13.136954670078527 15.403265633253069
Hf 12.533750596628918 16.15790449304462 13.596836242308658
Hf 17.45090183344638 14.411798711762186 12.8666260280463
Hf 14.498605385959177 9.910951786082494 17.190295356152767
Hf 17.032401702179683 11.355181849149881 16.724492645198207
Hf 10.05137550878258 13.355677721240975 17.421635646642894
Hf 10.916936129581522 15.727616343501875 16.03059093149328
Hf 15.617584216573597 16.51024247018628 13.344538610530286
Hf 16.671800048393873 14.017142954202606 15.534562201416135
Hf 12.469733317308522 14.423662842147131 18.063254593618
Hf 14.082977458616648 15.55961621021025 15.95596279355664
Hf 14.757346960731683 12.980315659414323 17.41921030202552
