46
Energy = -400.84013372 eV
Hf 11.899614605357197 8.352032931421538 16.836612690476574
Hf 14.772546245349 8.767990708793015 16.598478665032328
Hf 12.856834406666348 10.546665914666802 18.17530566909925
Hf 13.08740244066839 7.675607222087895 14.269555646143216
Hf 10.341570560074214 8.945641739665138 14.590006245954694
Hf 10.433876358015773 10.939600979317023 16.587440455280902
Hf 15.122178254419445 11.65278978332422 17.117916824115404
Hf 13.074219211958566 10.567607455293441 15.251304035438851
Hf 15.904377024080123 7.851612188042881 13.324513879105387
Hf 16.223957944115938 10.608308244816095 14.655790181775572
Hf 12.546115203463584 13.062265846347954 16.74311480768007
Hf 13.655904989982208 7.216741126970749 11.432972141541965
Hf 11.525378621093745 9.154742138739723 12.05570621415751
Hf 8.887681529173637 10.254113819997906 11.72143517964833
Hf 8.06034846476336 12.132289393482017 13.922919095859745
Hf 10.986425641361148 11.745396391733419 13.761794628118889
Hf 14.363789296064173 9.958548853191095 12.27548711211143
Hf 9.569785491368442 13.977728648678115 15.156904585748515
Hf 14.778336039386188 13.270820380099108 14.788165297548723
Hf 17.309309314480025 10.064331600509073 12.031030293300475
Hf 15.880432262044271 8.432744367577905 10.363900104355386
Hf 10.267482394794362 9.127794580718485 9.452661205170836
Hf 7.305489349498736 12.520948634281911 11.297274561073884
Hf 7.607781077031789 14.993611408442446 12.81467879359413
Hf 12.268312477183985 14.69574197611726 14.163444471560236
Hf 13.238150002206675 9.522979768640353 9.47851677102782
Hf 15.635805350876275 11.368233046980297 9.91654375420411
Hf 9.96063469973732 13.819754021232887 12.174026634801164
Hf 8.752681682306482 11.581323749863051 8.935533390535772
Hf 13.52508118678527 12.70828976250103 12.015681590650509
Hf 16.399382472932086 12.743161401697302 12.408717105907032
Hf 11.352384007327219 10.881485501274716 7.576630488362757
Hf 11.318373173596969 11.695755931711199 10.333516548106225
Hf 9.94002578460637 16.394666087735555 13.883685671400103
Hf 12.12921223307418 15.110854430373346 10.504567634928986
Hf 14.568631035380117 15.371346736068743 12.513216381987052
Hf 8.383961610170383 14.545116294335001 9.685386451514868
Hf 9.490206641324466 16.943964709448753 11.126419170832051
Hf 12.22616650287126 17.336825995221364 12.440710082839736
Hf 13.453798357793504 12.663458203612512 8.19211760790968
Hf 15.006718896057746 14.320500897249744 9.928898638047407
Hf 10.741592399543318 13.65250990400461 7.797346077158509
Hf 10.17645259264044 16.30342564535952 8.406863145262914
Hf 11.842117331001443 17.965412962498267 9.669191129983027
Hf 12.987821730956679 15.782790158659608 7.901127423766884
Hf 14.348584983059492 17.07395473832045 10.236992281627249
