49
Energy = -424.69042981 eV
Hf 19.253195878190162 16.070110828012393 14.401469784380241
Hf 17.619053116472312 14.511704825744797 16.007821036680262
Hf 18.530829359810333 13.33690711982938 13.401662436371542
Hf 17.37412841956179 15.757507574218362 12.308640163043007
Hf 16.484790693764328 16.927397224767265 14.78309644947736
Hf 17.241666512491275 11.210588226310016 14.949370906778519
Hf 17.64678250158466 10.659102206438662 12.07764388754065
Hf 15.364291302179822 12.46760762716635 17.150332791975824
Hf 14.807301324226346 15.413941202274396 16.742189861072575
Hf 16.226021254496565 8.880687033166824 13.41992781113983
Hf 16.540043940148685 13.148031217041202 11.258317709965393
Hf 15.577851953950404 14.133337639047925 14.103022874525097
Hf 14.875015044813763 9.746097548474582 15.913053677396375
Hf 14.475229941132083 16.48536249441525 12.484750291154779
Hf 15.344605056218944 15.370101030872279 9.755593453838848
Hf 12.695465842304205 13.666968521159653 17.903160216175756
Hf 13.336093702270357 17.68272467850709 14.99175216889273
Hf 14.815420708326986 10.090520896902666 10.798245205875983
Hf 14.89602576531854 11.394354424866147 13.235813681690377
Hf 13.052208455188351 10.826690341115661 17.78594212469244
Hf 12.088009539927077 16.311751291437734 17.10893392972581
Hf 13.364220444487621 8.859015689636626 13.117637636943465
Hf 13.075564563293089 12.308250429220044 15.374637104040579
Hf 14.319476483002287 12.779719156599569 8.911667382271679
Hf 12.479699769423858 15.062833234643286 14.352822559274506
Hf 13.545238462633613 15.081277007091133 7.340449297032064
Hf 11.745447266414361 9.59381388360334 15.360395101825798
Hf 12.371628868534131 8.300374558958971 10.504698822963023
Hf 12.81902550454929 12.591495625511483 6.54238402338293
Hf 11.9425938466624 10.95304937022082 11.47102570619565
Hf 10.483390442338692 17.164061807998056 15.127882005181181
Hf 10.568144410904507 11.98304780543226 13.864116666336672
Hf 12.542442426642909 15.981811950346554 10.105660971959214
Hf 10.415020771585091 11.65413500303731 16.728275531092127
Hf 11.274905543941061 17.097095938733464 12.467111745521482
Hf 12.023233107933564 10.675122817240007 8.647562458230203
Hf 10.115775623966572 14.352118247838439 16.04960222568117
Hf 13.755892035210366 13.731343387973741 11.703627914501128
Hf 10.391649437682123 8.603167929658282 12.766580453272297
Hf 11.492206673545434 13.69928692470591 8.799316197194035
Hf 8.959317815191 15.419014661246559 13.424327943994104
Hf 9.839426549092734 9.328028322340208 10.022783077050525
Hf 8.806110531698433 9.93998892759113 14.866748903879648
Hf 8.387142824840762 10.771067125015062 12.115460642891879
Hf 10.83198343672985 13.882777758705037 11.705358661866917
Hf 7.914975449354518 12.701298978040818 14.476906396766317
Hf 9.341178070692145 12.056896528340852 9.62461591926442
Hf 7.831560593704498 13.512339861854041 11.666348455664405
Hf 9.41755737459518 15.694726066161577 10.432452049060087
