44
Energy = -382.19984392 eV
Hf 7.209583094257842 11.629977715871345 11.618110768625975
Hf 7.51647968411862 14.393717404419126 12.918540586477704
Hf 7.653092426449118 9.356940237169471 13.628356317801723
Hf 8.045715189567467 8.930697113290018 10.805465175708303
Hf 9.452542164657832 13.96167960012869 10.695718244219933
Hf 6.893020434013219 12.066198206981838 14.380705443630852
Hf 9.468154777330156 11.245787038912852 9.733837112628448
Hf 11.38083154877596 13.275076080284194 8.433778515199084
Hf 11.125487469825567 10.503135075357717 7.4987260118093975
Hf 9.576685863234099 7.217435441758437 12.409241098152219
Hf 9.988735921814603 8.199524657886704 14.93460560412211
Hf 8.713353457648854 13.96145097143895 15.518534358131738
Hf 10.369184858247792 9.908918052651792 12.489394185589546
Hf 10.424954677834368 15.275804307942247 13.259998251006587
Hf 13.26199608261184 8.842192586206126 8.113421254127646
Hf 9.604637724829804 12.485041161757222 13.247398229185254
Hf 11.664838319082968 15.922030263562787 10.371822409850308
Hf 9.134781612151047 10.940969469071263 15.817020342488627
Hf 10.85802247135344 8.46891837888609 9.9142333279548
Hf 12.341573428050102 10.85785951374096 10.090628866036976
Hf 12.099259861568878 13.443453073799516 11.551734697242814
Hf 13.741208753462283 11.740546865528753 7.440195719124246
Hf 11.44624102895374 12.96681523486067 15.572395378396301
Hf 12.46214028821151 8.199437241115326 13.390991386910438
Hf 13.843403236904322 8.3596925938243 10.818740434278428
Hf 14.129349654519558 14.472576270647384 8.600790106059915
Hf 13.266099554914666 11.182579593171813 13.134463384093058
Hf 14.750210508689241 12.299591644734893 10.503120832166427
Hf 11.717141621478122 15.921942632866664 15.734654612602771
Hf 11.89737848860888 10.151263036983703 15.453643620798836
Hf 14.3629739443091 15.697505831718596 11.15799296353093
Hf 13.668581802720448 14.343628898023402 14.153816713751711
Hf 16.41224204442402 12.59468641110333 8.185095091003102
Hf 15.791850966187353 9.854764870732657 9.189272117291244
Hf 13.645595328199962 14.210070860972262 17.107670029445675
Hf 12.989900907145127 17.047211005047625 13.287583548402813
Hf 14.638234892675406 11.884029268621955 15.545647478485398
Hf 15.794341544598854 9.992636499319943 12.179885128781535
Hf 16.022101252338505 12.863425253116313 13.05215922707887
Hf 16.70227117706017 14.434302339498329 10.356137977402696
Hf 14.448163265253315 16.640599378387197 15.81504182092283
Hf 17.515776252442127 11.707947806153046 10.699836836970992
Hf 15.926699869383302 16.072696743765718 13.417904771112081
Hf 16.147762749113472 14.337589798173624 15.688039750030459
