52
Energy = -451.93000617 eV
Hf 9.514000076375911 12.753835427558787 17.162126771109605
Hf 7.5021397772769856 12.33607822429872 12.78881505913723
Hf 8.562844448299927 13.887840922548849 10.779683525293517
Hf 7.668839011856711 11.52183045687953 15.428314198963553
Hf 8.113018736112874 10.83334351411557 10.352979375915195
Hf 8.599399235735257 14.290870638192281 14.6875113546046
Hf 11.345372722957228 14.47168898866868 15.63843078444477
Hf 10.41430007265264 17.191148452944947 14.79563542403635
Hf 10.471500576445596 12.890192008166458 8.88810697357808
Hf 9.049807010139412 16.287703340795165 12.390786861348602
Hf 10.297361607457036 18.869791964671062 12.54119500129972
Hf 12.321718071837427 12.020972237772583 16.961205864754312
Hf 8.256892448678968 9.655993002896533 13.20514428700225
Hf 10.396902697618792 11.867032878484316 14.595759513527346
Hf 10.422747986773455 11.317249020533279 11.636014374395945
Hf 10.003450510495096 9.87639925642987 16.47606653365978
Hf 11.071101214698201 10.151283738966061 8.978733658365913
Hf 11.035673960577546 14.045515162682358 12.66985886322732
Hf 13.420890180003537 16.392613913793706 15.083259941921877
Hf 12.566817141755049 18.99606433390676 14.15314724306929
Hf 10.902208699414135 15.570095702449757 10.143842525909362
Hf 12.942544348687852 11.12557702825388 13.370740281872273
Hf 13.76522807366638 14.683082843118736 17.572762920614203
Hf 12.17416794155248 16.760317265055985 12.474762858147159
Hf 9.80440365733347 8.518979815599671 11.130021454561433
Hf 11.05497768663961 8.624762494052431 13.757670439185446
Hf 12.864669398024537 9.467627975635317 15.834866190339111
Hf 14.20334223681608 13.431316284962968 14.893745317474048
Hf 13.327943231759024 11.959388120437222 7.380271971637824
Hf 14.244862671852404 14.446255936833444 11.7700568454675
Hf 15.114628183792679 12.109674878743773 17.7373403900729
Hf 12.676906411548687 14.556616883787445 8.204382622675253
Hf 12.63957838439467 8.976123793644494 11.152868295034908
Hf 13.933172549516307 16.53600030627966 9.854204306306123
Hf 13.162775708504618 12.012873535738295 10.141048501094518
Hf 14.342593605888192 8.530813546146916 13.535363901605079
Hf 16.047362605372392 15.766612754239654 16.052612248115665
Hf 15.55746670269364 11.562700526686825 12.247090644424128
Hf 13.838072326350876 9.484816063850177 8.594580466563452
Hf 16.514672438942934 14.455648652916775 18.551605491750074
Hf 15.044294141435008 17.11396835004577 12.830958716171349
Hf 15.371197273771294 14.146513947220372 8.828503017827055
Hf 15.494486885084635 10.754067677539894 15.16622242683379
Hf 17.117915123992294 13.129187684816578 16.055649008710628
Hf 16.68267925080315 14.501037124068493 13.42827224096696
Hf 16.016403466501536 11.25933597166605 8.95505809284818
Hf 17.16597210953645 9.2400839347231 13.292563071286247
Hf 16.58978679423635 15.94817124307857 10.81112952172578
Hf 15.599586624036345 8.886339481249417 10.768993553217287
Hf 17.50378418938763 13.258673865494035 10.750000002240705
Hf 18.188104043274187 11.937809976746278 13.33058730789519
Hf 17.97534093553432 10.420772758784166 10.933559013254342
