54
Energy = -472.66966454 eV
Hf 15.011800821551695 10.49283542160501 16.41675101541078
Hf 10.765554844010307 9.992879894435768 17.139402004741108
Hf 12.579619559302792 9.46464504192603 14.857775777231593
Hf 12.688414733210054 12.28692182279221 16.576446379686644
Hf 15.341530862404174 8.862117959634825 13.971387633655139
Hf 12.754317572557003 7.202336601381645 12.81818772856862
Hf 15.414156295740296 13.3938258795601 16.3100209053402
Hf 9.780445029781573 12.625423700629119 17.552304265590262
Hf 17.191566791867427 11.44315806885892 14.493577587557995
Hf 13.201029656021982 15.157938012407975 17.103726124025073
Hf 10.767019500618058 9.649328613076664 12.392144610269444
Hf 15.456596490655857 7.585614096622479 11.327017180888651
Hf 14.441716853048428 11.701740675955074 13.910939955863682
Hf 17.296506475356356 14.367397189456454 14.4742771212267
Hf 8.081095967019419 10.679798680593604 16.245527300575667
Hf 16.302792523416045 10.481651007437401 11.650077325979577
Hf 10.504479028358265 14.882757741524943 15.772134389180065
Hf 10.382087387664992 11.731362904003522 14.837062118103724
Hf 12.128776118586641 12.373653981643912 12.348459366275469
Hf 12.930160369512402 14.518236761514375 14.317034068443919
Hf 15.25758331222805 16.26491129053154 15.097666297441837
Hf 13.06652150563884 7.260043321142528 9.87700287816546
Hf 10.370527889113848 7.556139329990256 10.273042439279886
Hf 9.575598313440274 8.79920700961707 14.740669125535204
Hf 17.63996023554497 13.187146636283993 12.05689595316497
Hf 14.702105232050062 9.35578215605726 8.981305316173504
Hf 12.479709677263813 17.167822362881868 15.267988545548398
Hf 7.991057342894757 13.397418536412149 15.378826311209542
Hf 8.11502884343874 8.84505788870045 11.555381238851515
Hf 13.62011230898194 9.643091081401279 11.73297600899651
Hf 16.81905409351041 16.080867700646266 12.131456573697806
Hf 7.8904699027948455 11.225904211872647 13.22830630914082
Hf 10.776791991696465 16.52704595714152 13.049207076379597
Hf 12.481118066327552 14.85645604741839 10.837456701155999
Hf 11.82881120132431 10.335066379749742 9.517785221832794
Hf 13.798044393730757 17.19887878111044 12.682691725892123
Hf 11.585628987766604 8.476042131114818 7.585387205874345
Hf 14.181026647908576 12.196183447292817 10.005678098360345
Hf 9.634367001188265 13.936602152328957 12.970328848445984
Hf 9.59910079457257 11.932581639551861 10.801595757935036
Hf 16.34903545787363 14.31914454513364 9.768102672800483
Hf 14.929220550137757 14.226605569562539 12.395411808271923
Hf 8.829835732247098 9.510965504633454 8.76454389300408
Hf 6.854997337311465 11.014462581166306 10.307601913639287
Hf 11.800537957741192 17.633814820429556 10.644997935534999
Hf 13.188516835219168 11.250513106446862 7.182948825978406
Hf 7.314616566408038 13.5765994872481 11.290831244451367
Hf 14.554576464200172 16.717829466772695 9.848200352212567
Hf 11.46620812195429 13.281366280261969 8.378756642322182
Hf 9.663582336245414 15.11585396713372 10.18458887575118
Hf 10.366915841836088 11.063157158415562 6.990922238387856
Hf 14.084151096731363 14.427207951224691 8.083285567061704
Hf 8.313426053809145 12.706029765739357 8.472504129972636
Hf 11.914880124285036 16.14364119820568 8.341476146749377
