53
Energy = -460.9985178 eV
Hf 16.897272562622913 13.465439763378788 9.833525443230437
Hf 17.30604198671538 11.654347283107123 12.34672491753846
Hf 17.66389137859061 10.860853740174708 15.09156226437278
Hf 18.127793887007602 14.387798014381953 12.274901777323652
Hf 16.751173512587098 13.548921540377284 14.675803104348452
Hf 15.79657150023605 9.316541459495218 16.338164914791363
Hf 15.0359218249874 11.193697461844438 10.717101136781894
Hf 16.442741644249462 8.732700527570135 13.62000307833606
Hf 16.97823761879207 16.401345231879745 13.896457491293146
Hf 14.727310697037703 15.086164126527036 8.819108348109827
Hf 14.855505636453444 12.231697765786542 7.774563892439276
Hf 15.101329462859002 13.787550612596068 12.101356018993528
Hf 15.30902231382126 18.39940483182767 12.741961568870371
Hf 13.949202366810178 8.599777271910954 11.912263115344873
Hf 15.783804101853661 12.106825436232333 17.129350586271865
Hf 14.85404787004159 11.021787981156788 13.893493203825058
Hf 16.546053482280207 16.21883406491126 10.951919799802829
Hf 14.028122379720163 15.933636114999935 13.98494993283525
Hf 15.371593105171343 15.08431515608966 16.731203228896568
Hf 13.293804245176098 9.957260564628863 9.079616107562364
Hf 13.686305184575978 8.326996335408394 14.805134184881775
Hf 12.034688310564796 11.444158113608415 7.059574742875918
Hf 12.161925911379283 10.849900959930977 11.777262045933114
Hf 12.920741592543436 14.102967554621387 6.802897523289875
Hf 12.675202914201472 12.974806508071028 9.557472970316049
Hf 14.89875584012532 18.038186080120983 15.709421241472002
Hf 11.365255153371171 8.337465855012935 10.358475157938903
Hf 13.373293444399328 10.427744241583074 17.20212132084118
Hf 14.016383539292667 20.397979482660507 14.568286264919198
Hf 11.67384077048458 15.711183755978778 8.975912585482458
Hf 13.473005584485191 16.401127941302402 11.17230734687427
Hf 12.133423040249651 18.813050154141408 15.892361938588405
Hf 13.257554585635328 13.258701532445329 18.029996843806874
Hf 11.212967418741496 8.197159040517374 13.242529742935458
Hf 10.335688218993477 13.538307930329923 7.726583357501915
Hf 12.776389586695185 15.989407896326455 16.760790192050315
Hf 13.621322819545247 13.292783632971906 15.244334313220957
Hf 12.545810837804698 18.566982299603506 13.078032975129775
Hf 11.847719235626158 13.933222586600492 12.632868896173138
Hf 11.554147327165753 10.99771153818627 14.702332998091755
Hf 10.933167546502395 8.764748551514183 16.45092820618656
Hf 10.29963349961491 11.084609750359883 9.495179990663821
Hf 9.646897745813906 13.991370817689262 10.478184924751778
Hf 9.21550056438735 9.34833207397788 11.582798536683285
Hf 10.96102472064504 16.50582426166803 14.41492038783965
Hf 10.643998605045311 11.479263744201948 17.525568630317487
Hf 10.448253732607858 16.521904734748095 11.597702336001044
Hf 8.909889557003256 9.546017973069459 14.532860373842997
Hf 10.75819422001291 13.863872807186267 15.599365679462728
Hf 9.469852443102859 11.986899280401625 12.80642767614605
Hf 9.026946389186532 14.732799772110788 13.251722248587367
Hf 8.5745746654029 12.096948526479142 15.647252782571405
Hf 8.34165406264834 9.782054337033237 17.405779428344395
