5
Energy = -32.57365543 eV
Hf 8.082385823737035 12.023706857603825 10.65755514237126
Hf 10.712656322266007 11.44776965812265 10.238740915881305
Hf 11.271226922496593 8.833678057324084 10.353745054980275
Hf 13.255938570426245 10.490343326765755 10.330755283216032
Hf 8.86934352068122 9.590560562320753 10.765495765431485
