55
Energy = -480.91361303 eV
Hf 10.559086793710948 10.317551717779482 8.019114668852856
Hf 14.993400574335181 9.18215563890795 12.220601433714204
Hf 12.339349675829634 8.266893840631754 12.812002414459299
Hf 10.948778379820912 12.293571614213713 10.183509538447478
Hf 10.323512112387705 15.183534113390946 9.243477531296904
Hf 12.56660321004343 14.75429054570355 7.496959673721243
Hf 10.409465950926702 12.955990944893339 7.247532340098979
Hf 7.802862201087211 13.240823852181311 14.627255338565718
Hf 13.814820791223509 10.884993547041239 14.750448862008113
Hf 12.379945713216987 14.65037267638857 11.558692335417268
Hf 15.99608964335431 12.902707565539693 14.065940526929134
Hf 14.393407289250845 8.318016075203507 15.25457063595825
Hf 8.41190963296863 11.930793670662316 9.22780775015362
Hf 10.108412988881888 10.301713387989565 17.830922390215175
Hf 8.700347745645436 10.524479731231487 15.235060262856669
Hf 18.53392040836738 13.662946855535935 11.550856535909396
Hf 15.921872495094172 16.896422458759915 13.638661242179554
Hf 16.792413245820782 13.131885575074113 9.366173010632037
Hf 10.481429169383265 13.880667326690345 13.801093598571606
Hf 8.485318339609002 15.871446943081837 13.910422644304308
Hf 9.86779976622224 9.55171452602199 10.618841106367228
Hf 13.843380244210348 17.237537347281904 15.505697740753067
Hf 12.975426797640182 11.578025204965373 7.327526380918489
Hf 18.806670078092868 12.153052407697299 13.843630759911443
Hf 15.431383845171942 14.63106278814753 11.616380754788723
Hf 17.65325861368535 16.25282198526876 11.06764315950305
Hf 12.81420867069996 16.750718074986928 9.59084544742379
Hf 13.47896868862294 14.482517524270044 14.40190250456727
Hf 11.34872326788255 12.243412675224029 16.01953020282237
Hf 17.46095899786457 12.612558717863784 16.312484511495136
Hf 16.879519910877438 10.034717282749428 14.42148139379451
Hf 8.322440382183146 11.241406181142239 12.286999684849164
Hf 11.179718191096514 12.920982409385438 18.632478222936427
Hf 9.56894518463742 14.959348699822218 16.53135162392499
Hf 11.220300907660151 11.01524420570452 12.952211283391051
Hf 15.338925284649173 10.53873056839412 9.499915233603074
Hf 8.765982235005012 14.125032731824438 11.487939352050674
Hf 13.796617578368114 13.138987232967212 9.454333236327122
Hf 18.126265490049306 14.93198201018927 14.09307932236747
Hf 9.526861869489819 8.696656332227713 13.2955885969069
Hf 15.791344089607204 10.344590580082205 16.956338034482815
Hf 11.356393741689924 8.993020037561276 15.47552455822637
Hf 13.004976846750434 10.323094025553106 17.50467983460786
Hf 15.24126916839538 17.569132230497768 10.889427465060436
Hf 13.137807820086676 17.463463792969932 12.710720159321372
Hf 10.341591175270548 16.65159707834471 11.832516943327263
Hf 14.246279968782613 12.885410286218232 17.00469911677869
Hf 11.16317269294213 16.7349711271939 14.780580895245343
Hf 15.453817395432818 15.683417429201807 8.795224391947121
Hf 12.459083494954477 15.187144268520791 17.033492016979647
Hf 12.740028555489358 9.94067021608559 10.033142845243262
Hf 17.150994473919624 11.231990852207307 11.612709060333602
Hf 14.091322068605823 11.957825841301394 11.906781825519113
Hf 15.839423957184266 15.261038067491079 16.126201654238116
Hf 8.582339611860546 12.494014605773893 17.306145371735816
