51
Energy = -444.57428258 eV
Hf 10.266835883606584 11.484775415445034 17.11035045308164
Hf 9.017691534367913 13.971919089966148 15.888272066744365
Hf 13.243030223485775 11.672803556647317 16.762879012007524
Hf 8.501732027138976 16.504087970743278 13.492867530929564
Hf 8.688922514396216 11.189011175473643 14.65587111050639
Hf 11.478363877608352 14.140458424262809 17.590636563571902
Hf 7.756941737638063 15.314505168358748 10.890151205191769
Hf 16.043698604871373 10.784507364476845 16.422888948747246
Hf 8.251208124060017 13.581828031143347 13.14157923149195
Hf 13.143326184538083 16.540200869888565 17.39413096485963
Hf 10.742996980507469 16.500271148693688 15.787461188430997
Hf 11.413983491993864 9.655243788647013 14.866757079773526
Hf 13.881332063673065 8.826293038677662 16.42395250202833
Hf 11.37454542084981 12.648078306544637 14.876150357351511
Hf 14.51206685058715 14.04081812668067 17.64594801839018
Hf 10.934916364398 17.952139073638037 13.393696593944153
Hf 10.834496978110607 15.00881514088688 12.860477511278674
Hf 16.208024102492214 8.432970968583659 14.904360545439209
Hf 7.902952767771809 11.253473514517285 11.642286391549655
Hf 14.177141201096582 10.655556717902995 14.177629986075532
Hf 9.975287118864108 17.071856587428865 10.92576234732683
Hf 13.454303516185412 17.68985905102248 14.79300043113603
Hf 13.218610288709199 14.858055017005691 15.03116971586953
Hf 9.337288460765809 15.589527867017985 8.547972607371708
Hf 9.400667337262387 9.125738765880879 12.729647250016765
Hf 15.617084730604386 16.05208213512898 16.06450102682686
Hf 10.779876927000485 11.737304214407132 12.303252759020387
Hf 13.572535405151575 13.472996056195662 12.244930118726764
Hf 13.137863768501761 16.625659095772125 11.943987434340182
Hf 17.226495454447488 10.81086728080957 13.614598538441822
Hf 15.679380683558396 13.240733546705078 14.90882110329159
Hf 9.680410081438115 13.18613923576492 10.048661037237103
Hf 14.71963622022269 10.500868405789701 11.279813075657236
Hf 12.053773035843278 15.059104451240875 9.763120286082703
Hf 13.791694817002366 7.714172406590098 13.6162993308673
Hf 10.010139983589443 10.130428883956426 10.007732318951062
Hf 12.069575151595211 9.125917466873926 11.783189832744014
Hf 15.478416056961903 15.632388663300176 13.187304861459534
Hf 12.572101165186956 12.012984182454408 9.629834448374295
Hf 11.25494791368428 13.465601856372752 7.459772462308877
Hf 17.52883191756001 10.617226947648255 10.694843854245265
Hf 16.614879288120715 13.106488680791154 11.894367099928003
Hf 12.747571921965339 9.034664387988256 8.815517594982712
Hf 15.04589177489991 14.997799435004628 10.193973352379876
Hf 16.481417279390463 8.327087176638786 12.12482186138136
Hf 11.078901394585486 10.75035801743703 7.314837426581815
Hf 13.960227974685244 14.0688144041095 7.719827441658299
Hf 13.88447328675716 11.206718685274685 7.15162439320247
Hf 14.215193064906897 7.5040434830413405 10.691845345690998
Hf 15.834658770928765 12.348081911537365 9.115766896520899
Hf 15.69200756731016 9.306059762589015 8.873771113129687
