53
Energy = -463.76350361 eV
Hf 9.389037806550752 17.345576551060844 11.020140555399035
Hf 9.970340915473773 15.363794298877577 9.105171830686043
Hf 8.008677378484384 14.616290810417674 12.12051143554058
Hf 12.1360365705221 17.006400919049614 10.100448745140714
Hf 8.93519709962638 16.981528343951233 13.678919015208928
Hf 11.467145744414246 18.03188343478191 12.985589670063874
Hf 7.618289561014051 11.517523001531544 11.835199414778533
Hf 10.6812526328131 12.129565560278909 7.780861961051037
Hf 6.948306978009817 12.772157491927617 14.316874930565861
Hf 12.640320206302453 14.163146018451009 9.315114599767474
Hf 10.952095911388378 15.027354572851182 11.794133218009781
Hf 9.70138840004371 12.71962474370876 10.371625098643085
Hf 13.532079004569605 11.927900723782063 7.184151357537006
Hf 9.794318348335214 9.850022969620467 9.46640697971108
Hf 8.554966875189736 14.859897868304392 15.418885487358208
Hf 9.692099327949771 12.659624434348702 13.571800394087859
Hf 13.82377104379761 16.089362531166223 12.45244682272653
Hf 15.440286993898155 15.40297692082438 10.177291102571953
Hf 10.638875496783367 17.398482632378325 15.993733797552247
Hf 10.349843923552726 10.14995451585209 12.243338446435938
Hf 11.619248626555487 15.357104935553329 14.553245606541036
Hf 8.110914752545364 10.166851143329588 14.249751760853519
Hf 11.923517625460253 9.515221558865793 7.686441743381704
Hf 12.237875618574511 11.236202842927085 10.061241855909486
Hf 8.883582836813616 12.050606443911123 16.429618341830597
Hf 15.347581472427837 14.15059380078169 7.82425977740837
Hf 10.680402964281924 14.28640428408871 17.416643602884026
Hf 13.501287272794388 17.528552419446786 14.979998162704293
Hf 12.944984680616216 16.01086363190397 17.156736573919865
Hf 16.378436442304245 11.567045848025025 7.618851710455385
Hf 13.316593982086673 13.113986193234089 12.428101394121688
Hf 12.105532795184937 12.491105696856032 15.24264892886648
Hf 14.650816718014541 9.40788919340814 8.264307261650313
Hf 15.093096189360486 12.369760474131207 10.15975298297312
Hf 10.775020630670156 9.733029607063788 15.418671327702578
Hf 14.679273429165873 14.863843486043455 15.101264066463523
Hf 12.987062610121553 10.082046553800772 13.657601638916905
Hf 16.247526886070744 14.132857536213995 12.520644920043567
Hf 11.338893732860415 11.511880077477707 17.87826574928093
Hf 12.40446763519604 8.2305367633572 10.40943956757962
Hf 11.3698228084871 7.622302480565808 13.223787990363736
Hf 13.567533366874049 13.29193960442737 17.515648254094536
Hf 17.534126103343795 13.284554415667122 9.77243782435889
Hf 14.715881021684748 9.710793362694755 11.540195545890427
Hf 15.112030608820703 12.02256263553945 14.577244797738153
Hf 17.092351174767337 9.910632590220063 9.905579995721641
Hf 13.623103098470931 10.34924059005842 16.540295059716904
Hf 15.391064621226219 7.383737430962081 10.081102864498272
Hf 17.065807834512086 11.26284125834009 12.436457558533574
Hf 13.137471360289155 7.763426277129978 15.400873139414632
Hf 14.320909182299735 7.081410462650243 12.833925466880324
Hf 15.700956984417521 9.049383521741003 14.655697521440754
Hf 17.006050571287222 8.218639914265317 12.275116680075415
