54
Energy = -471.29668866 eV
Hf 18.5939373176779 16.48623015030349 11.659651685335634
Hf 17.403004317147644 15.602148800229973 9.232651315701657
Hf 13.002327140138734 17.937102124873526 10.640701999054299
Hf 15.211143243161889 17.555833773056428 16.15660556822713
Hf 10.836194052862318 15.952119269897317 10.548209429051871
Hf 15.787451477956068 17.297918426410483 11.021637562940692
Hf 14.193058269813724 18.27670060516018 13.42800242061239
Hf 16.610896394144923 16.57381159452109 13.832231850965318
Hf 19.15732469061975 13.894261876437168 10.682910600802604
Hf 18.774551914784112 14.337412778905502 13.559514335313676
Hf 14.491919175698863 15.042126488055253 9.359239022054096
Hf 12.205166117647478 17.768898148187567 15.702182858143345
Hf 16.437171953040384 14.422871270039753 11.681892682328742
Hf 8.7330424841474 15.558045823169554 12.643857130853709
Hf 10.926938911855657 13.594637423386157 12.560336560612882
Hf 9.044199178689473 13.608043836005915 10.299072464943231
Hf 16.817749204538117 12.778893481808394 9.270926496809713
Hf 11.33768338718163 17.150293330449216 13.04707986952947
Hf 11.842694419015244 13.757217187972167 9.178742612630264
Hf 13.957077533203169 15.43856682172781 14.811316999039438
Hf 13.492959358110946 15.551387462772146 11.994345323973302
Hf 9.337324077118197 17.319965703207323 15.006807790460732
Hf 15.416921996407089 12.853596293456084 14.087660444551698
Hf 17.964040308814187 11.765715535160808 12.146026480723965
Hf 9.857763035944359 16.31070577472944 17.658487889738048
Hf 14.015961524436436 11.941311586206586 8.722586607241162
Hf 13.70868417982746 12.749567569106976 11.43805848378
Hf 18.047091181961267 11.99473441294608 14.949744271150191
Hf 16.654394868005447 14.565280675121441 16.04792055400121
Hf 11.40017820553136 11.2280557801508 10.086497829715013
Hf 15.63209693334006 10.631938519995565 10.917327263680711
Hf 15.818212275410914 10.00572873851764 14.059686776939843
Hf 13.91872953596171 13.360086467924 17.068297379348635
Hf 13.075524080390746 16.17637886408244 17.688172769732006
Hf 11.12826030480452 14.779466454700277 15.664259467066152
Hf 12.946654499777711 9.741532165047154 12.575110519359374
Hf 8.138450035627994 14.870353872403824 15.485662994017286
Hf 8.458322091867009 10.767079712279468 10.530675158231436
Hf 13.56052687625808 8.936450542761548 9.772015739063056
Hf 7.925308526276901 12.72934321752912 12.7604471167795
Hf 12.53810601421387 12.058396656818202 14.69466671502197
Hf 16.125646875697058 11.626506633173047 16.68668034984426
Hf 11.549653819154777 14.171035677047746 18.680505007775775
Hf 10.049877184093205 10.61650230992348 12.802810057315476
Hf 10.768266778589656 8.572772953807496 10.681430252929728
Hf 9.566889255678563 12.220357956342077 15.07142804396858
Hf 15.289010722187458 8.03440758369093 11.98598164224212
Hf 13.569776785617947 7.719808956175353 14.469224346596194
Hf 9.12120621293375 13.461138132791998 17.647949975990365
Hf 11.492812697792516 11.616491672102947 17.42216972739983
Hf 12.833320470789792 6.870017805250256 11.714001723202415
Hf 10.7484081954676 7.73016169048784 13.345852855572073
Hf 13.80033131745999 10.069318894970408 16.43271971475788
Hf 11.212766140424732 9.443001648226277 15.442632457299764
