54
Energy = -471.04169372 eV
Hf 17.573663105868512 12.436586188439687 16.274792179967882
Hf 18.413505215126712 10.328032292812392 14.335218864440874
Hf 17.605342551962067 10.997663042752487 11.545612581133607
Hf 18.460494879816807 13.123479463994226 13.56447052048708
Hf 17.770233333958082 15.253540802896232 15.46251587669085
Hf 15.638494570769872 14.671816023719993 17.47663335169137
Hf 16.176999784443996 9.667008919876867 16.08675765264461
Hf 13.65229711180623 16.56704263486218 18.22356488782888
Hf 15.496114896897506 17.154457710251098 15.986962855798803
Hf 16.23111584245111 16.49600405547129 12.727896951294776
Hf 16.225885105537103 13.696059309834984 11.546980277986098
Hf 14.482725310335747 12.034042577268691 16.643586821461486
Hf 16.55375270575877 11.959630480780545 9.052130892529258
Hf 15.983644215601322 11.637312826197867 13.924765451918796
Hf 15.88591890074973 8.880678919622106 12.784611744413041
Hf 13.708777077869843 17.865886365399323 13.653970688768961
Hf 16.135018268653727 9.19663788080735 9.717223345982365
Hf 15.727840093606828 15.946565470733585 9.812109544404619
Hf 14.537838583786174 11.07644681094659 11.221657770129795
Hf 15.38879899030468 14.337844486651422 14.546762001664538
Hf 13.015128850109626 15.544772600206738 15.490714932204918
Hf 10.924600081717424 16.302012266136146 17.29697923298013
Hf 12.575887793396364 13.885873418461456 17.926547354114227
Hf 14.440255097980172 7.500834853459743 15.155931055973879
Hf 12.741729544464363 18.34452697391845 16.324298052018445
Hf 14.322373175601065 17.987275831663737 10.963023374414368
Hf 12.685162133653657 12.799893244149914 14.067387061054164
Hf 13.453632655784569 10.079029888142166 14.280139951012904
Hf 13.607314933721616 15.276511663573224 11.951405605528938
Hf 13.523155992276775 9.235949110104883 17.170898287805276
Hf 13.422387222211999 8.581739066473224 10.14308058901173
Hf 14.105429831077132 10.77862098496257 8.230107470095508
Hf 11.577482495582617 11.106210406966621 16.630304018453536
Hf 12.908386886506024 16.2006339554497 9.160170408876267
Hf 11.563646257849365 17.49927761526652 11.488766309070495
Hf 10.757191063713394 17.415340931043364 14.416125080510875
Hf 12.01969428374649 12.744657674700147 10.958325673285318
Hf 14.27916024805971 13.593345459484903 9.154514115624044
Hf 13.066520754465293 7.495036671537602 12.80640106933456
Hf 10.37992932723183 13.765260315206714 15.85485443621761
Hf 11.52670620180274 8.338567709017207 15.199230818077236
Hf 10.598364772114348 14.608164514474321 13.052137768527755
Hf 10.3456697790205 15.105206481802398 10.159187070570269
Hf 11.435414385600145 10.52307213766803 9.167351108251623
Hf 11.39711797917449 9.725084357404308 12.028995859218398
Hf 11.771630067346756 13.24211692239426 7.970928859280371
Hf 10.178342484125267 11.054585289447235 14.325467397877501
Hf 8.654342676314528 16.66708988424511 12.24674616489595
Hf 8.478215743313067 15.899082026172861 15.100453904662194
Hf 9.235416629243439 11.904194565389146 11.80469450790686
Hf 9.414631527207147 12.591451068061637 9.057672591456614
Hf 7.903935008071842 13.403641651519337 13.890864874069061
Hf 7.706123164702878 14.20151150399114 11.112117843250996
Hf 6.26302448365888 15.591070217897219 13.255780741006868
