50
Energy = -436.09027552 eV
Hf 17.611555760680336 10.7340068076771 14.106816252520217
Hf 18.09006080932476 13.60244451013107 13.496268272502009
Hf 16.4856508326434 12.454854027514486 16.130838016155202
Hf 17.766474979263858 11.417726640729988 11.471117470459864
Hf 15.515081186534996 9.61922376225575 12.281878659358435
Hf 15.060388862994605 10.071804186663508 15.213160177911607
Hf 13.74287493480423 11.456663157579829 17.493857204633596
Hf 15.549818400930619 12.568202995503741 12.985809585477051
Hf 12.753931325801794 8.833473673877075 16.532345278788796
Hf 14.26850242174562 14.770188075456462 17.462557542486167
Hf 12.884543906857653 8.487876685641968 13.526717502375332
Hf 16.378769005149387 15.130522748271035 15.41036683644028
Hf 15.18817378225258 11.583416706022826 10.022087870280092
Hf 16.939052658968563 13.957757896995275 10.71728729942706
Hf 12.812850097012989 8.795201965257387 10.586950525035016
Hf 13.820639762217219 13.5182371723717 15.26399596801533
Hf 12.22917661036289 11.100333299879726 14.886549539121225
Hf 10.6032805832074 10.696036587171836 17.137410575614098
Hf 11.697241007236636 13.356324819459685 17.47154672158161
Hf 13.08021511740291 11.330246144997261 12.022126594017367
Hf 15.934777760557711 15.702202256920188 12.728188001895335
Hf 10.404998202606459 8.6211385387632 15.003959208989272
Hf 14.090467555387228 13.105014407949161 7.807677676966266
Hf 13.996476773485032 16.69179029911632 14.749751847012348
Hf 11.599525137600008 15.679290614740887 15.918222421898173
Hf 10.049617118823148 13.152517441135847 15.037322778789333
Hf 10.584377446416523 10.322989085994676 12.667457888725524
Hf 8.52520013712007 10.659892486736608 14.852014505130251
Hf 14.05586149263634 14.452360694750164 10.496610758404866
Hf 10.017029792641384 7.913945318772254 11.205742977351969
Hf 11.454260976754426 17.344100572595558 13.458745247259001
Hf 11.03197461909945 7.861185545118954 8.557922609365948
Hf 12.972826073293138 10.261225923531075 7.973029930570432
Hf 12.434859709339298 14.644915931450987 13.073447997579233
Hf 13.566824364529323 17.06302292496702 11.765699390949209
Hf 10.097471179873677 13.082928814677345 11.883880591006271
Hf 11.923573530071865 12.728978105996028 9.588136725995364
Hf 7.8843874100446945 9.88615337286158 11.908547684533035
Hf 9.3719885467778 15.398262739037518 13.456868829705908
Hf 10.359161754499112 10.430386515994508 9.648270598895184
Hf 7.551647065533219 12.748433107252051 13.058943809389323
Hf 8.206651811887086 9.076754017390824 8.807965902427686
Hf 12.195885776383431 15.151266292571481 8.138918956507244
Hf 10.965713939634414 15.778388223155273 10.853756112088703
Hf 10.285140722503533 9.740298698830815 6.7500208286003485
Hf 11.34888627659369 12.527434717422796 6.793117250646532
Hf 7.663231919125058 12.126479065267585 10.118634403450514
Hf 9.434455204062278 14.171324141339124 8.599545618025001
Hf 7.996162364111001 14.871176249263979 10.997208845855068
Hf 8.587947337915518 11.73034673240277 7.474199502830361
