50
Energy = -436.44709139 eV
Hf 12.646580716853455 13.615054819410647 18.738467039454473
Hf 11.805671243417228 11.171251519472612 17.434521955758576
Hf 14.385936315742551 10.13464034063544 15.774570830906937
Hf 11.473251379751591 9.247977985784948 15.067814498231419
Hf 11.197907092865467 15.934408424981894 18.63208595358446
Hf 14.09966972154215 15.955532653806596 17.73854090279771
Hf 11.505786734850442 6.797523713316376 13.340901256772668
Hf 14.481814353164404 13.019750618037152 16.69522356968001
Hf 12.057915661703607 14.88410607708246 16.005552199016034
Hf 9.433244702976088 8.702127454360804 12.797325789684866
Hf 14.28767933237828 7.764638749152887 13.830903622194755
Hf 11.985484131849043 17.770031539571466 16.72847825009754
Hf 9.904868984163524 13.562105129749545 17.528564696385793
Hf 16.435046722583767 15.315380884861312 15.584701601736167
Hf 9.460736666376128 11.298254550928476 15.667549211153002
Hf 16.53967306307151 9.450414613978905 13.892098940179949
Hf 12.140318603602708 12.128464938138114 14.80546442465156
Hf 12.261354464037261 9.300413311720973 12.235271706917816
Hf 16.641019804615382 12.059183647214741 14.9564666019682
Hf 9.554062278604079 16.291146870980107 16.331978806066754
Hf 10.840098028240535 7.417659366929398 10.553197706446323
Hf 15.438204972514928 8.94453069123352 11.277561984464228
Hf 14.173766602678413 17.19617473940228 14.946503418816349
Hf 13.461041856368224 6.8570162878095555 11.231182443535626
Hf 14.46778844247711 14.306477902378061 14.034488497755317
Hf 17.235412103245682 11.527052885025732 11.999997850049464
Hf 16.15390443403149 16.40850348592073 12.715636077731933
Hf 9.54124931620757 14.11576238031697 14.36075428838792
Hf 14.469556890850262 11.307663194618705 12.980237697310557
Hf 10.154796608970617 10.200563279824944 10.272308438545245
Hf 15.280814784667378 11.55330430551597 9.699924098499382
Hf 17.53947633917343 14.087543374583452 13.137179649239542
Hf 11.300742239846473 17.09129411460584 14.036986947392126
Hf 13.005853490705105 9.289846950927089 9.399959266526517
Hf 10.123851087280187 11.483185417163334 12.866891722835115
Hf 10.00952235418006 16.21230407355496 11.535136617100445
Hf 11.802463991277275 14.25713877123204 12.70741503416356
Hf 12.38985448725463 11.904692617954405 10.664279626508083
Hf 13.369349268522608 16.77059414842522 12.026269699517284
Hf 17.35686990109626 14.062536323988086 10.226068651293323
Hf 14.900563277674246 14.018687286049557 11.304339073724886
Hf 9.513411201621297 13.453321497209501 10.802145832353967
Hf 11.907120292350573 17.393111863763405 9.489357086843833
Hf 10.624369515083908 12.891248125063472 8.18275993649617
Hf 13.221912929931602 12.279846896673948 7.766034063026772
Hf 12.426580602241222 14.565376027695775 9.826447942709343
Hf 15.226982044483005 14.119080865027701 8.24544248777068
Hf 14.690629800295563 16.4977694318712 9.505811392982132
Hf 9.905049925928198 15.548325284764179 8.745957048986888
Hf 12.524104383164518 15.278329846138048 7.268807752769462
