50
Energy = -436.35302814 eV
Hf 17.601193798611057 12.570152552549567 11.231334192211607
Hf 15.281326796496877 7.524959933997419 14.160905904830104
Hf 16.232686338507378 12.709543750905054 13.736603093185074
Hf 16.30349371364496 9.909362856410457 12.155788353734456
Hf 15.352623015929458 10.197655130920618 15.39739206040426
Hf 16.693256365381696 11.014905751762983 9.160935019964993
Hf 15.003280261571932 12.965908269021288 16.197598198943385
Hf 14.925577334375873 6.955192419442947 11.548967649934246
Hf 16.234688648838336 15.05290126862021 11.890251861883163
Hf 16.090736937030037 13.864186001162453 9.077958737527958
Hf 13.177711423588772 8.40229974645995 15.691596118414529
Hf 12.697989238983462 11.200991539041484 16.84035408877978
Hf 15.700372077642603 15.58721576461856 14.916263166462924
Hf 12.573939103120793 6.730460709099657 13.373870892160431
Hf 14.730631626843351 12.108049098654993 11.02772234486718
Hf 14.71119510628852 9.149159740864526 9.71189791572483
Hf 13.416674219140436 9.186515083396474 12.550686097995754
Hf 13.420440369812535 11.70712806258085 13.890905578593246
Hf 14.337914985946565 16.475405914174498 9.972509257396897
Hf 13.940466795689149 11.74297276124377 8.056122566806103
Hf 12.885924139283881 14.692176550548435 16.642039284845822
Hf 12.285335238229344 7.446128764488141 10.35442403220722
Hf 13.61236596592254 14.507873070969236 13.574278479160569
Hf 14.585725177128102 17.19900464808452 12.784327730455754
Hf 11.063292161491312 9.925418344884978 14.51586377464045
Hf 12.714655794886811 14.205955843909367 10.787920049269795
Hf 12.720406099594046 8.802587609855397 7.7020300284508085
Hf 9.581165403336684 11.02744617231388 16.873255435391453
Hf 13.56082513007182 14.607763190017632 7.909352222231409
Hf 12.034527633687311 10.573784417153087 9.99411911226628
Hf 10.217265430980246 9.0976959415457 11.78922945164612
Hf 10.996532562943266 12.808894416156715 15.218860557636287
Hf 12.71860222997247 16.946994732982933 14.937744969220658
Hf 10.662371223650563 13.398614686504791 17.980802746470502
Hf 11.535048320212416 16.172133861525154 9.093924988753946
Hf 11.078860501957926 13.279290091631754 8.518538679691947
Hf 10.084567636576597 8.648170747486903 8.925130164722663
Hf 8.627629140433008 11.32290960353009 14.153824537909498
Hf 10.779770101034947 12.146833179559486 12.235722178167613
Hf 11.783836319063242 16.969491573086273 11.899886176358004
Hf 10.480344962373929 15.178668562384159 13.720406101813305
Hf 9.747397134137683 14.505383730332081 10.759887936953174
Hf 10.214152854157104 16.01767202393521 16.63139827567279
Hf 10.881050650830696 10.81810822401243 7.313050959096805
Hf 8.2840969101218 13.589964449376312 16.10934623533147
Hf 10.075472342558358 17.931865488306602 14.300956839447602
Hf 9.224356200421543 11.26561093573084 9.846355943614771
Hf 7.9141768069991585 13.923673890742753 13.023243385958331
Hf 8.626044000782358 16.719748022584188 12.16194720560786
Hf 7.9325620698425094 16.163604727083584 14.837462578524978
