53
Energy = -463.11549506 eV
Hf 16.40196466186358 15.330784575129197 8.827795680457141
Hf 17.488872004070487 12.549341419560651 8.79548741739253
Hf 15.34865853010895 10.666282415766615 7.925617873641409
Hf 17.69141354828147 14.679999762619623 11.308105153773917
Hf 14.62980339840722 13.302076166049707 7.538284018466035
Hf 16.41124178209918 10.219791149858597 10.447780008119006
Hf 15.2033118408369 16.327268354396292 11.288074421454072
Hf 13.472964420199853 15.43515469516094 9.147387812236575
Hf 18.273849554473777 11.871486348107945 11.51694858175756
Hf 12.462546213300216 10.637801222581054 7.292424715691564
Hf 15.35365647764251 13.237100508421394 10.464060826772194
Hf 13.94191425482948 14.080511167353103 13.012939428490807
Hf 13.840127838390842 9.015013499228095 9.768488659301086
Hf 16.295919770197713 15.652463795749052 13.843484567084204
Hf 11.288570959548498 13.618248861452424 8.063685357265907
Hf 13.994125177742276 10.968370810848285 12.108337973245263
Hf 12.136181889186457 16.989746690894062 11.711950695920077
Hf 16.50118523577984 12.688418988361247 13.515480600783288
Hf 10.643237342249225 16.137302470180458 9.33951005543846
Hf 11.178625280553163 8.848294472449446 9.144478357097016
Hf 11.608002106045092 14.143797357472907 11.10497618489167
Hf 16.613395998711166 9.824849914322614 13.665061473743084
Hf 13.403491079544176 16.50419166373183 14.562430995255097
Hf 9.498732759537752 11.078956828410126 8.422347024677975
Hf 12.973817783188093 11.809492229355778 9.618511059698587
Hf 15.066421109378819 13.871083663088157 15.74838639596814
Hf 14.24786281371708 8.297209563656782 13.315414338367232
Hf 11.062769062324149 14.800564411446747 14.012870800618375
Hf 14.20062497905934 11.123184358349757 14.761429185875022
Hf 8.845726460393532 13.863266742612632 9.677156444518562
Hf 10.407058972618614 11.457934827920942 11.10685022207099
Hf 10.607169081717874 17.59045701396866 14.108800126470275
Hf 9.343673036781237 16.135703201335893 11.934303894513492
Hf 14.998665696437815 8.74111801323655 16.008646390180544
Hf 11.60066348981579 9.03159861447477 12.187244422944966
Hf 16.408611041778745 11.260884370439829 16.385067686495848
Hf 13.964523689322315 16.008226934901533 17.414418594101132
Hf 8.951433658431991 9.066540852038543 10.635592193482058
Hf 11.36840605888812 11.764400443526513 13.941643012417918
Hf 8.751163636665055 13.345731652136669 12.727433072604748
Hf 7.585294461037204 11.443579130273191 10.820281864870248
Hf 14.297780055021583 13.392572649683293 18.631670396238846
Hf 12.14626474727973 9.02448918633869 15.270322798889493
Hf 11.141015822528601 16.530165149514296 16.704623561559377
Hf 12.241743255107451 13.631946853185143 16.583111156587243
Hf 13.42235269732575 10.766567524038244 17.527060978660103
Hf 8.637292133029474 15.574457482260703 15.111493816383295
Hf 8.997659067243802 10.330204825597027 13.320499650398887
Hf 11.960477309128944 15.075545634468071 19.09222345274761
Hf 8.736543293495517 12.686311892123802 15.377068375054028
Hf 10.464168453381163 11.07934242211555 16.84182109059967
Hf 11.640229738381525 12.326882866816966 19.155006435263896
Hf 9.605438787043775 14.06176563913063 17.722124776860852
