53
Energy = -462.56985197 eV
Hf 16.544073970162078 13.4335544199325 16.538007795431376
Hf 16.401534096315633 15.805326546170155 14.4307692347585
Hf 14.963066003267532 15.977937233335659 17.07752578834288
Hf 13.584729520297577 13.136997747074199 17.721162258467945
Hf 17.00592811940566 12.996950100482435 13.539365447058007
Hf 17.37343500744995 14.324580261366217 11.143301626584432
Hf 16.391815445704502 10.252369452477547 13.608916789564312
Hf 15.267444340367158 18.430779389470104 15.282659324026074
Hf 14.420389068754357 10.870272967838709 15.931771669307258
Hf 14.560767376703028 14.799461149863655 12.21067022269993
Hf 18.072824064944847 11.249841828530828 11.255343800624582
Hf 12.89278075378504 18.11043571896938 16.908809328350607
Hf 14.45082980513183 13.655014183034504 14.880497257227706
Hf 11.873194446830343 15.359327544277 16.97333267929158
Hf 11.916280110541427 10.698596458313594 17.60839285752566
Hf 10.458944258700125 12.99914043120129 17.821239976371306
Hf 14.029926228317633 8.384844600608274 13.455805755042869
Hf 11.831831371441666 12.53437990801865 15.326379341709313
Hf 17.233493282887483 12.750130374137113 8.766104930743753
Hf 15.439802874351056 12.128873362029097 10.97199004470738
Hf 15.953865095248364 8.783970781842248 11.244468417480073
Hf 13.646431792234289 11.355710705207382 13.231080866434983
Hf 12.692573704031295 19.229965459081644 14.301385122956711
Hf 13.416918791023893 16.47868951019744 14.662763762389021
Hf 11.215525496510999 17.73008404351509 12.3227330839177
Hf 16.616016701331517 10.10620724807281 8.918611843151181
Hf 15.17552840263761 14.704105415068815 9.260053951814946
Hf 11.874047048169736 9.016305327878253 15.351582172292936
Hf 13.563125639763893 7.1604584575973735 10.808596767156287
Hf 14.317038501412997 17.804589827515997 12.2994251051915
Hf 14.573294933867052 11.893763669940228 7.936041988814234
Hf 10.523650163508934 17.313361563662262 15.200067191455789
Hf 12.329751414436446 12.964519882244186 10.848755056391362
Hf 10.772171237018709 10.305802004293257 12.893416046156506
Hf 11.547223916761212 14.958164130469026 13.190129432938672
Hf 13.97104716905656 8.960868135340057 8.537183151871366
Hf 9.527749535311939 11.041127122688998 15.690652058550945
Hf 9.46367377233926 14.307208724054682 15.385418690793443
Hf 11.304819019238485 7.370589957970552 12.71684633026522
Hf 13.18196191181212 9.972462105560227 10.931961630883764
Hf 12.551432449843094 15.900892265963472 10.337490238374524
Hf 12.621402998272378 13.970453753462904 8.0934616671975
Hf 9.681314055010734 13.16807290088718 12.51804808979066
Hf 9.142957926728547 8.50005987816374 14.381881426309246
Hf 11.098152776771876 8.350657639073559 9.805348591104003
Hf 11.71308665893391 11.136438124063778 8.431284293904287
Hf 8.737612168463018 15.980093792526045 13.136922337620467
Hf 7.938963635212317 10.813833856698855 12.964277677618153
Hf 9.647242042559773 15.772906812246084 10.65629653338163
Hf 8.856984181918087 8.437839919217552 11.596296659228765
Hf 9.939240575235154 13.475524416361294 9.087241552149154
Hf 9.337611525238666 11.024147885890166 10.344654931102527
Hf 7.6311920714863035 13.63925727886775 10.85858834539211
