51
Energy = -445.63533809 eV
Hf 9.687607028778167 15.964108962504604 15.920374973965709
Hf 11.920559921171 14.310600642271885 16.3097026854889
Hf 14.657458032370366 15.579121071331414 15.229892235462163
Hf 14.763511940994093 12.480278470518787 16.346590959024585
Hf 14.436090364198296 17.750092314856303 13.261897132337477
Hf 11.926642916485992 16.352126656684487 13.99794152078779
Hf 9.051787157242257 12.988334579310239 16.318763586797438
Hf 16.59301347413377 16.024391229586186 13.213133669875075
Hf 7.426787387643523 14.875836495545549 14.767841574525812
Hf 14.09015590175945 9.743557297386332 16.75576979385844
Hf 11.773931355763237 11.472417647958729 16.129413866694954
Hf 9.094024026222868 16.691024294818483 13.196389720109158
Hf 16.591636163168047 10.222481180596692 15.109118799223683
Hf 16.29218991816165 13.193509890790398 13.973155986133099
Hf 13.259907927905724 13.35933228408062 13.997386935777396
Hf 10.034853168376715 13.980412631072943 13.82499448667737
Hf 12.400858706760795 17.550330374956616 11.31198578214321
Hf 15.389001445146397 16.99277286039968 10.525543066468138
Hf 14.015603883066904 15.159642689556543 11.961347792514214
Hf 14.763851130768025 7.908373622445031 14.91476210991476
Hf 7.392913128079167 12.198842282064321 13.828824203263206
Hf 7.41795484978088 14.522761695180986 11.972533075230771
Hf 9.177974475938417 10.269114848368737 15.110413881511786
Hf 14.139165578689656 10.662470243712965 13.993883177929392
Hf 17.18421647507426 14.304077197116417 11.109344282332282
Hf 8.110625978129832 14.138943233603822 9.33008218282603
Hf 14.966180281357532 12.222426183796427 11.408175801785758
Hf 10.500770111330691 15.16704410038405 11.019619366846246
Hf 11.160930411195304 11.250658016793594 13.213257834771811
Hf 15.243000622394964 14.431021970307816 9.010350670453294
Hf 12.776266104635777 15.652717764735428 9.27182591299179
Hf 17.434194105301184 11.05817321392267 12.01159512852088
Hf 9.341899731404462 12.086639819169656 11.051271331914638
Hf 11.879589715126722 8.83859245246177 14.845387375588697
Hf 12.355437696843815 12.909288369382633 10.797022122321073
Hf 13.199424229065732 9.658070909585371 11.110787136108385
Hf 7.754718017779847 9.749320568887521 12.599219821684311
Hf 10.400671449719281 8.68775063146826 12.081947340274361
Hf 16.83877967354826 12.203118592292654 9.228333115744524
Hf 15.948647535953151 8.515187617052357 12.468957817275541
Hf 6.611926400150843 11.773972926636066 10.713009822236556
Hf 10.765319186578912 13.265104896169465 8.54738860971192
Hf 13.914729262999396 11.675621898566849 8.626385318189644
Hf 8.449008657159968 11.573804837941662 8.32231492262739
Hf 13.010191708532231 7.140218725611741 12.669212050620622
Hf 11.063800416221351 10.298631208576596 9.160484783890478
Hf 11.75263948553481 7.421475395247019 9.947149780504088
Hf 16.00644029838289 9.592425551844865 9.736249709536354
Hf 8.366351003401398 9.397873435438425 9.979653206154902
Hf 13.55255175900107 8.83396911473789 8.275784126541778
Hf 14.575946117911286 7.145640617184154 10.30698367944226
