54
Energy = -472.36477227 eV
Hf 16.071172631568135 13.690247660904118 15.255731687650009
Hf 17.363392402910854 14.200765041712897 10.260052123328359
Hf 14.515324990122807 16.24644403537748 14.786631173400984
Hf 16.87801185007082 12.528183560130163 12.488729688002445
Hf 14.078700595507607 14.325512195419499 17.377617991496766
Hf 16.41357231287255 15.414340257320886 12.659240281099112
Hf 15.799019970098813 11.937766546887433 17.510820083880866
Hf 16.00086223689429 16.74559184714874 9.564283750177575
Hf 14.855604907304805 17.669659844832356 12.094680153722024
Hf 17.22384910374775 11.382944736480084 9.52988530759398
Hf 16.029125124340688 10.44734193011759 14.89678521074237
Hf 11.895498502309797 15.034176753777132 15.36354944665009
Hf 15.834290991775678 13.848467620590368 8.033612944816623
Hf 13.545697425701702 11.953903171123557 15.79587626269434
Hf 14.17643089885321 11.064969830304083 12.901231296349186
Hf 16.771793847254695 9.798029399444461 11.996842358048955
Hf 11.006330564934032 13.0702414247442 17.235028886014742
Hf 13.196847030702337 11.731819131996817 18.64284621511615
Hf 14.64180038220736 12.031220262480188 10.242427003956694
Hf 13.098477474931169 17.550766037357864 9.995519346918279
Hf 13.763803475956095 13.862767759540292 13.32312076365839
Hf 14.18747202917932 14.88072432302532 10.447703109121898
Hf 13.70944625798365 15.972528637727873 7.7860167971634775
Hf 14.252619205650387 9.518351354424375 17.15983976155728
Hf 14.912394673113631 10.979293128747344 7.6314843151321226
Hf 12.307615015816953 16.29267780606509 12.541240251771832
Hf 15.149962262904534 9.081181388464342 9.883757709961543
Hf 9.819152149343578 16.90088993489543 14.143802314190097
Hf 14.480451917554221 8.096802886365426 12.575233092249345
Hf 12.95338870231221 13.123122557145127 8.047014011050729
Hf 11.291773025790295 10.292270134807207 16.922499345675583
Hf 12.634209742183637 9.190806920197344 14.580298660417272
Hf 11.269141817221936 12.036193649203524 14.3450728927192
Hf 11.302617760560326 15.201644657766597 9.576276100556475
Hf 10.064911143370438 14.294949866108531 12.938730729432525
Hf 8.736081341554124 14.559760609724906 15.516212175510672
Hf 11.683636037682055 12.589104028482293 10.836725851795808
Hf 9.550466657632146 16.65533026343845 11.311629679458997
Hf 12.92177745846469 7.323384877823728 10.172604546903798
Hf 11.981842235220686 9.576866792082354 11.661236679692205
Hf 8.754882550245604 11.476129364727663 15.695575493848862
Hf 12.206780684682698 10.295267558594857 8.853022347297008
Hf 9.69132737038978 8.778562325616454 14.49458696337437
Hf 7.557601738295926 15.585924184324263 12.963237522896073
Hf 10.178893891044456 12.697324686914351 8.281198808413523
Hf 9.44930478528042 11.002537289681364 12.287105285984559
Hf 11.063746082139305 7.0728102952420455 12.47376990958423
Hf 8.57706366457291 13.470524238414702 10.63035611594638
Hf 7.349848537872869 12.81152514298925 13.49534656625746
Hf 10.351025501230076 7.966587463016505 9.76503853223716
Hf 8.97269326327524 10.418606113663417 9.438102045657518
Hf 7.197959011313429 9.88838056565923 13.85855449243195
Hf 8.350443357293521 8.352100239221443 11.7546826299876
Hf 6.836973545166462 10.947455515776104 11.219987216323966
