51
Energy = -441.4873524 eV
Hf 14.906947617548006 16.826615064816277 9.59098651659235
Hf 14.30305103321444 14.695956304255485 7.7540517339410036
Hf 11.414246294985064 17.441101103802055 11.066455903986343
Hf 17.48880546030226 15.691583825158617 11.255545694021992
Hf 8.6741363305729 17.481049926316427 12.012125218171047
Hf 16.915815605070186 14.971795664221554 8.501055524568324
Hf 12.280820712168534 15.168992048178646 9.57301921501566
Hf 9.516605150333062 15.774101997185687 9.93159914605004
Hf 14.102374309576295 17.75873410870084 12.347083950216767
Hf 12.58158104124713 12.330889903374747 8.181972923225969
Hf 15.163718216012592 14.205800874518404 10.646956771978587
Hf 9.635022527283674 12.97688683465446 9.213394055982075
Hf 16.395978329854866 16.33842930788096 16.730217164101436
Hf 11.533835624173605 17.88059917298321 13.772242321472104
Hf 15.6097329578606 12.187589557764454 8.40346906852677
Hf 15.91098079905208 15.759779393084537 13.79336349518338
Hf 17.874291286218234 13.007289965525954 10.234491170553293
Hf 11.107046692581816 10.527273834762305 10.015457132675476
Hf 9.683739898492036 15.552777220309846 13.638920548185455
Hf 10.73965636725249 13.603964115433065 11.679258369819701
Hf 13.262356275116058 12.203446990905183 11.031963861988261
Hf 7.904897038220666 14.173817595977031 11.503519225841947
Hf 13.857034499463774 9.980969356653771 9.32789405590869
Hf 12.97545482231569 15.213794497746164 12.768718634129094
Hf 13.839105986882545 16.98389928242695 15.143111746001432
Hf 15.94283677926121 10.890086673488664 11.26876342654886
Hf 11.185395844205575 16.417296395332272 16.294532754220175
Hf 16.87085557502402 13.208557783721327 12.866986668996317
Hf 8.8679038881274 11.275998673963079 11.627766389902849
Hf 13.34599077029711 9.526515113770834 12.24989735928115
Hf 11.616638155734858 13.82784207633456 14.96924272376819
Hf 14.517413502638302 14.184497939501526 16.21633703469766
Hf 14.376956520977417 12.088033792599278 13.869075072076177
Hf 17.57801987343658 14.096039968785501 15.524397364463331
Hf 9.217669759408343 14.457757213762061 16.379870511201933
Hf 16.788222459536076 13.820929046349857 18.132002654600463
Hf 10.627894222327978 8.465812676813695 12.497737465114236
Hf 8.564591912773805 12.724080387496986 14.099734941685751
Hf 11.278030330736282 11.195791271130343 13.524556046544516
Hf 15.73647902062093 8.121362358221045 12.639446799470289
Hf 11.744699380450859 13.858756837114452 17.793104232023364
Hf 16.040954327043213 11.62292966201708 16.439382203276704
Hf 16.94093954493645 10.361846719795635 13.936671952931276
Hf 12.979545460958812 11.582033750437958 16.535525195370788
Hf 8.973230509595865 9.686837879058844 14.377945245717475
Hf 10.062862937076742 11.671869050024616 16.445277122818904
Hf 12.92474635111972 7.028182926155499 13.727300392854639
Hf 14.468521569245617 12.539200706998397 18.754951990538306
Hf 14.54226123818994 9.150636586406788 15.071905167466763
Hf 10.059876269511694 6.862700388387108 14.632633456596045
Hf 11.626919043069316 8.955360391352727 15.425795362998311
