54
Energy = -470.53805376 eV
Hf 8.91098189417142 11.692353768636034 14.616142142205453
Hf 11.192369721431746 9.719556513126461 14.042544629474444
Hf 6.724248466348267 13.492428713947028 15.09906727534267
Hf 12.221109963710852 9.245819175915214 11.369244472539101
Hf 13.17979829163851 7.577650386149082 13.52769847517903
Hf 8.870885573982408 12.452832651084144 17.401688857390514
Hf 10.401358338749848 9.93349188956359 16.933984458391077
Hf 10.05686965062546 11.435756750394267 11.613291407867765
Hf 9.044171553162967 12.814516823145862 9.175369000422828
Hf 11.32119693390375 11.871184063595132 18.809738157706107
Hf 12.691663091188158 8.095441302843163 16.0933897657093
Hf 7.640424262294445 13.040111764942223 12.308839994960847
Hf 7.77901991497343 15.576632234221123 13.438487184306862
Hf 10.544706154243006 13.937235898580239 13.116712177618803
Hf 12.812916025507173 11.974733272741336 12.469119662667321
Hf 15.133602915014286 8.88394535476452 11.888875697861996
Hf 9.885786687583343 15.453584489069462 8.254558948485313
Hf 9.271477401593012 14.67106034166458 15.69470354457957
Hf 13.298701552620013 10.41344834046661 17.619633147132053
Hf 11.45566610478763 11.051150760244902 8.985477359170748
Hf 10.781034808980602 14.463693831278805 18.071870732482058
Hf 15.793836871965024 7.991893069152059 14.587058551883713
Hf 14.272482832039328 10.846706181766237 9.917347530639853
Hf 11.512250746861131 12.461871079235772 15.837719894116217
Hf 8.968061116204685 15.231612419358754 10.926257400820168
Hf 11.016628309810416 13.276561819461781 7.159352772213665
Hf 14.050257351173643 10.246218582539782 14.64838480937374
Hf 10.588119879438255 16.88026820205545 13.299293719683972
Hf 13.584644421578664 13.428703037278433 17.828326761460797
Hf 12.352109525171741 15.323409225501178 15.661714786498514
Hf 15.905788357900187 11.757634239893713 16.922675278372854
Hf 11.61470106206506 13.799834492072394 10.071867521989995
Hf 17.469299632442223 10.4587251224835 14.864744286943584
Hf 13.760469035309244 12.851236750133584 7.6608467593079705
Hf 17.89453462573895 8.930576457817473 12.636089020608896
Hf 14.492090271453382 13.348564424684689 14.821786211836852
Hf 15.959635555852437 11.854651110351634 12.541506525870835
Hf 17.415403530521107 10.54659157840432 10.329941753528256
Hf 14.608141419856702 13.697410102967694 10.451070539451477
Hf 16.385154103807213 12.30217401822879 8.339905062295689
Hf 13.262866098703341 15.657352111033806 12.78613650854891
Hf 12.756190909421687 18.519890156547877 12.007006408817226
Hf 11.471231552724916 16.815428891940048 10.314201277048454
Hf 13.021402554240467 18.038942873995897 14.698777129937744
Hf 16.16154956676811 14.44314275149796 17.130299223104597
Hf 17.46024967087974 13.312783801188047 14.795116224376011
Hf 18.83705310761785 11.616137568313787 12.633872794320048
Hf 12.805163291526254 15.587473949811104 7.950572040895141
Hf 14.460403681475162 16.7635586342992 10.319807442885462
Hf 17.638430389363766 13.483106155599566 10.578331433075503
Hf 15.18009466759044 16.242741519534235 15.173102179856713
Hf 15.802363239978446 14.994709867436534 8.277179516221135
Hf 16.147167694118373 14.978591849615672 12.638384750080165
Hf 15.319117304587182 17.889326934056715 12.910931584864521
