51
Energy = -442.83784063 eV
Hf 18.37751227529215 10.997348798853116 11.196341936909244
Hf 18.383582644020052 13.85551173989344 11.801116928955091
Hf 17.511840786105967 12.582431251767018 14.207431264791184
Hf 16.877290343534433 9.853232426031342 13.641462145581743
Hf 15.79284606784017 8.781025442146971 16.01493849136621
Hf 16.524364167880176 11.32144191912609 17.016216092654826
Hf 17.014325056013217 15.525863058671169 13.749469411583362
Hf 16.540633976397572 10.701581265763886 8.94261369923032
Hf 17.4050151335596 13.179940418795772 9.406454267126797
Hf 16.020875692889714 8.94696812916465 11.0728895443344
Hf 13.807200366107002 9.935806548551088 9.240644793825867
Hf 15.783185786064148 12.03834992750236 11.642624882794571
Hf 16.289626116747094 14.163220322853888 16.241056537589856
Hf 14.463276226682318 8.125011390009924 13.566488876473793
Hf 13.58339464086527 7.576418792421457 10.845348090815527
Hf 14.525961180040438 11.302065510135455 14.936122287522341
Hf 13.995910791612589 10.087423113685865 17.570594675898967
Hf 15.071153128645232 16.628315730119525 15.542415023004528
Hf 14.490839437293737 12.929164811517246 9.036737170994995
Hf 11.312645777945525 11.634695045147378 9.597174636585201
Hf 14.410383193130496 17.12078163827078 12.785023907239776
Hf 14.127152141473768 12.866522800489818 17.63360379432898
Hf 15.765448007333195 14.998358682394686 11.011956626521958
Hf 13.065900768620422 10.334224287732836 12.156329085945435
Hf 14.496157438280271 14.210025323719096 13.840475964092764
Hf 12.973900521627632 13.443518415333658 11.4004810581921
Hf 11.16187725540008 8.836864123612179 10.18939498109263
Hf 11.565946142762527 11.470835513151444 17.181175656505292
Hf 11.618492284899537 7.85341899402659 12.804875810585068
Hf 10.055646076732968 13.2022862188234 11.687735509615843
Hf 12.4717933408159 17.82788036166642 14.927740486683556
Hf 12.047525189262744 9.597767065210796 15.028938863781718
Hf 13.083116196796324 16.341069236286746 10.325770087872522
Hf 11.78800485897706 14.347089178118322 8.79539260395105
Hf 12.67361022533797 14.932241844211267 16.070384509523667
Hf 10.014307081230566 10.33305360477269 12.536088934451124
Hf 11.742793608161131 12.576966141977353 14.353182687805502
Hf 8.913677845815132 13.720608001785484 8.967261753779978
Hf 8.525418860431595 11.068106804729922 10.219798201724748
Hf 11.63261739575733 15.504497750487682 13.257632650198165
Hf 10.034901679951938 13.698531337545209 16.776110662133572
Hf 10.039204563481473 19.27915549653327 14.482266279478399
Hf 11.58272739644402 18.230710285021537 12.13653722844799
Hf 9.354140905575278 11.30353873128607 15.313790331780378
Hf 10.206132501829291 16.095870681605263 10.440046434948885
Hf 7.634887250208294 14.70256774978787 11.390565298192831
Hf 7.448323592266314 12.015168411977898 12.679448611189317
Hf 10.087707713252149 16.50548090801321 15.718234846863805
Hf 9.007921211621031 14.197385663000258 14.191687888075283
Hf 6.281299502540686 12.72720198560887 10.039532304778152
Hf 9.090977597220286 17.047807420715696 13.063317977400693
