53
Energy = -463.62816315 eV
Hf 14.531331082100628 15.5863526597612 16.699669372084475
Hf 10.018439377051205 11.923064744512898 17.45079502372839
Hf 9.037632667418773 14.400374701968182 16.487863051641828
Hf 16.397059078105112 13.827847734521027 14.938667121639352
Hf 11.470311851072674 16.459980715652723 16.289600109035256
Hf 14.779479334830873 12.756457119359235 17.319585472645244
Hf 12.092374402799354 13.705920724088424 16.697565920814544
Hf 8.849865259999245 16.830230662105684 14.990374642044305
Hf 13.705180179187446 18.0934773534284 15.303383592218045
Hf 16.073039717187065 16.833486796367136 14.506205823650436
Hf 12.58306789525137 10.535525412133726 16.46487984774415
Hf 15.897440310922171 10.770242675036478 15.61053157073048
Hf 7.883498274964021 11.83072739614387 15.28408954725602
Hf 7.516806097920617 14.481288919504784 13.919071212784637
Hf 18.194988133014913 13.965785643123057 12.3481993568143
Hf 9.545148885258572 9.616438315084386 16.137247199420393
Hf 11.313496520075423 17.7200260849558 13.60769899793388
Hf 18.516908566517483 11.736399750683802 14.62754384063654
Hf 13.4477782975515 15.551163430339233 13.943754289266554
Hf 16.380122619780042 11.737553496784969 12.828096479052206
Hf 10.745937773304025 11.73596724697036 14.587685590519403
Hf 10.645149361609759 14.799471796772142 13.979644100808642
Hf 14.240405156868071 17.99560786840354 12.474699056446498
Hf 13.75225434981968 12.532429897000696 14.622270531038872
Hf 8.87204038842084 16.515934611344562 12.132156146377165
Hf 16.76161728697717 16.881773297917412 11.661530695797007
Hf 13.786515543559442 9.68563069519084 13.78311932552781
Hf 17.492770042203457 9.188693110726877 13.45402614541867
Hf 14.432122194743204 16.303543067125815 9.973715845374075
Hf 11.506596024782631 10.606611024348355 11.930406280573084
Hf 15.364870470416816 14.408336002412982 11.942307722415464
Hf 19.056813969506734 11.108025379617036 11.935888400906869
Hf 11.343709781081172 8.535412086126907 14.277254111361493
Hf 16.882641053849323 15.002193127616229 9.596009045951748
Hf 9.608931487520858 13.073732983572604 11.812560531372494
Hf 11.85262677171999 15.94559990608082 11.352068904123712
Hf 12.766692324077312 13.17848135294352 11.840523811991387
Hf 7.091952230512754 14.499004131266346 11.109952779243699
Hf 9.516400869469777 15.148938450807782 9.674237881823084
Hf 15.346943752432162 7.8202610862489275 12.062329269530274
Hf 14.50696575100165 10.58222533260732 11.008462113167731
Hf 8.832996977911778 9.709559592215573 13.352134477070443
Hf 17.426482123271665 12.259070838927578 9.911406301885236
Hf 7.126647981447232 11.759766108302609 12.09519429301843
Hf 17.26789470352104 9.352206133040045 10.440584492997024
Hf 12.652584329115903 8.222353772811434 11.264610758059478
Hf 14.429067319629299 13.215244683693923 9.318433380743553
Hf 11.164338148814512 12.623124932117138 9.474586772426147
Hf 8.191578708032486 12.662047697714234 9.36055400910287
Hf 9.275230032234395 10.317624381900087 10.331735489156397
Hf 12.647763269667058 10.224104247646011 8.922875541499053
Hf 14.765260229991892 8.204730788559676 9.339820897270277
Hf 15.57758150535647 10.702008338060653 8.329176906414355
