50
Energy = -434.11982553 eV
Hf 18.907054094020197 12.461871556625004 13.907090757072154
Hf 17.809251105762108 12.36876084840034 11.130922663478502
Hf 17.854411646512453 14.791723638376915 12.763976573214924
Hf 15.181337693774408 8.055741155851473 13.07947267092083
Hf 15.679545889665825 16.288981831108998 15.354092857430352
Hf 16.770022764181952 10.568802684210155 13.541648052981516
Hf 17.772748690616552 11.082442453930463 16.14722555652318
Hf 15.747865963675936 10.13160733044704 10.754455532277612
Hf 15.685114623424871 9.023649878231152 15.86113394166755
Hf 14.60042300586816 14.573837210553105 17.22156384355195
Hf 16.456050491336125 13.396280075010118 15.077662728518124
Hf 16.65415848164071 14.818353464816322 10.277654826101976
Hf 15.09556857011764 11.630782490439746 17.180488085323823
Hf 15.152281567478749 12.977253659802138 12.202445259185632
Hf 15.016533421248822 12.547757762499995 9.38430268854423
Hf 15.202643207946835 16.07143349909973 12.496295481577137
Hf 14.139590383324489 7.812630295742394 10.300290373890453
Hf 12.320835054297154 12.588494164890356 16.725154003053927
Hf 12.567297973705832 6.985353921005777 12.3835797361907
Hf 13.93054181155838 10.866566948553016 14.66731331807294
Hf 12.83830189783295 16.674798216718905 15.761672667631402
Hf 13.047635136109674 9.901311207259834 12.00642383245596
Hf 12.894518811192977 8.07508117409491 14.87976503253736
Hf 13.375849455509648 10.18109730275088 8.803269364190024
Hf 13.595979765472062 14.012378872754699 14.515762507093298
Hf 10.637551561938691 10.7418888624423 8.715225333429306
Hf 11.318593738206479 8.419432482727974 10.189180692835592
Hf 14.125297968554356 18.30471145019215 13.878808456032976
Hf 10.893858528841907 9.95601055710758 16.0471699167159
Hf 10.505788948972205 8.787841069217974 13.429778757824172
Hf 11.215615676087417 12.025006546113747 14.037106644925746
Hf 12.246598327043335 13.028385441318424 8.014759257430798
Hf 12.132405150673883 12.49094233888147 10.75191044708008
Hf 13.156731970137187 17.95824769311531 11.179902840307534
Hf 12.084942643763073 15.844060393778157 12.751224610923824
Hf 13.757051138119614 14.956821091259666 10.276082613938947
Hf 9.488726471753077 12.32323402394762 16.494374861699963
Hf 10.709720063952885 14.76386914459667 15.259391431626298
Hf 9.441517757797454 13.091426948209465 9.442777805742388
Hf 11.367321709626394 18.48130370314917 13.630878634766834
Hf 9.684377567760636 10.800595958414686 11.468537865177918
Hf 8.485367640268889 10.77573860024915 14.288997735298878
Hf 11.120906676536478 15.442693302179407 9.657017336115405
Hf 10.304790611289027 17.841061672616306 11.172154635141817
Hf 9.740045805248238 14.00464060299627 12.231424575590472
Hf 7.912638721943749 13.643618384428207 14.523616203105375
Hf 8.956576028680349 16.544472316183978 13.411957141001718
Hf 7.320868172238414 12.310291426109664 11.899748410068547
Hf 8.40710585364777 15.896388811394802 10.385562165227137
Hf 6.810226039238031 14.930413553094617 12.310610437714686
