53
Energy = -463.64335378 eV
Hf 15.925506955140875 9.374464222343793 10.687384366515625
Hf 17.65025596127788 10.728132319801178 12.714839920090899
Hf 16.736195528016733 12.337679278623673 10.370754739062887
Hf 17.036217414512436 13.491894729171198 13.154849430443672
Hf 14.166787873989984 8.189617746030047 8.600562707264519
Hf 13.828994303314659 7.39747223486667 11.330897344590163
Hf 16.37390090881573 11.368764778832489 15.359938144699706
Hf 15.7304474505283 8.81209149297936 13.656414270696503
Hf 15.90159332346496 15.1339825721228 10.47703509960427
Hf 14.966270776679115 11.532043270557553 12.783501989102815
Hf 14.959574978915528 10.948476171832802 8.057393450392158
Hf 15.633137574974617 13.805411873862955 7.992155110870456
Hf 14.36428059816099 9.427191876024825 16.175880475113967
Hf 13.025151067037473 10.10012440839892 10.285864790843243
Hf 11.397095028632874 7.66004386301338 9.509473092283168
Hf 15.4289775576278 14.136796055157417 15.632553165364131
Hf 12.091396291479594 10.025035591459373 7.497004637529541
Hf 13.640679813956421 16.970330797143824 11.32735918896739
Hf 11.114858646023514 6.898639136342457 12.301059662087956
Hf 12.909722780465946 12.984993147083765 7.162661878703427
Hf 14.118711539913487 12.069664931483436 17.588236901312644
Hf 14.11769182703237 14.31642684965661 12.800361079663105
Hf 12.788518559338026 9.523256094235023 13.318360964624082
Hf 12.142086034845999 7.654605759445164 15.075517516036667
Hf 13.490943529340834 15.76147043625003 8.687171023573255
Hf 13.807163672864979 13.07945818473571 9.99749318220134
Hf 13.152358506194728 12.143877327249125 15.127721339089936
Hf 11.113492059193284 17.156396530306477 9.852779812127011
Hf 10.897270209234696 12.289480473023424 9.557242111386278
Hf 12.085634754604458 12.175788310243055 12.323509624863224
Hf 13.455013653308269 16.555323150285542 14.540994498046414
Hf 11.812548807451032 10.061782073036527 16.903468893608597
Hf 9.47935674935918 9.613324023207872 8.589854476626684
Hf 12.905258852972487 14.781951712623153 16.71899298744297
Hf 10.273529421768558 9.86281802243554 11.557917799884537
Hf 9.446723619477403 12.33609416433636 7.383950269595667
Hf 11.333550551632069 14.866544745976443 11.236754729064975
Hf 11.33603814506117 17.455592904765915 12.872589882817639
Hf 10.870513427794156 14.873242794304026 7.948271877466339
Hf 8.625777383790806 7.858598021986323 11.045124402425758
Hf 11.168491382362024 14.280440142602034 14.234624502661141
Hf 9.392948590959424 8.227194684473854 13.956135696078716
Hf 10.41771517723727 10.978589887097147 14.5109641121403
Hf 9.189682335114794 12.973610992741394 12.30269286697386
Hf 8.749070153091681 14.382841457812862 9.709887270096626
Hf 10.787094369065494 12.838085147770107 16.893179554787622
Hf 10.669614840620273 16.601061699580214 15.559645085682506
Hf 8.025995759131499 11.459164851396888 10.066299736837529
Hf 7.772992776386248 10.455535777529086 12.989412343786238
Hf 8.934216334227553 15.849281716615824 12.966112944846635
Hf 8.036145106672011 11.836466024467445 15.592092033673254
Hf 8.499143526787496 14.568716522726513 15.498429846878997
Hf 6.79593517877118 13.42317076855383 13.459791822018452
