50
Energy = -436.52123251 eV
Hf 12.532093665816033 7.207914938646059 11.291457159177579
Hf 10.023443538075893 8.554911755807428 11.293962137880312
Hf 14.749041933282225 9.194903799603482 10.813616522446624
Hf 13.963834637308544 11.51040027922405 8.989743508395104
Hf 9.381413638529214 10.167544157286741 9.143244406645723
Hf 11.552107800281826 7.579503597248927 14.089695396818373
Hf 9.22979370431149 9.404151199501557 13.774982839047109
Hf 11.499454741521719 14.485317693168064 8.828324726982672
Hf 11.374064445308 11.940434722780166 10.639123797458204
Hf 14.059404693165895 14.037332056888566 7.258642400257877
Hf 12.184384731888827 16.6832967948656 10.81409187092785
Hf 17.064527547764104 15.994549942326326 13.720055250364565
Hf 14.343939808605057 7.672417696440503 13.293619758620457
Hf 8.644160980807372 11.403260166268046 11.751550695699375
Hf 15.862619011626133 10.112975531334357 13.478602744282231
Hf 16.70191238035202 11.621672445868093 11.046640632825078
Hf 13.701090042104653 9.498984364584828 15.418428831893282
Hf 12.410720598445078 9.798218840003358 12.673477898427246
Hf 8.489947962949904 11.777156353601512 14.879861297158643
Hf 14.073367580263428 12.1144014967431 12.057802408466785
Hf 12.120462456056496 9.239908456795508 9.250288576154535
Hf 16.002893422793203 11.375325662572155 16.375457866281323
Hf 12.880048493881901 11.505238776795437 17.55016978103501
Hf 16.428058760889012 12.949437784738288 8.52340279087635
Hf 10.041745284338749 12.593482763934006 17.179554922929213
Hf 10.818919028326945 10.050360806130556 15.934425043872574
Hf 11.936382874240396 13.787535932189126 18.927009561307425
Hf 14.213059778254543 14.297587565345372 10.07823916241891
Hf 14.083641487644991 12.481976534908044 14.92723975514812
Hf 14.610785089557679 13.894301666549635 17.8664418893904
Hf 9.075122256361851 12.903642178007399 9.186127392516486
Hf 11.062293326584802 12.211249613791924 13.83472998581519
Hf 16.552351175308726 14.269380922025013 15.919017010507185
Hf 12.227205930883816 14.40982702165363 16.05233480874688
Hf 17.17910684435112 12.828888162036277 13.702185691264864
Hf 11.30582995319648 11.741217201425332 7.731641798943449
Hf 12.159078326840767 14.70729434809721 12.99038682873142
Hf 9.542566241092686 14.702770038878109 14.758898798205962
Hf 10.101401583786464 15.527544225606722 17.601132985338403
Hf 17.134979275743646 14.555389026070475 11.001334532219595
Hf 9.738336408271607 14.304944380458528 11.653349180510142
Hf 14.935809671661762 14.750045934605946 13.08401999717579
Hf 12.847436876689951 16.314774227525533 18.144442913694107
Hf 14.557478281677623 16.36672703995947 15.777918828189486
Hf 13.606739895565855 16.618485848963285 8.366984266338243
Hf 10.35022720180571 16.94085323022066 13.03286190386277
Hf 11.56431855123342 17.218576025062678 15.684019163637037
Hf 16.23228497414935 15.71257481514106 8.451668513731159
Hf 13.268147956778005 17.444176535238544 13.345216850063904
Hf 15.20313495628408 16.938119652208442 10.912421682482883
