50
Energy = -437.30325604 eV
Hf 17.64509964103967 8.414447302262246 11.942753731213525
Hf 15.56165261095502 6.744050090863758 12.673639641970208
Hf 16.306393641066116 8.940659994145927 14.563729474540267
Hf 17.905274310215383 11.05574031895441 12.929256851970706
Hf 15.70700062733398 7.7771719736998985 9.99405033854574
Hf 16.414470553715844 11.872586112117519 15.384852730942438
Hf 16.82170026024598 10.559869876854895 10.107126349996708
Hf 13.512276478469403 7.813632079080047 14.248899631903756
Hf 14.880462687641808 9.506563955192801 12.135261778613518
Hf 13.077818086014634 7.426960231978774 11.259020140150007
Hf 13.578614551859163 10.726507620380424 14.528298495047462
Hf 17.650746104698527 13.825041361609781 13.685414643922607
Hf 17.456432330730514 13.332648188865052 10.94659239413226
Hf 15.29017308932134 12.490861923089094 12.67554702751267
Hf 13.967328332788114 9.922260237538714 9.249735894934222
Hf 8.94646795694257 9.164306084812937 14.594320936375455
Hf 11.073447238180055 9.520512388096908 10.04192466681928
Hf 11.22557877566414 10.18975963068937 16.130282159983157
Hf 11.40721841370095 9.250135064108619 12.980412100020247
Hf 15.315022842762524 14.537423273959732 15.230057517232417
Hf 14.84500769124841 12.8670909680809 9.659886822425321
Hf 13.674308825415062 12.539926634105937 16.76048697543538
Hf 12.637102354661836 11.695942121552449 11.434435859250987
Hf 15.490810936251329 15.324239775120583 12.095332248249553
Hf 8.524266153611418 9.370922982296667 11.665116612291115
Hf 10.17600778241333 11.71390702104493 13.955178946448914
Hf 14.801382732774588 15.883265449658218 9.292140992669093
Hf 12.916645631076888 15.236522012697336 16.55810625003143
Hf 12.662713647794392 13.617853646267383 14.167972262421094
Hf 10.736858168929402 13.258555215157054 16.51067083768138
Hf 11.686519384372009 11.773863630779239 8.604342839016287
Hf 8.555207420212618 11.378687830477755 16.27486904517157
Hf 8.637494628872052 10.767028101737282 8.849040851360716
Hf 13.258483334186833 16.488464388912476 13.909818913371266
Hf 12.974254117088135 14.36857442674709 7.939818141822274
Hf 9.625570641049457 12.086643251776916 11.004366045353159
Hf 7.220717359837071 11.323268185594562 13.610960143859979
Hf 12.672307254771201 14.748383903610803 10.964501203409062
Hf 6.698145785737922 11.418363168422959 10.832223302333233
Hf 13.703492752907836 17.543197191878857 11.223825893931721
Hf 10.537663894512836 15.984117862802194 15.109783112559299
Hf 8.200069193887575 14.03100337204507 15.037667391788894
Hf 10.039383580557287 14.3977752599251 12.666370053919824
Hf 10.32552213667809 14.227757480104973 8.839177920981593
Hf 7.582201991227006 13.542677359694848 9.373503423537187
Hf 11.872596553510883 16.77986209539319 9.136202151093762
Hf 7.050725760885813 14.026646304858723 12.217169383659764
Hf 10.975321820200428 17.17415086044396 12.21024933615482
Hf 8.273136440193651 16.446076219271028 13.290937634172385
Hf 8.786282439117937 15.967367171694827 10.524363705510735
