54
Energy = -472.85567519 eV
Hf 17.543062521041737 13.229947103624886 11.315893696046363
Hf 16.567528873135846 16.226027257204233 10.922759716448487
Hf 17.346020413468953 14.61382836658706 8.695964422619344
Hf 17.847231075446548 13.394829193314184 14.321158978120922
Hf 17.527809861728645 10.125720735600536 10.687377153046608
Hf 15.435421045165304 14.864049354500231 13.235056257824024
Hf 17.84104249555836 10.675631285275884 13.487209052336274
Hf 17.112296218211704 11.570878797180361 16.57356294112333
Hf 16.130585102614198 14.37634156199944 16.1700808747728
Hf 15.163664060934995 16.457955994870822 8.434939091742546
Hf 15.325937466448911 11.545338305885135 11.801534770359805
Hf 16.306190596551712 11.850092545169478 8.780780997407284
Hf 14.821619388526544 14.085311769648236 10.123384911230994
Hf 15.788448632994838 8.677634226554806 12.3727264773921
Hf 15.061425470334479 13.88097583155887 7.176335799377475
Hf 13.331760985618182 16.383663532195772 10.960343014099323
Hf 14.746942323159216 9.438321533917113 9.745183605417932
Hf 12.90549078063403 16.643546662125072 13.765460369063787
Hf 16.19815093125278 9.080957708335582 15.12875597145098
Hf 15.212088340282923 11.99760905406082 14.683168338387205
Hf 14.334299089413463 12.757582825768925 17.722108470995277
Hf 12.977417750797937 13.632397611608354 12.845490337917912
Hf 14.263219148876614 10.083696387261334 16.813071724825512
Hf 13.343767495850148 9.516832224695392 14.012325338430845
Hf 12.599208862104243 14.951067772828267 7.972730471841028
Hf 13.279503296917923 14.833491634688057 15.724023068690853
Hf 13.124167364412159 11.96586034695627 8.64956508800031
Hf 11.590649950951844 14.105739798419371 10.441564157977835
Hf 12.36752617202155 11.960464602484242 15.559152560721785
Hf 10.50663146928615 16.41303667478093 15.60207686981654
Hf 11.127339575977468 13.98399861743989 17.524179535863823
Hf 11.882328893973535 11.230976531424549 18.249096808627673
Hf 11.90201074857423 9.232094681088494 9.040322254949727
Hf 10.703341904764534 16.6397680609634 9.434338941343745
Hf 12.67933521308729 7.991101883722015 11.452238641862676
Hf 12.403464092419501 10.932834188182067 11.323962727798603
Hf 11.07808098618644 9.293550411610443 16.042644254017752
Hf 10.603877756493711 13.994047054186568 14.419764357757588
Hf 10.463954116810962 16.313306765270546 12.334998577295856
Hf 9.589586595719467 14.205768612970358 8.36040637749364
Hf 10.041947401370669 11.426874130591703 9.427766033000028
Hf 10.71759579372892 7.888231456090346 13.633838733689442
Hf 10.39052524414248 10.851585410484466 13.507915818182397
Hf 9.268346452153356 13.224430017057399 11.821876952568136
Hf 9.449828469238284 11.582682698104868 16.740720904695205
Hf 9.915413583583717 8.962418835643279 11.073457828028069
Hf 8.503436595969063 14.295798207605753 16.35584588900323
Hf 8.093012731390752 15.592184483995377 10.49312330767068
Hf 8.099319212202404 15.395190798549681 13.654257535304072
Hf 8.402180769022866 9.41406254106376 14.707371130799483
Hf 7.447708634533644 12.827345805670259 9.544334859925563
Hf 7.757522171430977 12.361046616914939 14.305535500339587
Hf 7.611967099394602 10.87371100062953 11.811910830913481
Hf 6.433590760997694 13.606844756053274 11.978095264156533
