50
Energy = -436.23663318 eV
Hf 6.736266444702884 14.222040456541128 13.62923948222737
Hf 10.795351873060001 16.842102171663978 13.605832904625757
Hf 7.884592760184285 16.404718194722005 12.012009995559405
Hf 8.937641611100137 15.052511471363623 15.217176970507072
Hf 11.804077968839938 15.123496705547971 16.053152290206484
Hf 10.012355452048467 13.117354215248755 17.136348401554592
Hf 7.8528917828683475 12.219864586919185 15.41139795380549
Hf 6.714954440942106 13.930932729700558 10.869264199262396
Hf 13.713969632267315 16.664898751821116 14.418739669989675
Hf 10.505676365928293 16.726913852065984 10.701115633112307
Hf 9.297822029148 14.098557538447965 12.117481201702455
Hf 7.412136587271971 11.588000809447909 12.453873434634334
Hf 12.43870761463081 14.51475496069076 13.25088057283518
Hf 13.164766244785685 16.7229618357936 11.513702921570477
Hf 12.767914070046533 12.08510334948655 16.234839879778665
Hf 14.548429483450203 14.078159060917182 15.353964352141114
Hf 8.81013263525318 15.05958865262661 9.361517281509876
Hf 10.408055751232824 10.330156576270122 16.440014698343557
Hf 10.485546259700572 12.471069570218884 14.40134311194465
Hf 9.176955066520513 9.61698743008062 13.835989555221445
Hf 8.663477222228533 12.04319589204967 9.758933686166996
Hf 15.423079982385149 14.842538079093485 12.732727091655986
Hf 15.6222563668659 16.469836362733314 10.122112435920922
Hf 12.972876223459432 15.866142249074716 8.638148646634853
Hf 11.455323899133852 13.90099685762531 10.254335558072112
Hf 10.751130703951167 11.049953701809034 11.558744489897514
Hf 15.474377908011801 10.685015840223722 14.730513430588811
Hf 12.023015972896461 9.984374896523471 14.116683282062885
Hf 13.49660066539223 8.597330471043577 15.994036344471832
Hf 14.366412182209721 13.884078097816644 10.309833786926509
Hf 13.658599355643226 12.168920150114266 13.075500206715564
Hf 8.510272656231958 9.293918770193029 11.027211154059685
Hf 15.665319500736757 14.730652418614568 7.874858687373919
Hf 10.865637076852432 7.585107283896565 15.057648888690881
Hf 13.522043071731815 13.003041786742353 7.462150501548001
Hf 11.109706585001964 11.876955462420684 8.174441357469997
Hf 17.181654932772872 14.085497538957062 10.210917893186542
Hf 15.739570850597145 7.692525754453817 14.498426941702782
Hf 13.35638122038253 10.958568285060391 10.110308694453295
Hf 10.998510096134616 8.038686160809574 11.957128225641844
Hf 14.268788800417363 9.19635274851278 12.478256092008435
Hf 10.705049925361678 9.267721644190958 9.110254785857572
Hf 16.10248605924751 11.684962573613719 11.652104176364826
Hf 13.210766305431038 6.664869553547794 13.771266407551314
Hf 15.907503157447723 11.878867272213595 8.583228007175723
Hf 17.15203659622568 9.057997171830449 12.537562036633803
Hf 13.37865490107552 9.964178210994866 7.618920120440352
Hf 15.675736684339219 9.11857576917186 9.909459241510259
Hf 13.182580471204329 7.886776585900479 9.965852415024534
Hf 15.520389388086484 6.786910684407355 11.77918612715604
