50
Energy = -436.11871239 eV
Hf 12.218358813626777 9.252999726787623 9.630068414506807
Hf 10.362232690067186 10.514759076445529 7.707665308670703
Hf 13.529460113237455 11.111921659102592 7.35827732112432
Hf 11.014120684350972 8.11172510262161 12.23376820932718
Hf 7.60663474777607 10.91478978287888 8.834693640883202
Hf 13.807243973771795 7.842348179014987 12.076983328943145
Hf 9.341696989375151 9.341305671238832 10.404969007307004
Hf 8.69885393198945 12.863838989349066 7.278183113774719
Hf 15.03075181208644 10.0597066369013 10.31181800639759
Hf 16.58526136334101 8.469518794611579 12.317119943640497
Hf 11.403100774448998 13.434838317732064 7.146777719743225
Hf 13.038355361861257 12.34136955518174 9.721926187865234
Hf 12.10277575995439 10.842831770835799 12.082328817855156
Hf 15.833835113095528 12.534240011897046 8.95768797284781
Hf 9.849906837004937 12.210146238890648 10.049961163594542
Hf 12.283361845742423 8.99737079970328 14.662710831654726
Hf 7.299631860253307 13.657012922791433 9.595983507400607
Hf 14.061724485195008 13.989987499555669 7.432474229118969
Hf 15.131035293843428 7.8818974956705485 14.663106318591016
Hf 9.536881611060618 10.460408379301647 13.290514333417585
Hf 17.340681705024267 11.10905713122939 11.97739583460914
Hf 7.448242957935235 11.496031056577584 11.642369572888931
Hf 14.723627539149089 10.395716192506319 13.304259740221996
Hf 9.317917737670438 15.529493920518567 8.265682227975438
Hf 17.150961442013596 10.114928847123792 14.805186951540385
Hf 15.328525794988506 12.934607663005982 11.75204564069073
Hf 14.715279868384052 15.107473718281241 9.936078156561052
Hf 11.206154834529212 14.73977486457399 10.331040178940876
Hf 14.71446243737038 9.90622075074633 16.592966775873094
Hf 12.413342555849333 16.246677452212815 8.313013252971993
Hf 9.467020352298332 13.49539532497991 12.868990847218194
Hf 11.52685497516306 11.935293960241431 15.170983380551473
Hf 8.43331999852313 15.751503937565452 11.108073783696517
Hf 9.693557834801735 9.939132120337398 16.194217486603037
Hf 8.571457359240934 12.360044626745045 15.381278305550174
Hf 12.6041239554509 13.918743893192842 12.674084759915653
Hf 16.46643405241259 12.036715131939603 16.958527688963354
Hf 10.4395685207497 17.449681192259117 10.182781649431535
Hf 12.076776734143897 9.991096570015555 17.48935418174873
Hf 17.09118275620822 13.109416420592641 14.341619262886548
Hf 14.250135663998446 12.78261230553946 15.070002477807119
Hf 12.983519547156407 16.771194892548678 11.425193996605836
Hf 15.276672479744624 15.143856303583997 13.483872935011268
Hf 10.62894248390194 16.242001118254816 12.852585715408145
Hf 10.24334653660608 14.628921784500577 15.601018827971053
Hf 13.78655511809904 12.336027923604986 18.01609493296182
Hf 10.443380742105195 12.430240519482213 17.735155670178838
Hf 12.967905635142586 15.7665685508371 14.86807211377072
Hf 15.406165914524973 14.719142618813509 16.522420030232425
Hf 12.460654301371944 14.587190514227917 17.284883108049883
