52
Energy = -454.50537767 eV
Hf 16.326153996309344 15.008813892181037 13.585064901402713
Hf 16.484429037823013 13.844236548807595 10.552515813199852
Hf 16.28591043622969 12.830738404756724 7.841123934236595
Hf 17.1416296511405 10.991499499624902 10.198749578681417
Hf 16.072694577156916 10.052306089049658 7.554772480607432
Hf 14.601867056495212 17.113669058627217 14.061521935817252
Hf 15.627215897247854 15.587950693783567 8.507935001816598
Hf 16.41663418353194 12.948032551866444 15.458505081636579
Hf 15.388718808666177 15.506909919935147 16.40459403554677
Hf 14.30424570689242 15.846909440909245 11.281115621819561
Hf 15.636441242117852 12.201561320060938 12.778505449370808
Hf 13.948685293541805 14.292384327488143 6.571650808330118
Hf 13.600915765495767 11.498873683919347 6.817679557518978
Hf 15.793175137825132 8.319823669748317 9.708140180020964
Hf 13.683423788438484 13.581443651941926 9.351159220736536
Hf 13.63861896928974 14.35806962280553 14.776131737798739
Hf 11.843415454809387 16.50989634387119 13.228972386802681
Hf 14.329154218438491 10.749445661592333 9.858479743092063
Hf 14.373914475568368 12.236322026338673 17.248603459658828
Hf 15.080543200917115 9.431436146644037 12.346760871240999
Hf 12.730368838397032 16.884338469220495 15.996886143978848
Hf 11.415386243860283 15.33498801278861 10.529382010744666
Hf 15.682640646658156 10.161211233863995 15.277036887880545
Hf 13.61150395054179 8.732941671657645 7.813453015658564
Hf 12.844050930327347 16.145596162768335 8.309301154401533
Hf 12.878044175513866 13.354896628307264 12.228041811605411
Hf 13.377171453033029 9.507886424841372 16.88216133052379
Hf 11.571736534998132 10.56489247281401 8.825301204824289
Hf 13.216538739180432 11.324385202295371 14.66574180843767
Hf 11.200600246508357 13.528283373933348 7.943840160765729
Hf 12.919312297993146 8.234648461332561 10.566101903353271
Hf 10.55399534075971 12.643777633431394 10.793893021340438
Hf 12.147543939273357 10.309184018247773 12.158404134619904
Hf 9.327203318766509 14.945668609372559 12.567575221964612
Hf 12.033389044390578 14.461318814282816 17.356133209478767
Hf 13.290443696722976 8.336205225942495 14.252887416813516
Hf 10.761377626916254 13.183058334977996 14.697416838717436
Hf 11.419866628614441 11.616971936347877 17.307460437518326
Hf 9.895975704284517 9.03489718682607 10.367176920156583
Hf 10.056541989435178 15.878166327282523 15.503083467440307
Hf 8.492275947886816 11.359564417124803 9.371004332651793
Hf 10.831598301297547 9.339588830899924 15.420410317839869
Hf 8.717492104180282 14.361311024395976 9.640246147510235
Hf 10.265502513203172 8.066774484439753 12.87299012864759
Hf 9.428408881717788 10.98163189892359 13.187881746305647
Hf 9.351403289036316 13.703793251345258 17.197670356143938
Hf 7.820176950589139 13.714285220077906 14.7589396493418
Hf 8.483630285068699 11.194630140197122 16.196770480566805
Hf 7.357720732682192 9.745875624691315 11.711830334384102
Hf 7.3834261729311415 12.799689955987256 11.744668886934498
Hf 8.047144806405083 8.827342477251419 14.505143700753125
Hf 6.615677907269972 11.188042108310345 14.036843218836504
