54
Energy = -469.2670617 eV
Hf 17.39729982664103 13.061829132416905 9.00277792850126
Hf 15.998312705791804 15.497993724915291 9.317387398316175
Hf 16.104000529293504 16.89431987215182 11.987594107032724
Hf 17.616079025380277 14.441476754358481 11.517428243943455
Hf 17.36082232789332 12.737753971910276 13.996128722912598
Hf 17.147951251585464 9.8779545643319 14.096438220672304
Hf 16.794784998543722 15.709626032424032 14.510534034320148
Hf 15.982922155905353 10.684030165005483 8.680014955714746
Hf 16.715396000746548 11.507747061848576 11.490719442794088
Hf 16.62246514321909 11.56027836787234 16.38102850706524
Hf 15.052782817695517 13.353133011981255 7.227711338241683
Hf 15.225327649012911 16.832219530828294 16.695136840452463
Hf 13.315906066753836 15.909582121895221 11.084324954673106
Hf 16.390299317987505 18.418453461665546 14.603119618335075
Hf 12.35664973958142 16.237248320241928 16.250722730109565
Hf 14.745822775897528 14.022795859688902 15.762068640170044
Hf 14.935710104384114 14.165710391627979 12.695128306969972
Hf 14.062817122162032 10.068671169862792 10.811061755220896
Hf 14.512714470026623 12.934931817005676 9.878366184130503
Hf 14.642312179494867 11.300219312981849 14.020446099689465
Hf 15.255975386820051 9.145938876531467 16.06299718231885
Hf 14.385564964680034 8.536721284157403 13.380403947167364
Hf 13.410349447589493 10.945753651654966 7.696315589646521
Hf 14.069472321735308 16.918005864984575 14.084805762760666
Hf 13.451567283772937 15.636338495330223 8.246599581679284
Hf 13.885605199031504 11.424113771607512 17.304041651327854
Hf 10.96564088234785 17.328295214929177 12.148038989237685
Hf 12.088617458044325 12.440143979009225 15.260491218892502
Hf 10.77094388952748 15.568353161334821 9.621322321135857
Hf 11.772474457764014 10.066294930350145 12.711055775160624
Hf 11.960163760238846 14.888319717562249 13.774148483983343
Hf 12.477670295562426 13.90434862241051 17.767212517650517
Hf 11.937125565764386 13.328626760385498 8.034064913166596
Hf 13.37425050461366 7.177997101721934 11.168008150420066
Hf 12.444229859621588 9.536989855777406 15.511009130517714
Hf 11.919232014468314 12.98536646252981 11.314397292312796
Hf 9.591399841126478 16.72841582976999 14.452115109817655
Hf 12.911906460913215 8.348209895693177 8.741240944875148
Hf 11.28245131398025 10.724091103685314 9.534203826254776
Hf 10.696786900848583 11.594356922092029 17.56738804432637
Hf 7.953482411544266 16.66456371503913 12.078045978859297
Hf 9.668111752442009 14.705784965613214 12.167845948842322
Hf 11.636100894997924 7.263156496984944 13.480918162888907
Hf 9.473184385640145 9.76947007018528 15.572380875503608
Hf 9.362317853745367 13.063902294210733 9.635071365902473
Hf 9.67290540557195 12.220694428379312 13.613368957739587
Hf 10.711895458588234 7.9941343813803165 10.795291633977307
Hf 9.975277615725028 14.390503994320595 16.22353698173262
Hf 8.702001968202367 10.70621056206638 11.15192242733833
Hf 8.14426937946734 12.154355434664055 16.187671801007724
Hf 7.674292435001533 14.525917641706432 14.35367119455606
Hf 9.11206280737339 8.611234554267305 13.040695619124998
Hf 7.231334419769041 13.102032887062322 11.960703788137707
Hf 7.297110606021743 10.720597030970907 13.817259082865585
