55
Energy = -476.7598704 eV
Hf 15.158034538732196 15.516243532681807 15.086144610087603
Hf 10.249699695201285 10.843701834094489 13.832392946208344
Hf 15.043862432389092 10.757709034020289 17.783647353683918
Hf 10.112705785252107 15.369723989294652 16.664688942395276
Hf 15.208063233235128 13.946167983639858 12.333435689914685
Hf 15.09818532362453 13.94926539096237 17.670083575122675
Hf 15.21972449589648 18.480300251989043 15.064071140415672
Hf 15.234860238804366 16.957690480737902 12.453210581874242
Hf 17.506947994395663 18.4421993430638 16.98262201624274
Hf 15.167497978627106 12.38006401209491 15.089640032105336
Hf 15.249105894042136 10.935465007886817 12.46086842185278
Hf 12.540772583865113 15.376731253090517 18.441424904118133
Hf 10.11920046690217 12.510682067411814 16.666495124689302
Hf 17.69516903118119 15.377026876879778 11.47354602632162
Hf 10.141951002175029 13.942419919945468 19.2077319102932
Hf 15.243138013250869 9.417506865722704 15.07481585652247
Hf 17.70291896869364 12.527981196226175 11.476220312634846
Hf 17.584069646609507 12.34185774956121 16.938531855548227
Hf 12.611559103255258 13.943929044344252 15.76709708534634
Hf 10.226802573205147 15.529745188245924 11.211687276171798
Hf 17.52836284149607 9.47038367989082 16.99434884377696
Hf 12.60016995397484 16.95260873210242 15.720060742031762
Hf 10.234680098672532 12.33959125205089 11.21787456996815
Hf 15.030155053816683 17.144174909945736 17.775098404833216
Hf 12.616031279155697 10.935382144340538 15.727689741058615
Hf 12.779219735135705 13.938037804290918 10.484822570423022
Hf 17.574510594430798 15.570611495597374 16.934857974076415
Hf 17.564401813922544 13.953441940869519 14.13992897859529
Hf 17.689504416022125 13.949460481396386 8.825277547162749
Hf 10.42018669011216 13.932236639542838 8.625836971284508
Hf 17.59906373654746 17.05827529919588 14.325732747529344
Hf 12.7249386372764 17.055679898017285 10.419759320386328
Hf 10.414132846850917 17.0107601620406 8.721182185370921
Hf 17.615923229682277 10.848326990100022 14.332864630903387
Hf 10.283172993937066 18.41793600964495 11.144561665544451
Hf 10.428822400498467 10.854676186150668 8.730656734467303
Hf 12.678097308409 15.49683502784228 13.080825504363633
Hf 12.740907331045657 10.821583519622795 10.427820841850203
Hf 12.847369105752808 15.417324187599334 7.872384833138031
Hf 12.588952500217468 18.47216297758807 13.081995546563594
Hf 10.305324889294354 9.45155372403015 11.156974695642274
Hf 12.854467246601546 12.456240583598595 7.875397481900796
Hf 12.685925879794985 12.387107768134237 13.085384711689963
Hf 15.340263734386642 15.448318568760753 9.629859447451524
Hf 15.44488820553355 13.942277037144642 7.159108914676938
Hf 12.610742972536912 9.411078700592046 13.093338957406763
Hf 15.34797906784755 12.439768931047768 9.63243801714896
Hf 17.47363171040821 13.959503158119096 19.56298129052
Hf 10.226525855503994 13.938333700797546 13.990925656192177
Hf 12.545376271368417 12.514370850611378 18.44459920614817
Hf 17.352670185871055 17.009927803699817 19.41104522194253
Hf 10.235303534763279 17.03182646721648 13.822915143691759
Hf 15.066528785688643 15.425501990202532 20.22281367123159
Hf 17.36438250925197 10.909221283376246 19.419665860089523
Hf 15.070192357642739 12.4861438457335 20.227690482179447
