50
Energy = -433.02390591 eV
Hf 18.256484227981932 13.183232620527223 15.647112247055492
Hf 18.074030789932248 12.856796728991531 12.750974993426269
Hf 16.8606106961057 10.499734742630533 11.383501230603823
Hf 16.06663685280846 13.610728006104477 10.839555205167432
Hf 17.141262796053454 10.72647485125374 14.30770933641705
Hf 16.091568516016217 14.539899421276525 14.258091759129165
Hf 15.162477786015502 8.227429281723422 10.285579576535403
Hf 16.676096651323 14.539171461170634 17.332942843118516
Hf 16.921450605476018 16.118464082965673 11.912663114142738
Hf 17.685806243753476 16.402499436184232 15.510310830388537
Hf 14.499221438085705 11.148145695918172 9.707799989538085
Hf 15.899920588873712 8.41678747094315 13.018747474227073
Hf 15.363624629702484 12.18426292982423 16.17016288809904
Hf 14.799953017083642 12.072908460858908 13.016527746478227
Hf 16.14614249745798 18.666161108966406 11.142776770656635
Hf 15.373206091257043 17.604250813461437 13.849512837301235
Hf 14.808197466770535 13.728003522571298 8.29090439950851
Hf 14.805529238270893 16.445392269718738 16.452179851535064
Hf 13.374919374146653 9.581343836107877 12.043485433671059
Hf 13.865057297320345 6.615302740313743 12.135458063562888
Hf 13.800640620737592 9.889808750136952 14.867846035279651
Hf 13.980635840936479 15.364011770414816 12.354407087848124
Hf 13.801468274273693 14.06157839960482 17.9628183159625
Hf 14.68569382466257 16.388452341287277 9.722247467764651
Hf 13.248075041022014 14.039792373995928 15.033423740456831
Hf 13.469227507497138 18.261264703416817 11.736909354114083
Hf 12.404575079557983 12.293632120811548 7.951755840106412
Hf 12.253118486191262 11.734950513263492 16.819775954249874
Hf 12.386254585534518 15.118225735482516 8.173514613967505
Hf 11.800836631057713 7.707740857728159 13.68900605256621
Hf 12.859466213261767 13.344044195566537 10.624860050848435
Hf 11.637246219968464 7.7769789311664965 10.846391381634312
Hf 10.83633145267403 13.653958274653643 18.56086285905622
Hf 11.602020581394129 16.315106935056402 10.661797464340115
Hf 12.32274705797268 16.952055211065762 14.264463275928742
Hf 10.583633277941718 9.6643629385377 15.50520371071578
Hf 11.919999446854384 15.980773815182477 17.103142276436646
Hf 10.947168908199904 14.614925803467939 12.866524849611428
Hf 11.706132682922105 11.667089942776258 13.596778167777522
Hf 10.216611977181262 13.543154795987675 9.313427509789562
Hf 9.359941136702563 11.623320240772662 17.416447161169224
Hf 11.261879028505536 10.866352222066546 10.279819684952457
Hf 10.346522320549902 13.65990917459223 15.656440952162448
Hf 8.667048599012636 11.434095084956365 14.510381410797644
Hf 9.130576364776202 12.442614289523839 11.79952602338048
Hf 9.858320718868848 9.492003750926418 12.604991149839945
Hf 9.65671482076043 17.212505227851132 12.786588648338864
Hf 9.618333388374495 16.45821036279302 15.423757954002555
Hf 8.709147489665757 15.288865267581217 11.01195797877926
Hf 8.151223945106413 14.713549361180403 13.680969827371884
