51
Energy = -445.5366591 eV
Hf 18.04954100285947 12.545541812963826 11.759632198384553
Hf 15.968647776341017 14.936193981488689 8.989748188384846
Hf 14.750117692254122 13.314519689485673 7.052967896487887
Hf 17.95504230119411 9.898800562043576 10.657101573271964
Hf 16.62661932462696 11.956190409297111 8.937156158332845
Hf 17.60356483334934 10.130775735268799 13.422902079914769
Hf 13.034059995362993 15.410023004177406 8.167858785425096
Hf 16.230689499538254 12.575293339021458 14.240209149379057
Hf 15.674980821704159 14.4558289785375 12.021054889339835
Hf 14.165848104896261 16.445517689107863 10.526083322013355
Hf 14.080529466518934 10.62922736083548 7.730760056150427
Hf 13.936571070757704 13.070370030219452 9.794401107468568
Hf 15.609646445460626 11.228349629650497 11.744782319966086
Hf 14.433452079141139 14.857466150907461 15.153266517785802
Hf 15.851136596554806 9.025109958108866 9.136797843480245
Hf 11.960617072151738 12.573143123126549 7.498036248626052
Hf 15.806349455792967 8.16511473437535 11.849284005271587
Hf 14.770675389495368 9.839524145953897 14.223175095735753
Hf 11.75771728307421 14.688133019646044 10.922947240078331
Hf 13.69726313110157 12.114738381213588 16.06376467427747
Hf 13.339238062153456 10.046578026289694 10.703348331634533
Hf 12.919891212274312 16.220367003042004 13.166242394913407
Hf 13.040028123439258 14.465909527282362 17.6448232018296
Hf 11.27481377419317 17.198496928424216 10.480419139557199
Hf 11.556277606188527 16.64539710252008 16.057880860749826
Hf 11.587844351888446 14.129153097826396 15.081503693214037
Hf 10.11873840486671 16.407760558734793 13.268157579679526
Hf 13.412427913757458 7.524574783382555 9.913931123147973
Hf 13.416238242139407 13.06051284946895 13.032440768759775
Hf 8.790630170855374 15.544699362207044 11.00237168963778
Hf 13.035717863413016 7.985582220167865 12.885014059501144
Hf 11.226771789938727 9.576033086611947 8.349001542163478
Hf 10.29959003385934 14.687088221749175 17.814923748657108
Hf 12.087688742215235 9.705859504234757 16.157742236102724
Hf 11.859654804833182 10.580100014487835 13.258776029697435
Hf 9.90738076996912 14.418558652699762 8.620727106509765
Hf 10.750265434695699 11.665950926901354 10.300144204711202
Hf 11.387859849226757 12.00881934118825 17.975459388390355
Hf 9.993885065202944 13.416852974149677 12.650629066069207
Hf 8.818130263108488 15.271334324001986 15.598321429804987
Hf 9.219556295550394 11.764381638997166 7.79548804093944
Hf 10.803485323632769 8.671306781286347 11.155451797666533
Hf 10.07360533568851 11.692062293358765 15.266870872070948
Hf 9.415542363898204 9.890900773195957 17.320531066643788
Hf 9.851621380786913 8.84949529446089 14.584363042889265
Hf 8.562238732765397 9.854530971088414 9.684112070617797
Hf 8.017202740784434 12.716491663329133 10.273632921675732
Hf 8.691468184995717 10.775132149453063 12.540514722655288
Hf 8.18816246540853 12.713481283213216 17.072585937833214
Hf 7.5795486704022945 13.074927919530897 14.100263297065993
Hf 7.494279687347005 10.45654813160484 15.292358587104413
