5
Energy = -35.86963936 eV
Hf 8.732046232674293 7.891541732124895 10.964110890213915
Hf 8.699257631292758 7.601264208857308 8.207051133114785
Hf 7.737183387506194 9.879415428343366 9.313707720363942
Hf 10.4005066362707 9.385251208894726 9.329870549303488
Hf 9.151023279789522 10.02296014358225 6.938198689576177
