53
Energy = -463.01484417 eV
Hf 19.26471044402921 15.954326771718682 14.396336220193053
Hf 19.157266751553102 15.372216986670388 11.55310974860708
Hf 19.5622079174176 13.180795917784625 13.843868882876626
Hf 17.996488932092195 14.075274703165434 16.28760178465439
Hf 17.33819085645799 17.554155493034518 12.92219458588774
Hf 18.92001563340601 12.49898406225851 11.166472255871527
Hf 18.07685001295998 11.38030141536167 15.63516406523913
Hf 17.048898911191124 14.462832786098087 13.22702039812997
Hf 16.71236434596561 16.612269223074833 15.559769115678103
Hf 16.874166444843862 13.983777893550979 10.00731090716162
Hf 16.21649811101206 11.786203837385289 17.646304686287117
Hf 17.08290723796488 11.36951980224689 12.999086251253432
Hf 14.576187232039524 17.508834369923072 17.276786203383633
Hf 14.679102339174626 18.492887972284144 14.34767147961285
Hf 16.399988288594937 11.03184721854905 10.181933017343171
Hf 14.669832154351957 12.657152049842024 8.671849892191869
Hf 15.2350952275548 12.786940717068745 15.036592424724052
Hf 16.7844684545167 16.809588695142782 10.31226048848518
Hf 13.412181493976084 9.343618119875762 17.15571065868144
Hf 15.1670638677531 14.640581448148284 17.43863817613767
Hf 14.59586558177223 12.817294679891797 11.745585459742884
Hf 14.68307448641723 16.0146986601063 12.277568605038557
Hf 15.762664009721593 9.810649430780229 15.361331378878473
Hf 12.222351882648798 18.19957291211649 15.99557843375378
Hf 13.741462213995707 15.879077517540393 15.083062050347387
Hf 14.364339411483442 15.596855877745917 9.315988792849483
Hf 14.326595766314085 18.284124329044857 10.900384652069848
Hf 14.710695978499922 9.6784260706652 12.455257081884959
Hf 13.66165522491246 7.93972048318076 14.555877560633474
Hf 12.055186603325913 13.463540408806619 15.393309429129927
Hf 12.875603719042333 10.686715471405687 14.66342033466129
Hf 13.407137001452611 12.290479837195464 17.50722374945385
Hf 11.962142511041161 14.755665489379343 12.53806454063295
Hf 10.850683014061708 10.95919747913647 16.938324260937577
Hf 10.444756292746543 15.965210884521717 15.328978460147766
Hf 11.121799061604813 8.495473604055453 15.54710632164781
Hf 12.232405513856605 13.42880256370901 9.850199005394197
Hf 11.691637599383318 11.892005482656186 12.26691996986456
Hf 12.200185675411388 17.66160399589077 13.05080089227674
Hf 12.293556075108839 15.681983548524332 17.579869662777366
Hf 13.266334483170104 10.620098419779254 10.186018828838973
Hf 11.714589812641085 8.934685321866432 12.506889133745698
Hf 9.501932796757371 13.527500944672546 13.774255953164348
Hf 11.8770970247691 16.578021354021757 10.369971915517949
Hf 9.356054750937563 13.685395692536373 16.682957342140103
Hf 9.795431449574057 10.618414365457278 14.169528084258689
Hf 9.333078326756004 16.094856024511095 12.510444125259605
Hf 9.369311401652011 13.753933493129077 10.663940506729588
Hf 7.548421850567537 15.199743236082854 14.974114395814997
Hf 10.231898778688253 10.941721961063243 10.178181191458561
Hf 7.991996207183632 11.529896613661435 11.994088181611797
Hf 7.221575878317602 12.31538952267946 14.778865023716797
Hf 7.046289487354345 14.10327140365329 12.39813967502467
