5
Energy = -35.87152782 eV
Hf 8.57785750754603 7.440505158673963 9.622546407570074
Hf 10.482647051047683 7.730322390787672 7.625893816600027
Hf 7.9459945261769205 8.79715365067302 7.368376288280576
Hf 6.965449631315011 9.683813990121598 9.796404553103859
Hf 9.657559043070703 9.880309447542372 9.162268108088439
