52
Energy = -454.76012831 eV
Hf 16.72022022900557 11.677569749061341 9.817973304949932
Hf 16.281517760933873 14.547317618368119 10.76406498643633
Hf 18.26248126794168 12.908540489157215 12.000561922829469
Hf 14.857021551538871 13.464282073328826 8.273472232950487
Hf 15.316173660944331 16.697866523039192 12.221410894773895
Hf 14.19058401296975 10.55360342750889 8.387764499137615
Hf 13.464733998485135 15.756918404846814 9.978619889594663
Hf 17.215693956232933 15.057354974251997 13.61844582562398
Hf 17.374404019806835 10.321285522440517 12.273615554777555
Hf 12.762099004223769 12.354387316214208 6.613874834275137
Hf 12.642318330207932 15.027186737520887 7.126262966207739
Hf 15.716405191100643 12.56434110397242 13.57356541487129
Hf 18.078168023660883 11.853900628790091 14.690569509106263
Hf 14.684333568477928 9.15032954471838 11.447866915044486
Hf 13.420653864834527 14.420990412456497 12.55470531124508
Hf 16.195668511911055 13.972279414254698 16.35520044113817
Hf 11.81822924339143 13.2668490003643 9.302931514253316
Hf 12.722572946810802 8.259853165022824 9.305945632592296
Hf 14.621697661498679 15.950805778791583 14.938159010700895
Hf 12.721197873050235 17.331837852217788 13.242666570068655
Hf 14.214675392967662 12.131946420242091 10.921200496895597
Hf 10.685963271404127 15.967560877656865 8.67185572486579
Hf 11.140311822885486 10.40528592191049 7.9604432527406415
Hf 10.060640569529632 13.413831786739895 7.218533150410909
Hf 16.04044067573594 9.452327747580265 14.540069080613264
Hf 15.898186150786094 11.322977519963791 16.583470961587047
Hf 9.979932284996838 8.601892768405497 9.934616853406812
Hf 13.765002533854688 7.8320778933797035 14.157288335849513
Hf 10.698938970909833 15.946200505376009 11.64410165593032
Hf 13.371727355930734 10.597347199617348 13.589246424563802
Hf 11.859080314444759 7.704182240637289 12.02077806753593
Hf 13.916049203555803 15.2331937782964 17.66305875293699
Hf 9.985003535839352 17.49972767089703 14.089522303113077
Hf 13.428943687276996 13.091455165339516 15.63841295602262
Hf 11.853107132322432 10.434588816197662 11.016371000086696
Hf 11.25533384033413 14.969577134571761 14.48836938384475
Hf 8.845446740968695 14.277383688946848 9.942140187396948
Hf 13.490464679986797 9.868931044474671 16.3990942879657
Hf 11.974582115895778 17.019189469198412 16.336029440748792
Hf 9.22054219429529 11.461186842641755 9.96601313279071
Hf 10.590881999262939 13.087260865834285 11.907100247060807
Hf 13.631011681262045 12.396271111847641 18.248582001285826
Hf 11.157117536352514 8.895382443010032 14.83501496035122
Hf 10.738541537182659 11.863364490469204 14.381347031581392
Hf 9.42577278044542 9.748552905405006 12.613014561080059
Hf 8.445940154282036 15.090706618288209 13.645592408755054
Hf 11.22617222004062 14.239390860463756 17.58856505339148
Hf 9.266625224716385 16.04156091039513 16.328052997925123
Hf 10.966101825624111 11.276287980889311 17.169165882403863
Hf 8.046726026166322 12.202313380875168 13.251066962054361
Hf 8.753522801024797 13.246251735336319 16.044027323609214
Hf 8.648647183833056 10.39459055398797 15.419604967186508
