5
Energy = -35.86629747 eV
Hf 9.59594123741506 10.283188181974076 8.14946542412327
Hf 7.796275470030789 8.461461598074324 9.057262005786527
Hf 10.151570513555507 8.8039576527368 10.352722238785786
Hf 8.22414624286686 10.791030898120171 10.503225442576518
Hf 10.115930059730182 7.579187376101678 7.847556641552809
