51
Energy = -445.43927246 eV
Hf 7.637687477968992 9.455691170980481 15.665019555926822
Hf 6.247310230492461 11.186549673993632 14.069719428975489
Hf 7.471751179201194 12.413627405733637 16.52556520834664
Hf 8.18808072476203 9.29677410031353 12.89540097388787
Hf 9.564318373142742 10.414367748603029 17.25109354247198
Hf 7.508583680397418 11.840951301623315 11.655061733977973
Hf 10.362054978511607 8.783654344878228 14.900866056600467
Hf 7.218211766215804 13.8852743900573 13.637191805138444
Hf 10.110627112323455 10.734803696193625 11.244120344246443
Hf 9.11736863211931 11.75817288744307 14.375817521634803
Hf 12.019719895480536 8.545058358412161 11.91583051643716
Hf 10.042041361094311 16.720811246432554 10.456239937579069
Hf 9.17349079103088 14.843604935611332 15.409744154350888
Hf 9.772931012970913 13.799348903132298 11.963333868738856
Hf 10.486937600824183 12.9810084518565 17.003733840145685
Hf 12.395630732458265 10.720071432613205 16.50119149825347
Hf 12.408246207130581 12.513164744422014 11.334459429070765
Hf 11.839038319711896 10.976807446454185 13.69704704972606
Hf 10.517672085248616 12.677916177398899 9.199138332976936
Hf 13.65801498723439 8.806467841050948 14.71314719548663
Hf 9.179199785153088 16.649840144353043 13.213137010672694
Hf 14.104299248416067 7.946564975897793 9.891477799601562
Hf 14.69802816419406 7.311593032193128 12.458244310692164
Hf 12.292865264754237 10.133800874954874 9.302692776466492
Hf 11.78443461669771 13.825323906760113 14.56388062666473
Hf 11.170065147930023 18.52554880600067 12.554421642802318
Hf 15.484724812284972 10.559061879211294 16.39389178649486
Hf 16.403580791512162 8.963464081875758 13.88323771113709
Hf 11.914802601334054 15.820568088719812 12.337271385996505
Hf 13.254421492920754 12.572848387078645 7.85788186193013
Hf 11.528387660944174 16.948681622498366 15.017942941148492
Hf 15.308324475439017 10.23862621666114 8.618470644971366
Hf 12.328518630578948 14.916559256188332 9.50836980846989
Hf 16.828556527837595 8.729963929147527 10.859278366875621
Hf 13.979018313788695 13.151247978331432 16.41202572303106
Hf 14.598021060964806 10.18644107788588 11.623056458888579
Hf 14.676796302657372 11.572893866063309 14.051071016211152
Hf 15.1025161080322 13.010570347457328 10.162764615016352
Hf 12.783855600990867 17.73235604580541 10.345724230832666
Hf 14.351749341707329 14.278463702032182 13.171707053740734
Hf 13.932585751921255 17.754385745334442 13.226080998043688
Hf 17.38524979802803 11.184328525799627 12.689228188719886
Hf 16.234198300980587 12.69425406356876 7.524955967789443
Hf 15.061853455689855 15.960132937636336 10.850731478272918
Hf 14.775489113430865 15.065500665830996 8.020706610132233
Hf 14.382693712203276 15.947915152036868 15.544713843610186
Hf 17.690369399800012 11.717825959060844 9.845285563971599
Hf 16.493320995045877 13.763781735446933 15.13710266278516
Hf 17.156513355110963 13.872040029334684 12.12500736945771
Hf 17.304544114589557 14.664519775995172 9.268916631787862
Hf 16.40134282434511 16.23591848834217 13.584186795966142
