51
Energy = -441.99778736 eV
Hf 13.515575731757522 17.89931036229267 12.529510527962797
Hf 14.568427323697339 16.850923022742524 9.889525953761051
Hf 17.317441259622512 13.409091410561429 11.414720207564852
Hf 15.346684760720711 13.965336146043065 9.367171704244955
Hf 14.688693246453495 11.39320869073572 7.868353652466443
Hf 13.5512480170166 15.590512444316877 7.621747977446122
Hf 15.521040612704851 15.52915253366031 12.3178635976927
Hf 16.86125383706136 11.196154968798819 9.78502234639231
Hf 10.862959663284274 16.56406978226736 12.249905304002155
Hf 18.040276545376468 11.359385988349356 13.25712121371763
Hf 17.603868122942764 14.119999250423875 14.055009397548524
Hf 13.92085806523523 19.570783263836898 14.971569470797679
Hf 11.750464133612098 16.963668422553738 9.377607571541697
Hf 13.037911285778524 15.421850823894156 14.143169691569238
Hf 10.841951010886516 15.260902475019817 7.289342589744079
Hf 12.885099867171677 14.662164531425903 11.099413058299355
Hf 15.04202236319333 9.098892661638146 9.515026022810291
Hf 14.9927201179906 12.847169789029945 13.408904727006515
Hf 14.07809732346954 11.676414980820189 10.64409793300152
Hf 11.564057989504894 17.9498699096022 14.836737839676536
Hf 16.862529352192933 11.987102910641955 15.762254388446713
Hf 15.616319891521625 9.879505413802883 12.384180521687545
Hf 12.403151956875444 13.110526224721031 8.61739851508076
Hf 16.8096063728303 9.160074941435646 14.855412851418677
Hf 15.551288098259944 17.325165577184816 14.545291802795488
Hf 9.946163718285893 14.732588677523044 10.045938868578077
Hf 12.995602755712724 8.279993559857932 11.374750829452566
Hf 15.36888191058872 14.620883893759695 15.89477386600026
Hf 13.647786761057782 17.116730200709064 16.61841729000347
Hf 12.29253163003587 9.965906831484572 9.051072732508262
Hf 8.154360670050288 15.420706532348566 12.195940771748376
Hf 9.116212215299555 15.802628461148213 14.772893198206233
Hf 10.483423700868457 13.726231043744493 13.178501780675829
Hf 10.801750219772481 11.940581977207923 10.737124650891882
Hf 12.824471028041703 12.855914947808506 15.704993714603573
Hf 11.238260975434827 15.410692845313019 16.647786364586125
Hf 14.315223883296472 7.7143926149063216 13.834901285096132
Hf 14.217497800481052 10.24664536435143 15.408854011644802
Hf 12.382652784245666 10.87309490292741 13.082367129322433
Hf 14.762082471827199 12.22884480597939 17.881683986378718
Hf 10.379663967763562 9.239018169794056 11.315610640403783
Hf 13.49648870148325 14.576046855182938 18.17558710445759
Hf 8.167069399508899 12.651177632200989 11.422183872599547
Hf 7.706071949317051 13.330707335889638 14.069472060419262
Hf 9.728648995153298 12.971875906480058 15.987817256384078
Hf 9.466617560224215 10.94710785577485 13.533422936300063
Hf 11.737328406948794 12.427933729268593 18.278637979434755
Hf 12.95037415383452 7.830380492572965 16.37184639171353
Hf 11.19014331678113 10.24770217838504 16.05215217962078
Hf 11.452764665179398 8.188899881129045 13.857646094045553
Hf 13.136249600360937 9.886161094486386 18.155284421542362
