52
Energy = -453.54807211 eV
Hf 12.212837041804107 17.606891378235066 11.8396849556597
Hf 9.729123268085939 16.51151364516925 10.706268137939846
Hf 12.484040947559302 16.471089243500938 9.249694110583892
Hf 12.255674654598925 13.656294205390607 8.226172516470507
Hf 7.332317746594073 14.464542834333436 11.00664268294827
Hf 7.54254545807104 16.619009792271832 12.78157803249975
Hf 9.924319602481232 17.75623206782786 13.437176869376374
Hf 11.327098520485624 17.377766859352466 15.988386503704081
Hf 9.874901726174043 13.60441920643944 9.908183537135946
Hf 14.369848087410917 17.322416597671964 14.367296964660694
Hf 14.84485189939836 14.805865409273533 8.702099772418736
Hf 11.932038288916916 15.550542762961019 14.103554953406245
Hf 6.90609338045886 14.11348608903214 13.830106250542352
Hf 14.461774439693885 12.121952308397253 7.722175091222462
Hf 12.33261583246859 14.435932272488348 11.22632903997831
Hf 9.58635229349795 14.39932099015758 12.741638875730251
Hf 14.69992566921782 16.451707634513372 11.356406705009624
Hf 8.134556938455027 11.874981553607633 12.346872705781223
Hf 12.412245736077042 10.756447567573515 9.178876302921791
Hf 13.547035582255164 15.840474162132898 16.6549777699456
Hf 8.781476778188127 15.915400933427199 15.339734826986605
Hf 11.062123756867678 14.400329785498727 16.769862837252447
Hf 9.150802701220112 10.773015592540535 9.54760702831881
Hf 14.685668195177326 14.400483606057788 13.635347437858863
Hf 10.870993799677668 11.429416775262137 11.648510738927586
Hf 16.739858275493077 14.413888651905031 11.25208622396773
Hf 14.502076330656797 12.485433150535044 10.66616021831722
Hf 8.906360572098833 9.161738842602054 11.89101465490445
Hf 12.073635925477841 12.489092639483644 14.245204598088202
Hf 9.118839265722219 12.814860376083843 15.289430339030872
Hf 16.85623065189938 12.62752153546337 8.971296193513357
Hf 10.857242796271558 8.569278006827155 10.06140837843614
Hf 16.225703901633604 15.337395581601282 15.893654743617152
Hf 13.373353347274444 10.143025266835567 12.218238690396417
Hf 10.020997279314479 10.15083913041893 14.438021481588796
Hf 15.502829052925204 10.024698329563861 9.433675522256866
Hf 13.905585717163065 13.03589025242245 16.438941435737238
Hf 16.877599177169476 16.303348806264317 13.359049792911609
Hf 17.7034325172792 13.579422939431181 13.958361120467773
Hf 11.263484086831845 11.444943156433528 16.790881741664222
Hf 15.299978355769985 11.49611404696399 14.142692472403732
Hf 11.378528480799366 7.964097667195032 12.76024888148962
Hf 17.20404006867489 11.579822636799685 11.625233175889521
Hf 13.66063910749316 7.896638841488873 10.649702207756636
Hf 16.903105602370598 12.337874685009568 16.545484954351323
Hf 12.953283016850751 9.732505249013288 15.178857963120313
Hf 16.13978285824574 9.004977253379234 12.254679561747883
Hf 14.891514000644547 10.475121139010545 17.3947201362877
Hf 17.988480193419843 10.54023399384327 14.547676167276531
Hf 14.046447454191346 7.51725473583223 13.408865633803888
Hf 15.84960741488717 8.828878482418725 15.31944479658286
Hf 17.670260779654402 9.716499564220381 17.372638358700314
