54
Energy = -472.81583538 eV
Hf 9.607214003636988 10.572758446307619 17.315672975322812
Hf 10.690734838130904 9.984888722102816 14.755917025532481
Hf 12.461580806963342 9.152769336994298 16.846170915232175
Hf 8.066537064596135 10.514011606476927 13.893508345045777
Hf 10.12080367648616 12.134007913898742 12.476440230926498
Hf 11.84849699813085 11.062965839297155 19.048755228106682
Hf 12.650710573011395 10.693918363028294 12.358234720730014
Hf 10.135931133553038 13.24776827738277 18.191035502823905
Hf 13.076363425544796 10.15559364466725 8.122757692308697
Hf 11.97573150898179 12.125883142457678 16.348905127166592
Hf 7.575280205539979 13.128831252739758 12.459505950336759
Hf 14.193651472296972 10.695897949573112 14.738418668118102
Hf 14.590322230576962 16.682131649998702 15.899835899653327
Hf 14.422433806783843 11.020254518392907 17.712698509240106
Hf 15.89941749388755 12.790725402821073 13.399637648487786
Hf 11.730454481515123 15.053004820511303 16.30207863282562
Hf 8.899168537494086 12.671976137531525 9.618008176055282
Hf 15.198018356975489 12.604064067113104 8.610930798861984
Hf 13.009797885644634 13.603710196925341 18.599712555680547
Hf 18.63286763754074 12.59863702675345 13.692577514333854
Hf 12.320369103886085 12.30881486730733 9.671048852617263
Hf 7.946143473364015 10.579344297743868 11.139237524424239
Hf 16.85808371117598 11.53295391671369 15.836213465507837
Hf 8.902067474836477 15.48545945382045 10.38065200744618
Hf 10.161432200532829 8.891892758682438 12.281444279019611
Hf 12.228759026677622 16.760330243319235 13.968664985229191
Hf 9.166268991499454 12.753710992438187 15.326371354375185
Hf 15.367040698390143 8.504307929178253 15.59177121531217
Hf 10.451321254955072 17.456025191445953 11.801544415367971
Hf 12.469459368951687 13.666832672277476 13.768338992337851
Hf 12.739181666345736 8.035376243160682 13.992451458323732
Hf 11.596780966681356 14.873977771055042 11.18939272920596
Hf 10.549327291632377 11.542848839097022 7.461837118315121
Hf 10.39897019242512 9.805526316980023 9.607702541420121
Hf 9.796192047795994 15.084374856094632 13.514309512508706
Hf 11.22894399884123 16.94404902162735 9.195551248308856
Hf 14.533808237167243 18.45773654397578 13.55128956292334
Hf 14.391751349613326 13.488620978901384 11.190797717828135
Hf 17.056972842875265 10.100467289500749 13.433600081510194
Hf 17.1421264564939 14.688182388132997 15.29959102714646
Hf 14.984358638329558 15.654407586409098 13.191191598263698
Hf 10.639736151641042 14.429266774792058 8.025229930231989
Hf 13.46314002342672 17.20396641642799 11.046548600573724
Hf 14.482217979659424 13.703062408846472 16.01159260129286
Hf 12.786205153768714 8.46725889150181 10.68385133347929
Hf 17.05194745671546 17.38916669357191 14.301924740016604
Hf 15.004572729292578 8.411981530429758 12.647268482060555
Hf 12.87910784393159 12.898076628078657 6.879999636466597
Hf 15.131461470199481 10.579999281196134 10.73491414868986
Hf 13.516161856533913 15.097502336803704 8.70531371238127
Hf 16.333822320265963 15.240211267339589 9.897280492411076
Hf 17.38886874973973 12.601674302957113 10.855990318841894
Hf 16.423960464842867 17.65384508678496 11.58248781904387
Hf 17.837683050474272 15.134825228620105 12.397515711880283
