51
Energy = -445.01073424 eV
Hf 15.600150263674292 16.159554721004262 8.550382539977782
Hf 14.828015268056543 13.826085379264473 6.892642483623527
Hf 12.82076244340229 15.609073144331758 7.143089586882727
Hf 12.923853542525501 17.276074785956194 9.34069078914912
Hf 16.534561264670845 13.361762330648698 9.052794323610877
Hf 14.793623887185992 16.936219777798403 11.447790939773277
Hf 16.77878948679595 15.00226174113541 11.231306031833649
Hf 13.705785823820904 14.392188351391937 9.634425011710487
Hf 15.94873650875508 15.668980693566635 14.172511631376437
Hf 14.650720488044156 11.354706889553961 8.29271625491779
Hf 10.782312821482872 15.280634088238214 9.040576273107007
Hf 12.064012293356683 12.793537023031398 7.796543354861287
Hf 11.831659668787282 16.25655369559041 11.87376391917263
Hf 13.297646331076804 16.868075923332125 14.431926207477463
Hf 14.257660713975337 14.180960826607988 12.427867736055997
Hf 15.986591785022098 11.551419245726827 11.41951633079173
Hf 17.02749163361351 12.936175798141072 14.027347657939565
Hf 16.736944875803232 14.306641464714762 16.64411418024651
Hf 14.810138486869848 16.312908518666816 16.838660904777257
Hf 12.101486796285213 9.72144411725303 8.63716223250822
Hf 10.459893481646054 16.789244650419526 14.557648209808553
Hf 9.657276451902543 11.317629746994756 9.343054902260828
Hf 14.61998786077615 9.085451823735488 9.925580984305292
Hf 13.992706034058537 13.783106827383012 15.684082354193746
Hf 13.231555993202976 11.461472695724709 10.853896963887998
Hf 9.025133845217548 15.009392991936583 12.738921523964274
Hf 11.087260380834474 13.419060025663908 11.050294374832191
Hf 14.448766040679532 11.621233352279038 13.907775769160846
Hf 16.66505108317552 10.027885897743362 14.080397403970348
Hf 16.01090436357174 11.541615206978996 16.596052120271693
Hf 14.349312279224234 13.812995764770637 18.35301222029575
Hf 8.042069265885333 13.089451654822604 10.891506439150216
Hf 11.959372292303263 15.745631466675308 16.84346532244426
Hf 11.678256548114334 14.230548116460218 14.04901369284013
Hf 9.57446313758634 12.158132187952106 13.155794484808721
Hf 14.21911808113586 9.017749763400932 12.678082385975225
Hf 10.911567800610598 9.920865806909807 11.784271440665647
Hf 9.65279948707368 8.501429874925996 9.604597289868396
Hf 13.336763606670461 11.161476794968411 17.493529339077984
Hf 9.163612116610489 14.352002162153688 15.598179427608748
Hf 11.800309467134392 11.080788886147399 14.762108178536415
Hf 12.209718894341078 7.555914174489154 10.823155173599819
Hf 14.167545698572491 9.165214419475827 15.693746734283351
Hf 8.008248437264683 10.041056144705278 11.525009681077108
Hf 11.355287861316835 13.00240892548743 17.25180166985782
Hf 7.170967586842522 12.782452856694015 13.846642626170677
Hf 9.074810250554554 11.522220586064524 16.156521639982333
Hf 11.829394483419584 8.049404752036828 13.981190700440896
Hf 9.538308689366406 7.461965600622253 12.178182445364344
Hf 9.297354307280077 9.41899081458132 14.314918948040726
Hf 11.184398953479228 9.251317666827388 16.698393588174035
