53
Energy = -463.20343379 eV
Hf 9.7964574667459 14.449476100689495 16.516481446996487
Hf 12.474695522371984 15.622095677208534 17.106718215119116
Hf 11.196884878539874 16.006313523130313 14.499164107071184
Hf 8.603117204298005 11.339259925613876 15.315514972538638
Hf 7.72492195781979 12.386084376256774 12.82373272756082
Hf 11.53549301644048 13.12399188451851 18.466964196980893
Hf 10.76725365999242 13.054991729487153 14.332135282537651
Hf 11.033091212884553 10.641580808190866 16.78849304617922
Hf 14.101419812056431 17.39772274459909 14.663227861388282
Hf 15.331556542905828 15.091099720728234 16.192068852950378
Hf 12.316308146586703 17.340229965962145 12.19499056993499
Hf 14.252772969124152 13.839985404473902 18.542163276826845
Hf 8.79011018756166 15.072450023379249 13.27938790405911
Hf 13.18765339063747 12.948013547135243 16.027818225446715
Hf 8.26670308972238 9.505131236671245 12.90521433469484
Hf 10.181296025672763 16.472454424070722 10.332144895083843
Hf 8.36734366107885 13.99178993860506 10.586906117933507
Hf 13.572653201582298 11.048179216764863 18.192959861008692
Hf 10.215717272425625 11.658918223607815 11.297872571265295
Hf 11.089653508485851 10.116378987715766 13.998131228543002
Hf 13.70991453296195 14.897140631777594 13.577347293138507
Hf 11.253053744759688 14.368832935228703 11.796445448146555
Hf 7.74105692644559 10.979567219979527 10.327339934133862
Hf 9.248986098300335 8.580721664582134 15.529929691872718
Hf 13.024863857573099 18.108691246548254 9.517476428718494
Hf 15.091599900422858 17.532052813098414 11.571210721426041
Hf 13.455210449655512 11.928627108761512 12.845570210255309
Hf 16.59708701476838 15.8991957904792 13.581942541849513
Hf 12.928597274338868 15.474435763335986 9.752736157432707
Hf 15.62331796728533 16.36145160866232 8.86351174835449
Hf 11.97076213706631 7.977229208921853 15.733927838128185
Hf 15.83263279623902 12.121600086062076 16.852209881691294
Hf 17.599106264937173 16.209205213808143 10.906217348259764
Hf 10.619847702418628 13.802411619962738 8.84357386353521
Hf 15.325406782858506 14.426670621779802 11.131926682394694
Hf 10.586592393271292 7.370314371065402 13.121888684848757
Hf 15.847554566939715 12.854265584019869 13.95354007783622
Hf 9.761107087020132 8.687359955643037 10.393027273321996
Hf 13.903136150569557 10.145301384573415 15.355323270831569
Hf 10.003519954422297 10.8688814896929 8.423738994537208
Hf 12.38672062126738 9.753152883513073 11.353211770090638
Hf 12.874018984244682 12.213992349386054 9.842754581159832
Hf 17.381541778555743 13.843814393993112 9.26219195443467
Hf 17.938802196499193 13.573527484229778 12.00222282786959
Hf 13.586756115058314 7.858092691129384 13.285571849436074
Hf 14.719527461836375 13.575490056434754 8.171566937956653
Hf 15.76133725382497 11.640322053840055 10.791630269645935
Hf 12.353651647223808 7.080764134712201 10.745204305768821
Hf 12.378041605468624 11.745892427841872 7.097267178224812
Hf 15.71223908431452 9.885762252144302 13.074708935084624
Hf 12.28390445245007 9.102247166189887 8.525515781186979
Hf 14.821356479302835 8.706657007519823 10.472274897534604
Hf 14.763007175473643 10.654494560091194 8.203481306947296
