53
Energy = -463.35885012 eV
Hf 10.61977202984718 8.30386748711019 8.619713724188616
Hf 11.108790747395922 6.471799191531306 10.797930922925792
Hf 13.278120840162197 7.7375606740793605 9.545704680689603
Hf 8.786079817650014 8.207578577469052 10.774599992624879
Hf 10.605542458576512 12.389294847827799 7.421670934032778
Hf 12.715312205766917 10.344686772454622 8.397467689917562
Hf 13.239496850305757 13.06705584260673 7.132573267056453
Hf 11.45700560927788 9.376474147543766 11.22529613263906
Hf 10.17217696993235 7.524120174528221 13.179546680033985
Hf 13.210357057294832 7.589566347783639 12.553576173337813
Hf 7.408857814972594 12.116644682741557 11.159162482784126
Hf 9.58949790102639 10.965505808157982 9.688630925420151
Hf 11.369685313616602 15.18456475692229 8.236045272399071
Hf 8.681057521105682 10.066388029866644 12.994779382334535
Hf 14.600421247545837 9.909655929001111 10.85842894775517
Hf 15.220968287482927 12.581080297472516 9.058049658810793
Hf 12.216804025878135 12.662883015863233 9.796257015388168
Hf 8.897313570319113 13.909405172975285 9.333565115581822
Hf 14.408882601632012 15.454061677763317 8.380397223793958
Hf 7.575663101487868 12.766136768612293 13.856791816808986
Hf 9.669620830313828 11.760905893068704 15.390485752141057
Hf 11.735832573075117 9.616717692536708 14.560725082156134
Hf 12.957967980304655 11.8686952228653 12.562333584696116
Hf 14.669633448800708 9.904905730358193 13.833471191962925
Hf 8.178886870229201 14.969738379377706 12.07549381500659
Hf 10.023469787680968 12.487697328542714 12.429384984876599
Hf 9.44301661325744 16.679212514840724 10.021852253745399
Hf 11.14785502864844 10.584214002950265 17.470318409800104
Hf 11.113825855516557 14.90244986480116 11.305437223403132
Hf 15.84335339946913 12.565945209074123 11.876070547125645
Hf 17.580113516449444 10.957225121532977 13.571245595094004
Hf 13.960607751367412 9.960438337858339 17.013929748925445
Hf 16.59762905486268 10.095833818342378 16.02316876984657
Hf 9.903811484058368 14.602123497756187 14.567233594593912
Hf 12.616447553584024 12.170823594503927 15.630448838263614
Hf 16.63158984372112 14.883017034810461 10.2258176902112
Hf 13.916105912327277 14.834171068169404 11.12876930656452
Hf 15.482769875517576 12.657784880930292 14.81290113425991
Hf 10.396447583957897 17.097577731516704 12.800313488715721
Hf 15.22695214760446 17.30164533670582 10.66417607497482
Hf 12.283978525184592 17.38941372144892 10.179124664379101
Hf 10.922631694549718 13.79465399962137 17.28950766535408
Hf 17.936107929066395 13.787352328970966 13.650537074674
Hf 13.050345576018502 14.677502555606786 14.116730065370431
Hf 13.019878803111936 12.270056058994642 18.556167318687205
Hf 15.736897701188965 12.344246324012481 17.751055920241658
Hf 18.123066589355936 12.394353226677385 16.060964049761587
Hf 13.31402746410235 17.27188698222952 12.912102269772998
Hf 15.867721698098835 15.655487025594553 13.124888407162386
Hf 11.737126316123744 16.557301131901514 15.82535767313095
Hf 13.78725615917797 14.751310700585394 17.244520172032374
Hf 16.61860366311317 14.922063139893998 16.146003157905902
Hf 14.501415158283914 16.884002623973416 15.475587602857379
