53
Energy = -461.27631867 eV
Hf 13.50217318398945 12.197500004238632 8.342959578667283
Hf 13.626545337390379 9.430757164976132 9.46882785174724
Hf 16.201073779997305 11.26172984221636 9.37096257516657
Hf 10.973736211086587 10.912041990885694 9.393023083079964
Hf 11.22613942119678 8.437465861423787 11.103140319049281
Hf 18.529810545664407 13.072966486512183 9.091729787048306
Hf 13.923841718404313 7.9636473510863715 11.92675684013968
Hf 10.797653790969438 13.20191788043158 7.6957513645609295
Hf 15.9245633025162 14.010809665982197 8.409644372532169
Hf 15.751025512763404 10.237823759066055 12.170713999641025
Hf 14.575457671056792 13.167421926618964 10.965731708320554
Hf 9.599139623999413 11.160377616240414 11.91507907564103
Hf 8.856348763948956 13.28483525402695 10.090683533478561
Hf 17.471177513105555 12.543495521726458 11.742243662719103
Hf 11.73527060687802 7.49157726082312 13.890280542055304
Hf 9.977115190818907 15.57795611004188 8.815193248242698
Hf 14.186235509073061 9.312898931321183 14.53846679278835
Hf 12.836638979832538 10.723715826428515 11.861244806870726
Hf 17.313471091194366 11.904217590599902 14.43853135276403
Hf 12.858050321607912 15.176955961459338 8.093255618291973
Hf 17.284022831798097 15.164655285164697 10.773254531005952
Hf 9.096740901318121 8.608253775758968 13.018514174428141
Hf 14.294291738482814 12.152157719782089 13.966165256534552
Hf 11.189666786961546 10.309430663669437 14.436638378655571
Hf 15.66286320185189 14.670930018221364 13.299056615620767
Hf 11.694076442490806 13.755690445673473 10.349293705989016
Hf 12.19446013327528 8.685397883715885 16.61634352301206
Hf 18.29234705743404 14.741475094907305 13.8851223856626
Hf 15.436981813697713 11.231030994217022 16.560014709051835
Hf 14.818113392939502 16.33080166469723 10.098760759106405
Hf 16.31249001216047 17.3632004851241 12.601945007911812
Hf 9.715223630662594 15.902251063005993 11.65283180595238
Hf 11.905942542178897 17.287542809905936 10.0899027001351
Hf 11.466249495587794 13.10896823100534 13.298546330269458
Hf 8.377996483246337 10.921496670924192 14.76680237266828
Hf 12.641729978732615 11.728373289279824 16.66277823803323
Hf 12.947191246371435 15.717898449530324 12.414769277080993
Hf 16.49183742111377 13.966999150355699 16.257837797450758
Hf 8.66495141554686 13.757634992745691 13.387986516962483
Hf 9.482675813061997 8.288467294381602 15.667546313109153
Hf 13.479285748506237 14.50124363595504 15.347717640628009
Hf 16.651831053393963 16.6488333596666 15.34241366698284
Hf 13.851993947615789 18.497321882865023 11.80863351106713
Hf 14.169472191513961 13.577774333171593 18.280554071193347
Hf 10.06095645195678 10.517689088542495 17.220961923374826
Hf 11.349596410097265 18.062921841627247 12.880693506373008
Hf 10.711174542082412 15.682156159339074 14.437880069887237
Hf 10.092097446951879 13.183925471953852 16.04021968328455
Hf 14.630347992494865 16.168498394583104 17.45481315580031
Hf 11.405070205112306 13.074493318405056 18.963624800596975
Hf 13.912582690555022 17.376213220638682 14.580827159315142
Hf 11.795368151772385 15.384656712182704 17.42823783316244
Hf 12.869523512611064 15.415271638474527 19.92229445869437
