50
Energy = -436.0223251 eV
Hf 17.693743749243563 10.286955736717744 14.260750879306745
Hf 15.657896377149886 8.201226739718072 14.251524693755284
Hf 17.002530555950138 10.214134681132961 11.610176811497956
Hf 14.742772689405687 7.898672314982779 11.212975423790645
Hf 12.168451954267987 6.649031898994441 10.60247498161685
Hf 18.432889066194623 12.750723776037981 12.761119461391862
Hf 12.822500579812658 7.287346113738987 13.356710370543425
Hf 12.928749144334182 8.638487036053062 8.701336894107277
Hf 17.677290350446256 12.574572877875068 15.722255657814149
Hf 15.371656703165954 10.77114872129459 16.006274443166884
Hf 14.650771033841934 10.47487727437838 9.938670044403844
Hf 16.31195116454049 12.830288210642133 10.307500498243801
Hf 14.289943392748953 10.219979718429203 13.062432882207649
Hf 13.146438228720735 9.088050187694947 15.606409576164959
Hf 15.823457264348987 12.640714179571356 13.501315702665956
Hf 12.020429920141662 9.503498912493288 11.39353768268149
Hf 10.009075511157143 7.4898947338189 12.19900647125433
Hf 10.231023997207007 8.432871396452994 9.45222916475042
Hf 11.489164106777471 11.375321942802701 9.300676593672613
Hf 16.333485028462995 15.252667380919219 11.896401674855433
Hf 17.480390035797498 14.967908282826905 14.460270261991763
Hf 10.826824378255473 9.617925910712266 14.131824805824236
Hf 14.010881340377265 12.697342552111971 8.34079790519357
Hf 15.11047087427645 13.983621206618029 16.117110307410687
Hf 12.820516613953894 12.049837978928977 14.69692000543301
Hf 9.175746455049499 10.23135468746032 11.493494041336369
Hf 10.807870531847572 11.301904995311393 16.58603996678511
Hf 13.444953352145443 12.854546220711491 11.185905452477451
Hf 10.764129280718628 12.302282066353765 12.289284482994443
Hf 14.435040369130705 15.240181257958191 9.555498089573481
Hf 12.05440301696026 13.868517493273153 17.122174712827768
Hf 15.248243548753376 16.800757670310677 14.332289903556449
Hf 13.595974075549053 14.723252703643412 13.573487336585632
Hf 8.701900244706195 11.754579844986662 14.758092202109397
Hf 11.677897616712675 14.392147414475092 8.573020270006584
Hf 13.266517753501846 16.197371896797105 16.2958896967874
Hf 9.199788181066634 13.487768130267083 9.864263294336919
Hf 10.627038039325077 14.21286950491263 14.410128730339874
Hf 14.005787268704587 17.280140794815626 11.673851015813407
Hf 9.196652402646103 13.64514774956558 16.936178869075224
Hf 11.454518282497128 15.37933135884269 11.454410915648083
Hf 7.772369723419703 12.706988181171072 12.344524502163274
Hf 12.367557893777839 17.105940711732245 9.230489138214688
Hf 10.347078114636828 16.268446960298906 16.23589023023559
Hf 12.193927080651378 17.51248577274452 14.082755277026171
Hf 7.845836894450551 14.686184203134973 14.619029349091772
Hf 8.219386352775318 15.242515899798345 11.799656712021754
Hf 9.631321314559571 16.505569016770135 9.659695127223982
Hf 11.271301405991379 18.31479808605494 11.445554998755828
Hf 9.467381033741546 17.036061374804092 13.398299601954179
