50
Energy = -436.05731042 eV
Hf 18.19934656476301 14.314431486217869 13.643491293238633
Hf 17.10892209094024 12.45701782239873 11.480107657596516
Hf 18.106907557372907 11.539763635460407 14.220958159017194
Hf 16.188050108972856 15.240783201958791 11.941324482369177
Hf 14.770752079364001 12.800026628415397 8.39114761433575
Hf 17.34495456772672 13.454525178918978 16.203992771897852
Hf 13.764416608942325 9.963860396057978 7.6340410533546565
Hf 15.010464973029972 10.451504630919155 10.258071106377963
Hf 14.43109662331345 15.792080032327124 9.663077244885175
Hf 15.84059419335494 15.758683068724457 14.853302143979562
Hf 15.968285826877048 10.042579203394235 13.13853207716147
Hf 15.641987546469522 12.973511113426934 13.935176587740465
Hf 14.153534571774333 13.124929963893747 11.291183547826007
Hf 12.50865002523837 12.277438896454454 6.577793235455141
Hf 14.430004162703742 7.988852782494688 11.862759158732084
Hf 13.901423702408675 16.902426786209418 12.310575091416249
Hf 15.762460112187062 10.924776042489412 16.018738198905123
Hf 12.230841097545639 14.638198180428814 8.300855490923194
Hf 12.317379099819197 11.67274226416205 9.385387739235606
Hf 12.153391651619746 8.803797193515262 10.023667256018584
Hf 10.907215146731806 10.03474575071561 7.436691895536209
Hf 12.992361182390669 10.394756558586629 12.358501252004444
Hf 14.533898008972264 13.796763846939061 16.70040242723332
Hf 12.04696672402949 17.27499043610133 10.033157836016514
Hf 13.057627231332479 14.5853100456845 14.061651263199098
Hf 9.807677059472717 12.809392181166448 7.588632882634378
Hf 11.825139153527644 13.829773629817014 17.11312997745835
Hf 11.74497434194929 7.542977901532699 12.750545898345349
Hf 11.779305681989978 14.901474208355625 11.32064264147043
Hf 13.82156403281837 8.870917249816756 14.757835681975305
Hf 9.617753378782119 15.419167386615376 9.303197549956092
Hf 12.772361753278993 16.363055633537424 15.982521258672865
Hf 11.243561792478229 16.950425490310863 13.253957115418283
Hf 12.87459148689464 11.790644533750623 14.909452678854274
Hf 10.006811596126575 12.888747393729746 10.486780832509112
Hf 10.006947351117303 9.993626933928107 12.237498573151132
Hf 9.49293556709791 7.655603491730452 10.741294269025413
Hf 12.798071534372669 10.97481717093751 17.346752411798647
Hf 8.833058120465182 10.49726200152458 9.553745883404616
Hf 10.41552436575769 12.674637863807105 13.401613162702256
Hf 7.5194024507982276 13.315733275500774 9.5076655583955
Hf 10.923670310519197 9.403328008466474 15.111629558731124
Hf 8.981151311256214 7.719681285608509 13.61860540385583
Hf 8.729335752087728 14.812242667484115 12.204381475077984
Hf 10.157411751964375 15.013213096567203 15.125124233949828
Hf 7.312013259690662 9.151061679158095 11.783485414628368
Hf 9.955930830725746 11.91940892643687 16.201703540927447
Hf 7.411724790839926 12.044663635839449 12.077387104133015
Hf 7.991068699186174 10.32522330795988 14.452795845774714
Hf 7.8608324350213294 13.254463473831528 14.615397411042222
