50
Energy = -435.85908711 eV
Hf 11.119952970650791 15.653154349012043 9.072349061162218
Hf 10.458676226447976 17.36630190514434 11.15053336655236
Hf 9.851690260353141 12.225590239566136 8.746740582588375
Hf 13.196792954276274 17.74187923411003 10.170587342264374
Hf 9.787176211432419 14.319469319254553 11.142943092662884
Hf 12.611512713785569 12.612315445635389 7.388425620703625
Hf 13.652380689328469 15.473464243700622 8.333656000212283
Hf 9.420711891692024 9.245640987238712 9.160299393419473
Hf 10.921368664922953 10.31248003396318 6.837175766842709
Hf 12.490356726189498 13.18974524202961 10.034320449479072
Hf 9.531310999740494 11.212789765491724 11.392492115139454
Hf 12.375698896138218 18.018328784696262 13.119528235158747
Hf 10.279710557883387 16.150339825317033 13.77991070721179
Hf 12.725570311374799 15.425268080025035 11.772642468319358
Hf 8.792866724851429 13.695482528552064 14.031607374866784
Hf 15.334426211453241 13.373723923296122 8.624556701639094
Hf 11.998748003914566 10.277159846749514 9.569909345484549
Hf 11.771338354988435 7.8785846431131175 7.981157542191764
Hf 14.979071485045793 17.3834114212351 12.457234838855015
Hf 15.068686222856563 10.929986222123308 9.675714536348082
Hf 15.664492521626146 15.62576631757278 10.383749223187088
Hf 11.524780176569582 12.642907351465245 12.852199961986832
Hf 9.042692090124474 15.521773094915606 16.34273917153394
Hf 11.611625997825607 7.678581299127682 10.822656832931289
Hf 13.763822167696269 9.830828103165073 7.222350667482765
Hf 10.619141787495202 9.064526259698967 13.101973252221157
Hf 13.78434689137481 15.829477240429322 14.652073468377747
Hf 13.421791923550883 9.944050470237652 12.097987462912828
Hf 11.515466655785724 16.763150368113585 16.367271312284213
Hf 14.670388560675724 12.806100843511972 11.906226734087188
Hf 9.340792248891335 11.036893969686446 14.827290269786747
Hf 8.819433450065766 12.884127594826905 16.931548089560078
Hf 14.334099762733434 12.757173684972516 14.78513158209942
Hf 17.27083886483042 13.057828077025052 11.035013541204787
Hf 11.395157628336166 13.847432646182162 15.649565651390235
Hf 14.127155543098757 8.223768217556085 9.674590840886381
Hf 12.32971258488749 10.742290070131007 14.789117726420448
Hf 16.324454166431515 14.889467963321605 13.24631286595732
Hf 16.444761354122804 10.349045559713261 11.997603090021759
Hf 10.777795597169378 8.782108265450331 16.01908102221922
Hf 13.047879669440784 8.032559401702866 14.369337657782971
Hf 13.569795017794267 15.393300288078159 17.49957233421751
Hf 17.15719017285869 12.236830992484556 14.09399161081957
Hf 15.95749109522209 14.237999051443369 16.383400643786523
Hf 10.966463189193123 14.364830548924456 18.3464494629992
Hf 11.065358221557736 11.27629426945171 17.54446939906699
Hf 15.421869121625935 9.776663470084676 14.576875489910993
Hf 16.071718559264674 11.39196151338356 16.738333429641578
Hf 13.665516833089903 12.630395916931308 17.808966852737296
Hf 13.618808703357306 9.63247200345196 16.997920443562773
