5
Energy = -35.87055297 eV
Hf 7.873993534772469 9.57468415127801 9.139125205744266
Hf 9.196519056532104 7.135243103936296 9.174593633857295
Hf 10.41833171438546 9.43031261414868 8.215935010101132
Hf 9.922577746643691 9.196378590598346 10.871675585370566
Hf 9.627660810742002 11.662778217089123 9.656237341852613
