53
Energy = -463.77826813 eV
Hf 8.627218819029814 13.4167819469023 10.569004910607442
Hf 8.65885330261515 9.37609025974071 13.50896565329297
Hf 11.141078431730174 17.140361673739594 13.434345346274117
Hf 9.537611901843572 8.466781362948142 10.70439450535007
Hf 10.413681180694239 11.602058530770348 14.877372501941295
Hf 11.38671269751104 15.025600495377738 10.511614247209465
Hf 13.136950448934572 10.819679831874591 10.84549746599641
Hf 12.439614568705299 12.905758628189787 17.21073053449363
Hf 9.920348077387246 8.821608747186655 16.085892898050947
Hf 8.99366560754485 10.849268889501642 8.889103723905212
Hf 9.572606260300326 14.772424644721868 8.243406072040397
Hf 13.45145025567598 16.857078634707044 15.215330263859515
Hf 13.975576692804012 18.080684051933147 12.612834794268462
Hf 12.361480461686382 7.759791678801792 10.994251529848253
Hf 10.810054031045983 6.9437921057965255 13.544280460871192
Hf 11.710131737863689 18.09921131546131 10.891777133890063
Hf 11.263293114703433 12.44659738905738 8.96015404399398
Hf 11.556382171380928 14.658871533029995 15.115731601928479
Hf 11.73233014494543 9.434974350432206 13.529721433959192
Hf 12.441957672183982 9.980195367636245 17.264073065508057
Hf 11.661677895847797 9.396761623329612 8.745887661870235
Hf 10.137107891586888 11.161277512707654 11.55009935591978
Hf 16.146512940603394 11.364899046772242 9.650651845879887
Hf 13.807161762255022 7.379686039607469 13.412881888307217
Hf 7.4059126307590155 10.501975692276341 11.12905595316135
Hf 13.831806445220987 11.460839796981576 8.035912042572559
Hf 7.6671409398085055 12.376148907356752 13.414051538531485
Hf 11.082721819391494 17.101763281497746 8.499912959719353
Hf 9.138642994432534 16.598809899222722 10.710045683181455
Hf 15.295016320926035 9.811898991615248 12.503130014366954
Hf 15.836803570379809 14.239694954093045 8.282240643153896
Hf 17.817561987496646 11.399352153893146 12.14109584590389
Hf 17.638926192735028 13.619777588293072 10.478908520453803
Hf 13.632110831891907 11.364144012488229 14.668208706513386
Hf 14.549609101361915 8.839253746565745 9.410250262825969
Hf 7.833701663341463 10.91150079260355 15.89162508990878
Hf 15.342741879740831 12.855013738449246 12.450155142576648
Hf 12.489616389149024 7.534131910564347 15.829929833630985
Hf 9.577960815588137 14.529261176078156 13.142294739947522
Hf 14.077015007356593 13.689504984549888 10.09227574473393
Hf 14.96176248181368 9.01204388543818 15.668127974776631
Hf 8.709098951573438 13.665169310221 15.916793498195977
Hf 12.587237856597596 14.670204277292688 7.734833433787935
Hf 9.92798745109453 11.493601623576271 17.68962284139406
Hf 13.851925035466776 16.64977543625081 9.424635229931694
Hf 16.48708109472601 11.561657679312434 14.74433447966741
Hf 16.160522988791477 15.875417858739631 11.178887676449559
Hf 14.705378573192593 14.035452159589063 15.403070932422109
Hf 17.60686155559953 14.194581151762634 13.302522488457969
Hf 14.895773304719762 11.528385306895725 17.214483983601344
Hf 12.067801547496842 12.896984935604877 12.752113955048882
Hf 15.931278532414424 16.467946550140102 14.040672814837688
Hf 13.55818575025786 15.353422801080317 12.73989620672127
