53
Energy = -460.13547372 eV
Hf 14.538054530876046 7.711611791354035 13.917099500641813
Hf 12.035188848856572 8.002036600726028 12.579639523551865
Hf 12.17465802857201 7.717097438373855 15.402219173010458
Hf 14.47490854165699 9.759830118171962 11.718324532645426
Hf 16.54494508910177 9.67681237187759 14.506592670240037
Hf 14.449977346728037 9.19036030097953 16.508584302762863
Hf 16.279401568234473 11.703125029014748 16.497354138373787
Hf 12.981870595651918 10.237587165871878 14.213849992408104
Hf 17.95490910815414 12.357021850828263 14.184868698871366
Hf 15.948354750207592 10.53547705641249 9.317648449390983
Hf 17.246610926344573 10.420302227990856 11.895129890458406
Hf 10.94515268376075 10.479712098354216 11.546370215421256
Hf 10.183153413402149 9.597737922116911 14.230044216682453
Hf 18.54441547918082 13.295315847026618 17.010522763387076
Hf 15.059604548837553 12.951599457066607 8.16356010755114
Hf 15.737664749187172 12.846354051292966 10.939549691030386
Hf 17.50190907637149 14.893304226200538 12.512589314102465
Hf 11.578824975072843 10.09110181729481 16.854333805016957
Hf 19.279723241670684 14.839464381753583 14.853375500131303
Hf 15.1336875327867 12.288706068202162 13.784677188166683
Hf 13.629169721532152 12.480216062942278 16.565024523251147
Hf 13.210468307022838 11.485730447467034 9.820580943203895
Hf 16.151527888524434 14.082747472492839 18.368765190587453
Hf 16.279270395484982 14.585592197330017 15.409288360827482
Hf 10.517596279447632 13.076652541257943 10.198693144004743
Hf 9.316776641591266 12.481578872414255 12.784460413246785
Hf 11.440657018856026 12.55315451563936 18.291508830148576
Hf 12.354158463379333 12.9643639773991 12.524410097332732
Hf 18.103670708773187 16.07101440018029 17.216391352875544
Hf 13.370996123903403 14.390386486997215 9.975387144701449
Hf 14.471840350507872 15.444215614286266 12.622890735369475
Hf 10.872295940599919 12.415241987059282 15.286710344493345
Hf 13.231959381288634 14.874688959773266 18.42827536111461
Hf 15.35213357249356 16.795725755263508 17.605410301234397
Hf 17.89123312503691 17.253981148371366 14.547092637885
Hf 13.00527699913214 15.387736999671818 15.322843551057863
Hf 15.978652617338327 15.616044919416247 10.042042119279726
Hf 8.65524898113526 15.008919056641696 11.54614597976843
Hf 14.929984691922943 17.92317632521836 14.922137700689925
Hf 10.65410284968627 14.989076682147486 17.028877979655856
Hf 11.39190286222455 15.681744457124609 11.28464289714953
Hf 10.306389962242575 14.991422832460604 13.95875752800366
Hf 16.340276798050077 17.75346842173394 11.949891781231724
Hf 12.307457624063332 17.531080476232987 13.239212658857454
Hf 17.015901106770357 19.219506208884667 16.548403021999352
Hf 12.36568386322111 17.447178161635023 17.454973500087686
Hf 13.773262889553438 17.456445963320864 10.586894157378927
Hf 10.428463931292836 17.411475641440962 15.471391708780384
Hf 14.2167655742116 19.7684965147394 12.750130460467371
Hf 14.375650797041615 19.520308550194194 17.53224744703497
Hf 16.94357335092704 19.87287102731377 13.746660707054067
Hf 12.452124268086513 19.576244369351365 15.32311108860091
Hf 15.00167170447842 20.96453842735894 15.30852442945373
