6
Energy = -44.31388862 eV
Hf 8.099556969249145 10.614971396563252 9.302149887823726
Hf 8.211657586361067 8.092395495690758 10.464557276787561
Hf 10.26345982183779 8.98064550527383 8.836582625228864
Hf 9.884741294313015 10.110652822884562 11.337051241107435
Hf 10.580493908141525 11.690402413468398 9.197400114745657
Hf 12.430052341492024 9.917552904685142 10.274818455429083
