6
Energy = -44.31389514 eV
Hf 6.872531633248246 8.143754898731776 10.13207545413973
Hf 9.573621853801193 7.819206097262261 9.648973904874008
Hf 8.075927621636934 9.516872340658196 8.055977686554428
Hf 10.218113429201633 8.14532659655058 6.982106605655196
Hf 10.635273459984662 10.20623204461852 8.795964544034739
Hf 8.659231780560685 10.208409940263932 10.651813512939809
