6
Energy = -36.91951459 eV
Hf 12.072912536347527 9.949422485651601 12.555145635635263
Hf 15.982593323300916 16.4050160598296 12.354441557913102
Hf 14.49334929416208 14.70758625956041 12.09443804371901
Hf 9.644519540253485 8.974956011189056 12.954425241927769
Hf 12.452252228170032 12.584142989066246 12.085499748767516
Hf 10.006028780616502 11.551941976511628 12.468260724058435
