6
Energy = -44.31480594 eV
Hf 13.99515013691771 11.175773719814298 12.668026718577366
Hf 11.371939189766515 10.91156940326607 12.048358992499256
Hf 14.586446503938163 13.849033157762024 13.142563336031953
Hf 12.146820009863804 12.793971730348572 13.898024385274764
Hf 10.139062889132193 13.406761666533013 12.107472368910956
Hf 12.742261969056427 13.143848234635284 11.214238574967267
