6
Energy = -42.79159581 eV
Hf 8.729149 11.318961289495373 9.085346125099107
Hf 10.150630468587485 9.364180779614955 7.888268929508149
Hf 10.085778216585075 6.80446362696731 8.647907452774467
Hf 8.729149 8.718643897340224 10.21719511033529
Hf 7.372519783414932 6.80446362696731 8.647907452774467
Hf 7.307667531412508 9.364180779614955 7.888268929508149
