6
Energy = -44.31381425 eV
Hf 13.348446965807902 11.52068032116822 15.007158616058216
Hf 12.527209449022816 10.916185338204842 12.420503771172518
Hf 14.318987131293161 12.957692367193982 12.85121092008103
Hf 11.675075729662632 13.231359698131989 13.627434377525756
Hf 12.341577096220028 13.19002331221659 10.96020612422208
Hf 13.01986732942608 15.381211046765246 12.540313061406719
