7
Energy = -52.96889834 eV
Hf 8.010633237549664 10.019121400213578 7.545075190710846
Hf 8.943634587867255 11.680005278735907 9.580049340265683
Hf 10.641846635116744 9.703159172798047 8.56511658798588
Hf 9.052079283171576 7.4672658821069335 8.02605832133106
Hf 10.479107825975843 10.21717014086598 11.351037641079724
Hf 8.181246154710465 9.043629615159702 10.1831720892791
Hf 10.587662337521058 7.6165230373387605 10.452057440456294
