7
Energy = -52.98479887 eV
Hf 11.754737015433678 11.052914398830767 9.277431467460973
Hf 10.981321477214431 10.02383173372905 11.776125436178546
Hf 10.536399054493987 8.535662335661948 9.432864447413365
Hf 8.573219195437122 8.620891944546823 11.4363570100463
Hf 9.037573977749155 11.005151225690803 10.014689423480448
Hf 9.801822758061611 10.321004769836728 7.3996949257574665
Hf 7.8301815417855245 8.826408672643268 8.728712242220425
