7
Energy = -52.98724515 eV
Hf 10.666422629673265 11.391916811120296 9.04394680297752
Hf 9.526451452825523 9.062554155502928 7.966187350160265
Hf 11.69848206642165 8.867853337345771 9.739933358880563
Hf 9.259916853426304 9.732936813283903 10.825362924299919
Hf 7.87305376060758 11.155723004959073 8.847458244208426
Hf 9.545126868963196 7.078597734459156 9.954056753134564
Hf 7.1790814756513015 8.485346334400825 9.403599630368184
