7
Energy = -52.00880782 eV
Hf 9.981075677265824 11.189410746815241 8.192764179708176
Hf 7.935587844619609 10.874776380201956 9.956709502482903
Hf 10.467305785536643 11.777220521946049 10.945359574891496
Hf 11.789344487881527 9.521254822881607 9.625986935475948
Hf 9.631299649901626 9.128844984759983 11.352491834111706
Hf 9.279987095701085 8.570649389482492 8.617420338376059
Hf 12.048895188417891 9.980590458649877 12.326634991623923
