7
Energy = -52.0069036 eV
Hf 11.324894011942447 7.459806020573608 8.06768171854705
Hf 9.895791662093602 8.148682024805817 10.306211721408488
Hf 9.130949186368866 10.824683914109592 10.798099128521109
Hf 7.149169882560286 8.710919011057735 10.137225901320617
Hf 7.8128831021541245 10.671373860280504 8.38511445612573
Hf 10.59256429917324 10.087118852288475 8.437420577985813
Hf 8.637160848618754 8.006227042429648 7.79406636861043
