7
Energy = -47.32719957 eV
Hf 11.494303930939676 10.122556662330926 8.586067581140114
Hf 9.710525248983684 12.125137573618396 9.007325462054965
Hf 12.721904040304725 8.940814708085243 10.703295502324623
Hf 11.375292967028583 11.343532543052017 11.0842742405793
Hf 12.157633128778379 9.768789899645748 13.231442414848868
Hf 9.152083826995412 12.953125172156943 11.529167463392305
Hf 10.377166972920561 11.779118298591959 13.647080666935466
