7
Energy = -52.96744137 eV
Hf 10.242218930099293 12.781978193591666 12.972748471176395
Hf 13.555769595844453 11.033552000619995 10.320227348796918
Hf 11.854947411580026 10.508089604475892 12.516681946636135
Hf 9.196392479936478 10.675852787759393 11.584774001244066
Hf 12.949194848356397 13.069548544367171 12.204155928709254
Hf 11.19612336886099 9.575491555896583 9.957958022545666
Hf 11.053514237895769 12.360218217481936 10.292148363499651
