7
Energy = -47.451503 eV
Hf 11.653748801084502 16.616331879658404 11.60136879798457
Hf 11.469658982875904 13.949640925250375 12.209556100369262
Hf 11.804222804027024 8.730392623207136 14.442543235872332
Hf 11.561210463044471 11.231798296620635 13.324840176850907
Hf 13.577523465493439 12.303424744316034 11.873892849266733
Hf 13.721003626794486 9.757694219308158 13.028071838564157
Hf 13.599428563844898 14.975235990053559 11.053261695211795
