8
Energy = -59.5900693 eV
Hf 11.395377738348962 7.203292697481996 9.682896955829056
Hf 10.047381020368267 8.054615859185349 11.849351224386512
Hf 10.751768927620141 9.931497283778699 9.889631746297544
Hf 8.625648139740967 7.610656960514192 9.462550652009712
Hf 9.592859672167837 9.238791089354624 7.522461526357207
Hf 8.042273904620858 10.176870012888218 10.1263151660181
Hf 8.79676283535215 11.879995354216321 8.037621116997569
Hf 6.896926990747268 10.034914962831708 7.558042424752802
