8
Energy = -60.07549216 eV
Hf 11.21271587102298 14.942954757344438 12.522204222002022
Hf 13.432163373415708 13.364796649908572 11.739690864506168
Hf 13.224775791909778 16.31391930862993 11.45084727997067
Hf 13.64373706349047 10.46094326929838 15.36333201470012
Hf 13.563163916504653 15.094955042929566 13.934803748969344
Hf 12.105023689044364 12.653125561942533 14.092256170109613
Hf 13.504677959787411 10.614842588905113 12.708188777236016
Hf 14.902855890268771 12.562884916002659 14.04389949912787
