8
Energy = -59.69968302 eV
Hf 10.952369726801484 9.053643043742047 7.2320916494330385
Hf 10.847619198576533 8.523296559881496 9.943194720521396
Hf 8.443180172599954 8.295740100534736 7.759426762744635
Hf 10.145494362364685 10.876265482746142 9.113050626494525
Hf 7.532910891712416 9.151243040661257 10.025630722802921
Hf 7.746539719672948 10.945287527548697 7.939202246199222
Hf 8.852365409158027 6.753605012969362 10.018653003451389
Hf 9.412302966830401 10.104972713793249 11.661204158281897
