8
Energy = -60.07635128 eV
Hf 13.544544975054679 14.82020553214887 11.021109530260672
Hf 10.538323155830406 11.782934398419073 13.411474361155783
Hf 11.08752673803916 13.502133863574159 11.148727810554307
Hf 13.185844278148627 12.266786625686068 12.506873157488826
Hf 13.205006635952387 12.549511021746262 9.68051019883392
Hf 11.424383388895851 10.683058189564425 11.010160943701935
Hf 9.773549630426169 9.138156817417064 12.94965158602906
Hf 12.309401896386781 9.687530028150038 13.508723441289934
