8
Energy = -61.10148137 eV
Hf 10.601746442824666 10.318175116630234 8.57436538332979
Hf 8.183079036291318 11.245292671941515 9.593371605620685
Hf 7.54393950828944 8.516436760026867 10.134796272921525
Hf 9.670193389429548 9.675859054071145 11.515287873212156
Hf 8.30914589956512 9.059246343296188 7.565884451018582
Hf 10.840140558362073 12.003202878315347 10.697911645621259
Hf 10.195444906802804 7.711933795582147 9.45582280655564
Hf 12.238626935457177 9.536431296045809 10.606483669833102
