8
Energy = -61.1006317 eV
Hf 10.802612726461055 10.745217603902526 11.320859525347197
Hf 8.435397434189143 9.219295696566455 11.794035631770157
Hf 10.685350067245956 7.757308712343731 11.272164842816483
Hf 10.803103308142221 11.973839112163686 8.611450126304259
Hf 8.577715660433661 8.081840571020916 9.181072552293752
Hf 9.247968177424912 10.127677206400978 7.122514332362458
Hf 8.478785153253742 10.948002415259339 9.608974453657396
Hf 11.071651409121424 9.290318661980448 8.965676628826035
