8
Energy = -61.10210478 eV
Hf 12.483326317869308 10.392217056522007 12.088271624101514
Hf 12.464632402423254 11.899398583577593 9.753939225267427
Hf 14.422024919453131 12.404897596325858 11.971935620912149
Hf 10.335168318137821 9.955498178396967 10.478506392678849
Hf 10.02546434151974 10.416042484969052 13.260366850519857
Hf 12.0245942236622 12.562137454550102 13.7597699492252
Hf 12.429242801145566 14.194287445973638 11.45211384828648
Hf 10.224853307820307 12.490785334130944 11.489415714714207
