8
Energy = -60.0746272 eV
Hf 11.191928609582689 8.675362079296 8.853923011018432
Hf 12.59685781660949 10.969387310005493 8.11672281060002
Hf 7.069276087748409 7.998870225660309 11.420832403012154
Hf 10.269944192012394 11.047172478635416 9.985478519821168
Hf 8.405703678945363 9.180927763727956 9.035765931986079
Hf 9.785326259123481 8.628557127534942 11.390675485810066
Hf 7.8214683305729 10.548342782102416 11.450699135154846
Hf 10.132966866037822 10.589483983203703 7.187959751752948
