8
Energy = -59.98978273 eV
Hf 10.375095974605369 12.079779427831545 10.64201422619031
Hf 12.763565574598722 13.211142244773361 9.799271608581286
Hf 14.973301364889041 11.946658453535571 10.628957195291136
Hf 12.628785916896678 10.505801637667593 10.274862107893545
Hf 12.619450059019083 12.151679939842225 12.470587669939464
Hf 10.604320190055331 10.33435729204918 12.80519919532397
Hf 9.940537490634089 12.976271771944889 13.219971886672084
Hf 11.317697519292974 11.717331046100652 15.129337179790863
