8
Energy = -60.05880934 eV
Hf 6.266931429465745 7.668975329591345 6.854381061551317
Hf 7.532951879446214 6.847279797529883 9.841460297787185
Hf 10.001801668035581 5.781446133448314 9.541456492644546
Hf 8.796587671806238 6.775968657664224 7.293602459188692
Hf 6.13694975592181 10.359662777834284 6.609709415987179
Hf 7.353954340945657 9.374150596048873 8.85389302637427
Hf 9.887515735337209 8.478465612920324 9.28692876578016
Hf 8.617745287231118 9.308488863152583 6.313006248876226
