8
Energy = -60.83666823 eV
Hf 6.936681657739119 8.617234083405155 6.114501900424443
Hf 9.301780018516846 10.091120660531105 6.696886271415384
Hf 9.224526556430815 7.504090168518515 7.360053953223939
Hf 6.757158934293494 6.947322004716004 8.373330826988708
Hf 7.258885504057947 9.814604966177257 8.59676708831818
Hf 10.136205090874963 9.232643920488226 9.292361026009806
Hf 7.784172507969372 8.333684484950282 10.66416458194508
Hf 9.504477421527904 6.363187402623794 9.805822043084925
