8
Energy = -59.99081504 eV
Hf 11.663889088978054 10.22933845426186 9.692446614264842
Hf 10.07813792460746 7.627034213694647 10.46185421813892
Hf 10.430373215507997 12.70073882177596 10.125926108887812
Hf 7.509364231284668 7.913371834125545 11.537282557324508
Hf 7.769200893980807 7.799378280159391 8.915322297525375
Hf 10.004630437253699 11.466969151494288 7.836972705301277
Hf 8.938553898202105 10.12393086495348 10.146663350155094
Hf 10.189997375884763 8.702303506970635 7.9003326885906455
