9
Energy = -69.62396783 eV
Hf 12.35866244919644 11.790716567782273 9.281730356985321
Hf 10.152346985297289 10.633810949229494 7.789456925973036
Hf 10.244363620414308 8.715872657182453 11.970298633185891
Hf 12.416420505501629 10.636853395189645 11.791096687020547
Hf 11.802380368222934 9.122968583896343 9.591668776087111
Hf 9.808685754588181 11.12125316729765 10.555304729048274
Hf 9.06122899516668 8.491972427946637 9.360590997234489
Hf 7.45689119798093 10.65616231785623 8.870299913240672
Hf 7.509755383520901 9.502282171241221 11.378515245000296
