9
Energy = -68.06118089 eV
Hf 6.949083649884127 8.660298911187105 8.42971529168368
Hf 9.72893302765616 9.554155428901497 10.173220158188636
Hf 7.83380671576925 8.155466925351343 11.163726546072073
Hf 8.305206606243932 10.519210222148981 6.915376180398321
Hf 9.406069440877891 8.00598026191265 7.154104667900194
Hf 10.88283437840006 10.357718332691439 8.040071895392071
Hf 10.874096265797082 7.3487455331054 9.583680303026352
Hf 7.839210007314616 11.17546891358365 9.606097837176927
Hf 8.303561261301374 6.345756384095369 9.056808766917396
