9
Energy = -68.40251878 eV
Hf 8.659702724627161 9.151676352756832 7.102046407536106
Hf 8.169735319815368 6.375005636344854 7.5465881637023005
Hf 6.024679903635271 8.221536940438792 7.911341693105081
Hf 11.485588494868503 10.004263760758565 7.364695169691807
Hf 10.630849338079498 7.6813131149711635 8.565601752186245
Hf 6.127941835916902 5.93554029339332 9.317177179466748
Hf 9.898431269207903 10.27016927214205 9.493873946940486
Hf 7.139842034380265 10.554081625847129 9.022992647571176
Hf 8.097272752927024 8.04045667680494 9.909726713257813
