9
Energy = -69.19454885 eV
Hf 10.284936626388296 9.416576989887865 11.833667447787398
Hf 11.673852393835542 10.985811651205124 9.925279526154691
Hf 12.475053315855638 8.395703665396072 10.489620653308682
Hf 9.12389749292462 11.863634787932211 10.910880020458457
Hf 7.01594009895352 11.839576998624043 9.178318172984142
Hf 9.966912076337882 7.016142011477471 10.417002917533182
Hf 8.312783157673044 9.369961132764056 9.791511393110639
Hf 10.719171278155667 8.800596422414163 8.39143693062911
Hf 9.479536329096247 11.36358377778842 8.115018114849123
