9
Energy = -69.62397247 eV
Hf 8.396994886775273 10.524546223129082 7.357117603412856
Hf 10.716013680737 9.847355625835707 9.02558180010112
Hf 8.449163865227439 8.148435682699303 9.030174189692941
Hf 10.949002013711846 7.122665605804445 10.102341431003824
Hf 9.669498287471738 12.570944575855467 8.711382540267984
Hf 9.514689455345183 8.908399442910133 11.589420947680303
Hf 8.082092862975289 10.796784444260384 10.067163168347658
Hf 10.591018456622654 11.551616955741048 11.272605711522052
Hf 12.239781811253819 9.165591191172522 11.425179364988466
