9
Energy = -68.25224406 eV
Hf 15.596444088556838 10.5154639397513 13.357817494852865
Hf 13.19131139070497 11.491403631233073 14.331411904983277
Hf 11.005588448748245 10.8810085008093 12.632225747041522
Hf 13.56813005364067 11.388285067534586 11.528271554086736
Hf 15.02170419836251 13.144763996590454 13.150885890279657
Hf 10.79315824901485 12.399200553005517 10.334942385007297
Hf 12.123516280926687 13.54303187604224 12.52590226752875
Hf 9.300345671198285 13.090636477432456 12.513778746058371
Hf 10.137916483094083 15.006595708948648 10.782269886928676
