9
Energy = -69.62386261 eV
Hf 10.0040346538925 11.015377750762008 12.041896725762735
Hf 10.868220160725517 13.446790319902833 13.313630588721924
Hf 12.887069411685856 11.658994077693066 12.474965334126642
Hf 11.714870488264784 8.974875130424177 12.676506266335426
Hf 11.158319677646043 13.058120873609136 10.48029342996935
Hf 12.031699311385829 10.346254541256098 10.122908919796782
Hf 13.792133156204097 12.63805777998086 9.85670753141165
Hf 11.016863471147031 10.841351120377318 14.581700243957217
Hf 13.096681346246044 14.498471760415633 11.777353145144817
