9
Energy = -68.53487417 eV
Hf 12.755159595195007 10.981344784823193 11.173309327437673
Hf 12.160724039822256 8.77165876306301 9.484972217646032
Hf 10.27875429953997 9.489772478998857 11.358617120978469
Hf 11.17141091050429 11.411441460099418 9.076105163128899
Hf 9.788560934502035 7.185501395512203 9.980371307339427
Hf 7.089884560941589 11.057480041685938 8.454074526044767
Hf 8.693650422244906 11.554379176127096 10.515590023728326
Hf 9.450854264187997 9.387849257587199 8.406036564392963
Hf 7.529981162529068 8.960254717836277 10.329846020269025
