9
Energy = -68.39579415 eV
Hf 13.538279935187335 11.08009158745763 12.071745862324468
Hf 12.192353735478367 9.39428563356507 13.858532625924125
Hf 12.220427607608338 10.6823727811393 9.521870238949592
Hf 12.386487192450199 8.644167222701318 11.320952088818078
Hf 11.901129899719946 13.313375607013704 10.707609827199372
Hf 9.806042792582163 9.536354470817678 10.540641576329488
Hf 10.841469971935098 11.387697840830095 12.313481730910496
Hf 9.885495761028299 12.05677898157272 9.223740069139176
Hf 9.172293166202513 13.513815259323723 11.330039695003506
