9
Energy = -69.09667738 eV
Hf 16.93080607935721 14.699516901816665 14.113126653330418
Hf 14.131733773561985 15.166889137152546 13.812888661000708
Hf 12.34332844501271 13.208753523378313 14.873767898253638
Hf 12.769190270919898 13.791244754435231 11.703501179152031
Hf 10.722571501013844 12.382804239740462 12.845807819406492
Hf 11.05775655643398 15.14415149231759 13.392951593998959
Hf 15.177289158131586 12.773641638839552 14.949630464416309
Hf 13.469630792054298 11.392216558570663 13.016326291525594
Hf 15.557811604284685 13.283695812305647 12.224194264607101
