9
Energy = -69.10055642 eV
Hf 11.576108752608603 11.505201914976029 9.447525273341135
Hf 9.372664629236544 12.579455242808095 10.886260981184355
Hf 9.660405130781717 7.633570864357115 10.708788523615972
Hf 11.670144843796933 14.067411496583182 10.681378617926537
Hf 9.117036963215591 10.04669329395408 9.536423115127274
Hf 11.232572668584085 8.567049294571147 8.542123161476876
Hf 11.691385938703233 11.858559748467318 12.283565476020822
Hf 11.82440643759504 9.231403642084617 11.153495169252476
Hf 9.39180915078781 10.038951153341685 12.346485684525016
