9
Energy = -69.62096676 eV
Hf 10.866956296254655 10.249818891120118 7.734779140726218
Hf 11.173912379217413 12.421910536960583 9.650880255483603
Hf 10.086365869810399 7.901781553869378 9.197987945844453
Hf 8.29247279777516 8.915535371545625 7.3948923043353325
Hf 8.892286946241075 10.58546007623471 9.72624885132212
Hf 11.691059820069349 9.852262779222148 10.457912251894388
Hf 7.437511964131579 8.0469769259099 9.871151182162391
Hf 10.310936426557276 11.532991122498235 12.117449903096508
Hf 9.411362757912052 8.789121687730072 11.851773408144117
