41
Energy = -87.62404108 eV
Ag 8.832349719946171 8.345973355232076 16.676569033349402
Ag 11.32852046941796 9.219376200725685 16.017633064929978
Ag 12.408781522090717 8.08537165688661 13.660547994864448
Ag 13.812677385177311 10.20126050007579 15.37570156650546
Ag 9.444241099594109 8.873456365520864 13.954227943580392
Ag 9.117306217637239 11.005054702343347 15.862315412726188
Ag 11.745338740916804 12.01997125338793 16.086754763548132
Ag 11.736137038626929 10.738828370885583 13.449366337352417
Ag 16.19003891552458 11.30336310314657 14.54714330148496
Ag 7.979506859273511 9.603030740579403 11.536059936073931
Ag 12.113903914324258 14.799816323818618 15.95648446653784
Ag 13.311421252111558 7.93013128305754 11.025882218831477
Ag 14.218373041156594 13.075849225560479 15.359013744226859
Ag 8.93684392593298 11.630177870816066 13.152489951973111
Ag 10.683295325667693 8.832403044630988 11.481834453681634
Ag 14.741296954159715 9.54251614845728 12.80268545813015
Ag 16.45832795379347 11.548182911566888 11.7991156637821
Ag 12.099442012383117 13.457133718745425 13.261550112817893
Ag 14.966220166864263 9.930254100063328 9.913518989287098
Ag 9.401604525002341 10.14906249726448 9.2144692171486
Ag 16.043609332679182 13.87687637647261 13.469387166049092
Ag 15.483987668773198 12.729368454033633 9.437939960374885
Ag 10.85893671143548 11.973423460737392 10.938296534790513
Ag 12.18884897000109 9.827908700543931 9.3460548563915
Ag 13.815794254595472 11.40459774603134 7.725577787248138
Ag 9.696924093352312 13.617484214126772 14.956298059891935
Ag 6.639348126920711 10.373464226923673 9.102828989665024
Ag 13.584034114449418 11.87801680927156 11.457241933083706
Ag 11.797440672145909 15.373860189912998 11.127493868787655
Ag 17.2636049698252 14.126529784507541 11.038484111911162
Ag 13.8110577598796 15.604758156115306 13.79214302961423
Ag 8.010711683102054 12.314332836283452 10.562298109660544
Ag 11.019981219317069 11.920983558779227 7.847001191815196
Ag 9.420058732046432 14.204120674888538 12.11090867840044
Ag 12.62793800802357 13.604554230794516 6.353491099630284
Ag 8.156473977583433 12.340580310345718 7.747131606224424
Ag 9.909017618939478 14.128279299053958 9.29480796393582
Ag 14.497582070649248 14.702835778409055 11.232334628684821
Ag 10.915822047500646 15.95369271857582 13.712488808325805
Ag 12.833899525774205 13.69636364170375 9.161823110332424
Ag 9.906935151071323 14.064389207390462 6.460238622016499
