51
Energy = -111.11552602 eV
Ag 13.21545003053476 17.466985688029908 12.075369850842337
Ag 12.964097012525775 16.093677231592924 9.518385007487124
Ag 16.938732716933444 13.45365350170389 10.758700836804882
Ag 14.616466139710198 13.659525442617634 9.174337889160888
Ag 13.948173212898588 11.535068252243228 7.424796533938099
Ag 12.501874433562767 14.090537507913098 7.474282653524134
Ag 14.823811804074543 15.21552430081424 11.45525411880052
Ag 15.70132571021466 11.127215974469191 9.657824119983287
Ag 10.815412743699028 16.126900334528745 11.426087254086735
Ag 16.74366138296165 11.11259045665183 12.299939664110916
Ag 16.15035780156234 13.7382518571773 13.441645603594196
Ag 13.619093469271373 18.57499686540485 14.697576585324638
Ag 10.28494351951686 15.247883731408422 8.759490742604477
Ag 12.47953695687201 14.462056641266399 13.08090816768059
Ag 9.990075170646278 13.878349243405998 6.277655656392615
Ag 11.977233387477257 13.583722789079339 10.360291411099553
Ag 14.208299420265078 8.862762548878342 8.750546025455602
Ag 14.023256052191048 12.335851255146554 12.013060556764078
Ag 12.796561758372572 10.945240247156557 9.858771454522694
Ag 11.510444007746925 16.83999406647117 14.245238046080285
Ag 15.085525320634067 11.303846553279577 14.477935850223705
Ag 14.528464492771352 9.42293864992002 11.625804979875495
Ag 11.115541117252612 11.673839180821199 7.563759398511711
Ag 15.929765791154706 8.69363852556136 13.84826370442973
Ag 14.779948400907209 16.164270605684788 14.072538598195054
Ag 8.739832311521491 12.905733149311512 8.567058524274424
Ag 12.301798301817492 7.920284605056131 10.669916539606088
Ag 14.228942078953677 13.803814493746414 15.49190978459909
Ag 13.242145242816463 16.31839056686624 16.46072137550262
Ag 11.332004173569649 8.964079617759788 8.286125541078912
Ag 8.61768138648727 14.457750510373275 10.929060684973757
Ag 9.556889740140806 14.953705599820989 13.662725744567854
Ag 10.285717049984918 12.544265044404773 12.269357387975848
Ag 10.02406436947994 10.77669165805028 10.040974836846992
Ag 12.26731183227591 11.962009876375877 14.488824842751882
Ag 11.276449672420926 14.37539902612377 15.792106724401348
Ag 13.406426253602062 7.315652166279819 13.175297245654125
Ag 13.470422744694885 9.211122100092778 15.169472636743507
Ag 11.89582173023169 10.130976156024209 12.44364380354109
Ag 13.732582575237178 11.359283301064236 16.99274691378727
Ag 9.522234839477298 8.063726182469296 10.513215364197382
Ag 12.96888329266815 13.895505572595429 17.969293527085124
Ag 7.615511302523427 11.788318921628973 10.842611164670009
Ag 7.4658656009656745 13.204846572019859 13.204378251133054
Ag 9.443751589023224 12.297784662379133 14.91605090011032
Ag 9.047323744009717 10.048910384967169 12.660793394923102
Ag 11.014931058628086 11.818020018511861 17.14419503429261
Ag 11.73522367074725 7.075838884638651 15.504921233849506
Ag 10.57553544211747 9.679760372353583 15.083953327794715
Ag 10.600002431598604 7.6242992529312215 13.024471785624907
Ag 11.943090789298362 9.180498085989674 17.488411582755113
