34
Energy = -72.09323110 eV
Ag 16.289944888836786 14.585924136359699 11.832919847418136
Ag 14.834956996847712 13.060090245746478 13.61145615636841
Ag 15.576478967643098 12.046566614246542 11.107720426361938
Ag 14.81577834754154 10.22218327939362 13.350990049362048
Ag 14.371285428332312 9.65663879197685 10.589061241159396
Ag 12.197626092500114 13.996217652423011 13.809481679612047
Ag 13.988566801578664 7.643326129616076 12.496078436652404
Ag 13.45095785810083 7.178082324918657 9.640092310404976
Ag 12.994850150111919 11.609302151390288 15.111030409923105
Ag 13.570664741718012 14.128664970519635 11.270116648878908
Ag 12.163745806039238 9.202464574923361 13.95818590558466
Ag 12.563751440453503 11.521272937377448 12.196788387617891
Ag 13.333840963935698 11.976861153149324 9.397765714656312
Ag 11.70830959762807 8.696694782280456 11.13821667202281
Ag 11.04813141247318 13.333605381987322 16.276764373446404
Ag 12.424613288446148 9.53325412724758 8.39054671917387
Ag 10.318051179880458 10.777463773045675 15.336897224959733
Ag 8.374904374015497 12.412357374186819 16.48514274441344
Ag 10.824781240500462 7.268206503089923 8.641977909189533
Ag 9.03062232144774 8.679645846359948 10.204739909733547
Ag 9.830697053974028 10.15998884231726 12.611949129573151
Ag 9.6788943512626 9.61404864807326 7.5824870092005465
Ag 10.620022668683232 11.142087312661495 10.035043502149392
Ag 11.316941135664308 11.938465987342797 7.365057844614906
Ag 11.851494582249568 14.288816745238544 8.933642543370457
Ag 10.751472010072982 13.702049978754989 11.456119158749546
Ag 9.505192925424941 13.245906292850998 13.962002554956792
Ag 7.0737321632172305 9.881769446699087 11.73974418408492
Ag 7.651484095628076 11.132508804914488 14.166168227501345
Ag 10.150754426887415 14.35558286893942 6.655905801553705
Ag 7.715766495946101 10.970389083512208 9.161113436550819
Ag 8.545770388021777 12.030596884437793 6.69113412115363
Ag 8.31420926856555 12.377929223005095 11.565699455850512
Ag 9.150009196704726 13.406207649195654 9.066196459111305
