18
Energy = -34.98980315 eV
Ag 10.499235930659102 11.817274548302734 8.207737263592103
Ag 9.827668064363856 10.205531461417511 10.36692962073925
Ag 9.645188821865375 7.285045316997545 9.008116882877108
Ag 9.958688412113816 11.931843411662362 12.844957141216597
Ag 7.295429509915628 8.83067557909787 9.582772654035626
Ag 14.063256327519095 12.363312018854085 11.40225369499928
Ag 12.327199065437162 10.442031445917683 12.354775859137622
Ag 8.722706805407435 12.97727366267363 10.690431521751595
Ag 8.703701308655129 7.662213867302801 11.557830903683397
Ag 7.476031814885167 11.422945898647678 8.893792983192457
Ag 8.86340206647474 9.664939030669723 7.322265275126588
Ag 10.124585930589106 7.442828303185609 6.297850417417625
Ag 10.004069399596304 9.27543650103116 13.263093158607024
Ag 11.697435098714227 8.197525590397932 10.745118310697771
Ag 12.850859125772267 10.676376182935316 9.623132931845541
Ag 11.528821220067286 9.091653739709491 7.95762771485298
Ag 11.475108144740481 12.889438761077175 10.641722681901129
Ag 7.579601707169845 10.494078809362684 11.909225711069324
