24
Energy = -48.12050994 eV
Ag 11.787523975435395 8.611231531146988 8.209170557472964
Ag 11.44581061407556 11.034437815775494 6.291778726320706
Ag 13.873683149988436 9.046465144695903 10.039189346711934
Ag 9.402479271794661 8.979544721195545 6.614800461832736
Ag 12.784484861078612 11.479315175071159 8.70538319458953
Ag 11.498204020618907 7.461444454826723 10.846459120942589
Ag 9.25283431789139 7.471134722015811 8.97847663728923
Ag 13.154029403768892 9.22265607378057 12.903185813400711
Ag 13.82479793761135 11.719102221051621 11.29427064718504
Ag 10.553250813983182 13.333797850882322 7.9733041782367895
Ag 10.051652319785424 10.731577720446692 8.64981925388751
Ag 8.439587197811882 11.753096406791077 6.690977679300208
Ag 11.551902827199328 10.21415636494658 10.916376639014533
Ag 8.915735785621656 6.894397428986163 11.802898415440481
Ag 10.957993619808896 12.920780312246752 10.728867237645881
Ag 7.331382626802069 9.910794367943428 8.504649747691213
Ag 10.349756554890563 9.040540290743415 13.185628180841407
Ag 11.627383130563395 11.69533003435227 13.253456283188283
Ag 6.5536448940498655 8.042201967758023 10.494247439058542
Ag 7.512502267187089 9.082676303848446 13.179309224972775
Ag 8.272928369969096 12.5526417539526 9.702308969581086
Ag 8.87136674935101 9.488324276268095 10.824400839775517
Ag 8.944706404019247 11.739379139550557 12.433188681521365
Ag 6.496801192997771 10.903713330865495 11.112890295421586
