36
Energy = -74.57844147 eV
Ag 10.829319912774416 14.857692344449893 11.023296793868797
Ag 7.421693548485165 12.662477140843146 8.29316144646803
Ag 16.18608803356099 8.513871896359838 10.602538315487955
Ag 10.880083710253004 11.540039208905192 17.420795737744267
Ag 8.520010734186334 12.717402002654772 17.9893174788391
Ag 8.004573240938646 10.344994596091876 9.850625525870685
Ag 12.674132787181282 11.435564938209778 12.254860988520834
Ag 13.506598143255552 9.103818010697864 10.944156249630334
Ag 13.923659633375806 8.964908068694534 13.814472622162041
Ag 10.387322567543107 9.942201855864106 14.978711759674875
Ag 8.950779959397025 10.618020954865752 12.653087894539347
Ag 13.769937891528064 15.741307455388592 10.916158560737538
Ag 12.153128965285115 15.634447948179412 8.674504313867972
Ag 15.673283780311898 10.499782825852533 12.37860103097957
Ag 14.22846082291343 14.388798638533098 15.406210606499002
Ag 9.636149293325731 14.388143003008935 8.490480091108589
Ag 12.685621934151849 11.138360378341073 9.065986461393594
Ag 13.653516256977623 12.37944515221628 17.24506415386897
Ag 15.021731597368825 13.162993147614342 11.771941678544982
Ag 11.38053851429882 8.711115693495147 12.739199533173226
Ag 11.596547683088373 17.477731600172202 10.62604757965959
Ag 14.523712778705717 11.76009124455445 14.487135947413618
Ag 12.900652275999855 9.967350896210208 16.188894938082694
Ag 14.510311295215619 11.789901406772913 7.1328813434282115
Ag 11.828219360546907 7.566553496834379 15.204587615687437
Ag 15.395574836132772 11.080654961270008 9.716896209897424
Ag 8.833637148899397 12.852961809179472 10.689916987165446
Ag 14.197875934986923 13.64893518924905 9.130189919404865
Ag 15.360368503485438 15.571978782854197 13.150576353852061
Ag 10.33045345353864 12.96049486933472 12.940025568672931
Ag 9.03264649274941 12.257237897836383 15.348384301353642
Ag 12.051119002130775 13.233616719023777 7.352333057119354
Ag 12.794568561470268 14.261928423987479 13.055353376776523
Ag 10.686704406460027 10.0960721909865 10.526457709228799
Ag 11.924618827687782 12.590783239545836 15.100073438701955
Ag 9.999538331762253 11.591502231895557 8.290254630548684
