37
Energy = -79.05130302 eV
Ag 9.823866698040792 7.363169948205222 10.813611353932247
Ag 8.620381587008719 9.47881888083689 12.175312135991895
Ag 12.317006132821229 6.539487339829914 11.73695580714506
Ag 10.820559273940004 8.29151470343593 13.35571234915644
Ag 7.590561127784085 11.717608268124685 10.972920176332128
Ag 12.140780143945687 7.6505974527385305 9.140533892845935
Ag 6.9873744366005175 11.239355481024312 13.63667889783379
Ag 7.131737994720509 11.548942715308849 8.18278808581552
Ag 10.842754773723085 10.013302381192052 7.788284260939915
Ag 12.076708488532168 9.774996102452164 15.439221900249771
Ag 13.55088963362621 8.001399173690759 13.819851800436613
Ag 9.555170356925066 10.576475362089132 14.520331851248262
Ag 8.628181235561879 9.533848853139446 9.399357596586155
Ag 6.366097261279232 13.771845909152516 12.449222814969131
Ag 11.231262383767396 9.84013811443409 10.603063068865325
Ag 13.999748254518266 8.656327959884205 11.079765991782871
Ag 10.494556208731042 12.14984949087422 11.91664070505619
Ag 6.634291191878936 13.931178682748163 9.576942633044023
Ag 11.251666875153049 14.442921702204345 10.018736192356283
Ag 8.833267816269721 13.316153154128179 13.891696771927009
Ag 13.510261163431219 10.034856621946561 8.671347921901605
Ag 12.09867939612725 12.555465159216899 7.847138051638008
Ag 9.633237084433636 12.304269022082995 9.138702222887863
Ag 11.462623579672124 12.577463104280382 14.70367215519119
Ag 13.076233169554751 12.288709301681912 10.500495029103723
Ag 12.763488003155079 10.66918541203903 12.849534615101618
Ag 8.825685342964645 14.35451955955614 11.217400568157474
Ag 15.466441310731675 9.976775620915417 13.177265421642693
Ag 14.1168362882798 11.708421142921381 15.151234015648095
Ag 11.099752407905834 14.774752531910115 12.891878811761643
Ag 14.940420588136488 12.331052892980134 8.148560461126344
Ag 13.68459633763772 14.744533541723928 8.765435981745398
Ag 15.552570947842682 10.964959975705435 10.55665583694191
Ag 13.526511636021661 14.413507179520874 14.3163532267347
Ag 15.02933189129132 12.739011760201604 12.72231167898447
Ag 13.585058616447355 14.990992426275117 11.592826931253608
Ag 15.831672851158162 13.833855561167459 10.331821273283314
