44
Energy = -95.38014376 eV
Ag 15.534398718864422 11.397955326156127 13.899887737673684
Ag 15.580422131544037 9.82769108083659 16.27898559621535
Ag 14.28020019644004 13.840532206659933 14.032851884173688
Ag 13.683513476508876 11.901077701282885 15.968957235179394
Ag 12.870765694665568 16.360909529029534 14.2296461884456
Ag 12.927362088303324 9.542054033153756 17.213994073888536
Ag 11.816949676387528 13.960978528680968 15.268921898274568
Ag 10.971798738253177 11.62844748313575 16.777857518026863
Ag 16.296118710232243 10.383699051640129 11.452308703432019
Ag 15.03099917210057 12.984727718727544 11.461447615742758
Ag 14.110242829649867 15.608383127104965 11.861186058441751
Ag 11.671558046265481 16.904945051969086 11.679100427778142
Ag 16.21442705960404 8.652493512740273 13.695319268876444
Ag 16.683677467731822 12.278986600134033 9.375081384558495
Ag 15.547240643011436 14.98720322100896 9.583164591757336
Ag 13.230028990609481 10.952028195714227 11.965225325971463
Ag 13.55969758947191 9.334943856624719 14.444786230238021
Ag 12.03319446435377 13.64454979489116 12.245407126157918
Ag 10.827666063053877 9.044291570169344 15.390257965257998
Ag 11.480874354310053 11.427660408545112 14.009309211813113
Ag 9.113179432059395 13.863183314770373 15.760990525269559
Ag 10.18604244222973 15.682994960784615 13.722164265185041
Ag 14.276475408864133 8.387036628253592 11.617458267294003
Ag 11.583218549293209 8.644880720680444 12.623883892515908
Ag 12.451792196801653 14.980019004539928 9.611164851957398
Ag 14.20232760522846 12.948699076917983 8.353197018821827
Ag 8.828786679868605 11.11611888579756 15.041842408577876
Ag 9.267668668122484 13.177716322940798 13.05779553679665
Ag 9.835223148888513 14.950613784490361 10.923852834743691
Ag 11.860648662281479 12.242612019101177 9.796105599830318
Ag 14.499360525094186 10.382549158089853 9.353338850196899
Ag 8.885146473541928 8.865167901027627 13.330374873047678
Ag 10.066053602951886 10.912962886619761 11.532338077715007
Ag 12.058106854993719 9.285145361499469 9.891617257830479
Ag 9.536750808143216 8.277252584458735 10.638154098455074
Ag 11.931353062914956 13.645033959161395 7.016150563130572
Ag 9.643868497183323 13.64579877804383 8.465344605286392
Ag 12.386473218345225 10.839211630427789 7.428885206097404
Ag 7.356890310106706 11.143872279592804 12.668804894708728
Ag 8.066675667611902 12.78235155197414 10.517025067306735
Ag 9.818270095379242 10.443329756845591 8.639120035428226
Ag 7.454268742697599 10.086311225575656 10.087650477669575
Ag 9.891135142001753 11.912687231402934 6.253009152037727
Ag 7.552200874072326 11.878710637073503 7.850516210428897
