15
Energy = -42.31166748 eV
Al 10.56100063266978 11.571014447800978 11.55112694847971
Al 11.423080237487438 9.213881565739609 10.485610251474192
Al 9.910839947639358 9.181048447365662 12.685563236016444
Al 9.25530472503404 12.25350816774043 9.294977746914457
Al 8.295066132442384 10.28449616307326 10.686508189903838
Al 11.6736627539265 11.215383505076877 8.71849772910838
Al 10.94773721107395 6.810331009159865 12.069987023971404
Al 10.7942080964609 6.846351310187708 9.35225607583235
Al 8.65259646096831 7.657780604661931 10.668311449092018
Al 9.571353573086158 11.531677443695857 6.699402069198471
Al 7.219849995463333 11.073506732106564 8.125029645189985
Al 9.692028332115859 9.390450194393107 8.474813457866986
Al 6.922559193946072 8.630959859070776 8.971797023113632
Al 8.708738522798598 6.999577856320867 7.7358460650946155
Al 8.220197769590033 9.204022906218421 6.331021835127724
