15
Energy = -43.06862482 eV
Al 11.783787339451012 12.096579024571064 9.710351963094595
Al 9.160200389338412 11.251130980097459 9.351806570608186
Al 11.175507827740924 10.511551368453851 14.012218276973515
Al 6.568202001060284 10.2113393336227 9.175511758233327
Al 7.733802756584268 10.082268234651485 11.422968420225352
Al 10.091592045266314 11.67028375357671 11.74118635043583
Al 8.930686059687437 8.474275901780898 9.527720583010831
Al 14.135417653641044 10.269023331895939 9.904397943656367
Al 10.184537982445782 8.947982532774747 11.832659593010481
Al 12.581005440442274 10.58137871846761 11.882494386681714
Al 11.552327268238502 9.306813513584826 9.645453390300723
Al 8.091810056484977 9.704148075597354 7.240547630101149
Al 8.685953840306084 10.209842609153583 13.78903911469835
Al 13.019586703800666 10.73588962768091 7.700980296513481
Al 10.57000904171523 10.21191940029437 7.3270901286591545
