17
Energy = -32.98021773 eV
Ag 12.214807144394154 13.640913486733009 11.309356236032905
Ag 11.757353372801877 13.02444474496591 8.56358382862134
Ag 9.686848591644862 12.813614573293451 10.519412362411913
Ag 12.687061031432036 11.105382220490187 10.334182103010924
Ag 11.001582140925372 11.572947968080303 12.6674948981616
Ag 9.264906328122335 12.066065142280076 7.820245452152465
Ag 11.482792711247097 10.370756122061977 7.819486590379407
Ag 7.421724769324161 11.403861511387262 9.740925698904585
Ag 8.191222069098114 11.377409145780428 12.420680857782033
Ag 11.589672759774958 9.80413195845606 14.633952169722553
Ag 8.74064122631506 9.353277731360317 8.394765802718677
Ag 10.78974550212818 7.710650886787711 7.613479866539083
Ag 7.706989093507581 8.915224148088509 10.97363589233861
Ag 12.293717231558919 8.996825775316179 12.08620211729691
Ag 10.209674210602346 7.921017480162674 10.370737981826773
Ag 9.596318099222309 9.045439549050027 12.916268924598265
Ag 12.790285836892958 8.50847400200757 9.424876306982533
