21
Energy = -42.19661995 eV
Ag 11.881056593484379 10.465618214277823 10.345788172977727
Ag 9.975387331967802 12.301709185084816 9.329441811187282
Ag 9.336410405406205 9.642641012711382 10.423814896052209
Ag 9.374077829701097 13.865971455979977 11.530814383856221
Ag 12.047528385518726 13.065535270458085 11.147698033628318
Ag 7.663829919812729 11.62824095668022 11.341707165722873
Ag 6.7605756960735395 8.878982998488672 10.49011910988298
Ag 7.553363496438999 13.560283007959876 9.313322448797617
Ag 12.497963743055388 12.022096616468778 8.129815865669427
Ag 7.775259211225589 10.794928188531175 8.45096114190439
Ag 10.22757602004567 11.418221555661175 12.67957914026875
Ag 10.54347257660425 9.932462287945846 7.7608332820339845
Ag 12.96749894633617 10.74981810807195 12.922760090128198
Ag 11.095975410360136 8.638569870414871 12.49624319248927
Ag 13.597973487527817 8.514382950352346 11.080151469809701
Ag 14.377866301768126 11.446148939510024 10.367054371502547
Ag 13.29588040694057 9.306922535538202 8.260332521268742
Ag 11.262799330390717 7.75491282371295 9.590383424024214
Ag 8.632765999057389 7.915883285869278 8.385297092555994
Ag 8.373989520755089 9.323455826542785 12.992442396470246
Ag 9.031961887529897 7.046427409739934 11.234652489769605
