17
Energy = -31.99928255 eV
Ag 13.172735739403917 9.943031845962729 10.044402185770762
Ag 12.192348237424406 12.663698971942994 10.097332304698359
Ag 11.34597892270816 10.968350898658773 7.908184352975877
Ag 14.056710620011238 9.041685578361527 12.524268788717368
Ag 9.020095171988052 11.84103777955574 6.673864018785324
Ag 12.360453985760774 11.288392017238904 12.586696363709965
Ag 11.023361899191718 8.265949693619966 8.988604972083754
Ag 9.504710503486587 12.908675663650799 9.241822410789412
Ag 8.654313231671294 9.72490950856979 8.441479565466016
Ag 10.501821544203708 10.516253862352475 10.5126825251955
Ag 10.00709468801417 12.769635072337103 12.027554488354923
Ag 11.516180390598192 8.108665198527074 11.76474110707258
Ag 6.977454537451594 11.98995651097363 8.508844072126204
Ag 11.997889199079198 9.094705714283682 14.333622776109376
Ag 7.8355015342871805 11.096640763792887 11.000806333870376
Ag 9.690166900644932 10.061684347677437 13.118487166517745
Ag 8.811714908956537 8.358750606973256 10.908011711368147
