41
Energy = -87.23907885 eV
Ag 12.811377257392245 7.339236931263376 12.309846647477082
Ag 15.242655656272476 6.559908106709215 13.474842684913424
Ag 13.083571195506764 8.953886976861996 9.713142248126191
Ag 15.249664615265104 8.28498354898146 11.387056026894221
Ag 10.619542955986592 8.653716478711393 11.267766905796885
Ag 11.203522551666154 8.893191455323917 13.949522734578284
Ag 14.094576357077932 9.022504482758462 14.091965526897727
Ag 12.812868372221988 10.60999883269505 11.88042129218186
Ag 16.52067141570318 10.033073216393031 13.08280600415357
Ag 8.240000844490227 9.742381535872243 10.32256148056296
Ag 12.461586783447776 10.369023479183324 15.93272716854993
Ag 13.135694073200812 11.701778909562142 9.03595661209545
Ag 15.243975640959786 11.24279961840472 15.238641503803395
Ag 8.62155958742082 9.760629382557845 13.081288485483595
Ag 10.71242939043442 10.296267183790919 9.022638295498558
Ag 15.437651924208614 10.770637316530944 10.311077421468914
Ag 15.168025202330673 12.402945118682297 12.515526649375133
Ag 12.796576199470243 12.436541200942061 14.024362136504667
Ag 15.007068128342251 13.560847596748198 9.96808668363743
Ag 8.571656394308953 12.175789530239564 9.036561299514041
Ag 16.260050184580596 12.944937304098566 17.182165322441794
Ag 15.981411628720616 15.062713559412526 12.15874027566897
Ag 10.13920979191172 11.654737443748308 11.52084476107251
Ag 10.972968627133548 12.590933907897666 7.4915882963123295
Ag 13.767087002036273 16.030979804817537 10.577962474164005
Ag 9.524396551717938 10.26133875876459 15.667484276323417
Ag 7.140220896314555 14.45950556781441 9.798289934353415
Ag 12.310518691079029 13.407388308995662 11.320921820967841
Ag 10.806988447582329 14.457536890085866 13.902741233997357
Ag 15.427584343638152 14.06323155327791 14.78724996200655
Ag 13.539362317431925 12.944861018269101 16.683778007779335
Ag 7.30289397668902 12.07330178120345 11.612751590407665
Ag 12.700976446517378 14.46976105523846 8.554262633758752
Ag 8.847546745036285 12.437827209953937 14.007878132576181
Ag 11.397143388054525 16.965311990082448 9.077653385157047
Ag 9.925416613394148 14.598434009741961 9.094851594810656
Ag 8.959087353474528 14.321770314577204 11.861701686933168
Ag 13.409493737712237 15.177366671836946 13.241901175954514
Ag 10.81434424695908 12.682129204304506 16.04393631629161
Ag 11.181161806184369 16.078637943384148 11.675864263493377
Ag 8.796849553437212 16.746541695594946 10.330021943329175
