36
Energy = -73.81222329 eV
Ag 13.403967958579425 14.49661131034571 7.7725206634675885
Ag 14.044966336626695 12.249584875717415 12.887103062773713
Ag 13.290641482926894 9.663415727585162 8.464321109986834
Ag 13.635050631025864 15.781881893326029 10.291779384642775
Ag 15.51120900951962 13.552388928895304 14.795029570017034
Ag 11.5223869689031 10.58313819477369 15.659900040856435
Ag 13.840935049378613 13.016321569816713 10.249359683106128
Ag 11.262262052523598 14.35013235645764 9.557895388659599
Ag 15.449005471325394 14.529821871997019 12.065103228030244
Ag 8.133467521679442 11.299940509240935 11.911223530993986
Ag 9.521222471202046 12.028454135789486 9.516176025129347
Ag 14.535017620640707 10.33065286621761 10.911870248930855
Ag 14.282702269947531 11.14879745509443 15.458142948646085
Ag 13.393034967989381 8.582741181722733 15.778534349483818
Ag 9.840283753966009 13.636770628027689 7.266984403111014
Ag 14.808289525462422 7.823232673136012 9.80373109809296
Ag 8.799763890590674 10.382483778986305 14.515058660313029
Ag 7.731577839682241 8.552884816166523 12.592209912645304
Ag 11.891303993834072 12.012962195403905 8.046584637766294
Ag 10.145375248197992 14.730667090158875 14.128603530453855
Ag 8.70686492923099 15.159008603967358 16.370808253359364
Ag 10.775355909169384 12.088485385466104 13.275138326806104
Ag 9.859692546810892 6.969359841223346 11.548326174796843
Ag 13.186559524034916 10.82448230757701 5.950240849496259
Ag 14.815075480578159 12.046813305225719 7.843736676941466
Ag 12.292551844619638 8.322161711309745 10.848698535308285
Ag 10.23282522212946 9.511334791446194 12.259248098700823
Ag 12.57072755938357 13.334170637118687 15.07584234696547
Ag 9.864812412983074 12.748950944032266 16.02340144790564
Ag 12.855706620775033 9.745424195838414 13.284695478680192
Ag 9.274956686181637 13.907728591543153 11.62061537677327
Ag 7.061541337371094 13.060482253321172 10.08121440451454
Ag 12.121064033171479 14.347392192478276 12.200098504366103
Ag 15.947797657163807 14.306106973190847 9.190987582278582
Ag 9.232830669876579 10.367159714187734 17.215671086339626
Ag 11.862492466378999 11.193767114330376 10.819964702621787
