34
Energy = -69.40972072 eV
Ag 12.001527598601944 16.53972270236456 12.365359949666312
Ag 10.551786266949964 12.438626620549183 9.046502848043867
Ag 15.788897412486648 12.743156459787848 15.158776650917227
Ag 16.076281031188724 15.950240776434107 11.947999720498647
Ag 14.233194883445089 14.429194314784437 13.471902182806874
Ag 14.617421352969775 16.422402227998038 16.371158186794357
Ag 15.450068978276356 11.860010125620958 17.947192498433665
Ag 12.573978792501022 11.609158647972663 17.9550218029376
Ag 16.524534335177844 15.479094225869638 14.638332660473502
Ag 14.376735550164653 7.098549874926641 11.784020365518138
Ag 11.992362343924015 8.491673350657019 11.303493198602583
Ag 13.612086497574513 8.998387327642451 13.622789590461075
Ag 12.017959409421037 12.392759332580466 15.163769163914079
Ag 14.074503287662445 10.60786579860455 15.817966286220143
Ag 12.696664937957655 19.23290171600535 12.584898692264838
Ag 13.670963453077878 7.799904330838151 9.18858949870312
Ag 12.832844256027618 13.788348123083578 8.322199750860584
Ag 11.060764312869763 14.931053997772224 10.210305040868976
Ag 11.568443836761162 13.718903447263509 12.754381883399555
Ag 9.775111657058659 14.170893865876888 14.826993061849446
Ag 14.080414482000261 17.645003333903766 10.866117645246206
Ag 13.78592112395937 13.845350967663357 16.928532489093065
Ag 13.831830399767925 14.913529089612084 10.657495391930372
Ag 12.350803076170765 10.19649327415129 8.948162672155224
Ag 11.466796140681208 10.849981173852585 12.896537696243179
Ag 10.021838300464653 10.250363733038464 10.581261879139342
Ag 11.053359425524492 13.914255282148503 17.30645370658758
Ag 12.839861298965772 12.265419699886895 10.720894524913625
Ag 12.206404630972006 15.49510092281506 15.137188653597613
Ag 16.477272118806724 14.423982154483356 17.27659386470505
Ag 14.370024752373956 9.907119381417647 10.997941363894771
Ag 14.113755564691104 11.715751112494912 13.17191784373498
Ag 14.321648436049028 17.27874958931254 13.772266760350924
Ag 9.456286987206232 15.529999637544186 12.39242635862129
