12
Energy = -87.97884339 eV
Cr 10.465856302870316 6.509566249382127 11.424409674257603
Cr 11.403871292416268 8.960589685992993 10.511807203534687
Cr 12.742636460089024 14.202145631018892 9.174014181423223
Cr 10.548683792200661 13.406967759852577 9.24884095190873
Cr 10.940358592892053 8.267440810766258 12.881897332486677
Cr 12.168652927937627 11.54800005274025 9.755280892744281
Cr 11.759070190938273 10.833192344139762 12.078629476029185
Cr 12.47587611310247 13.454963724863546 11.366029142391584
Cr 9.01446165842512 8.21585714744178 10.771695169672814
Cr 9.836935597110541 10.783452789614183 9.964216194049305
Cr 10.162608865355807 12.680139508198062 11.554491109238656
Cr 9.386883307582604 10.07159590937728 12.318180299559444
