18
Energy = -135.39998839 eV
Cr 12.9825150234258 11.953842086522448 10.496857448439368
Cr 10.778136389420832 12.617619367900149 9.737580554824314
Cr 11.771194703162568 6.945110053064599 11.687936626344463
Cr 8.150079122064643 10.345104740730859 6.813248402849401
Cr 8.545444145699479 12.583130760512434 7.842140461712837
Cr 10.619080190043709 11.037315932272504 11.37007721569389
Cr 9.052456641886762 9.344353572496372 10.724077872210346
Cr 9.627104628604911 6.903691334588162 10.380659270418358
Cr 7.178846085608774 10.555413133666187 9.114525276552774
Cr 8.363096052817097 12.255890827514193 10.346786853717335
Cr 12.205759981463085 10.38497684946426 8.832051394089568
Cr 12.625823579478837 9.854325819880632 11.76206381176941
Cr 10.495658473446206 8.622129766013083 12.675334879225863
Cr 11.406428363331244 8.767724922403517 10.128596918892365
Cr 7.8054866272301675 8.351265729792939 8.781885338271314
Cr 9.837717176146498 10.605392351483934 8.787514686925315
Cr 10.079587933074214 8.34828398063938 8.062772808552651
Cr 8.290705024841992 10.582288902863743 12.624518550411917
