10
Energy = -71.51212238 eV
Cr 9.697313223753708 9.085199336176354 7.7554143156386015
Cr 9.789079471310426 11.0275527791515 9.275801821267141
Cr 9.694685941851237 7.13076101606601 6.3302177525577665
Cr 9.40528205415501 7.123950210866479 9.061867037633553
Cr 8.726251934331845 8.996998958564932 10.233801471305853
Cr 7.837685995656324 10.980748665073836 8.496506028319319
Cr 7.64622707964168 9.09201091599726 6.7090032987174375
Cr 7.267919554938371 6.731498397777307 10.596715439360004
Cr 7.710537125299706 6.582731951930514 7.6071329521423845
Cr 7.18409375762289 8.525317779318062 9.055648595932084
