18
Energy = -134.69104728 eV
Cr 7.823627055463517 9.09706773161534 13.259024932302639
Cr 12.994913174730021 9.590526181155173 12.599586615544531
Cr 6.957524483237622 9.581303715583227 11.124037314100862
Cr 12.967476535490322 11.895996871048554 11.74620524394894
Cr 11.403449508812953 8.08802190169388 10.605426301327197
Cr 11.661458860632507 9.618671633532749 8.909200323434051
Cr 13.56778532367136 10.50194819883466 9.8394997300994
Cr 11.132252530973355 10.694555116561029 10.808925231604762
Cr 10.878124989541893 13.204297796755675 11.476943077007432
Cr 14.015537007419892 13.247262760613696 9.990737065255392
Cr 8.929070108055516 7.581411611676414 11.781944592764932
Cr 12.856436956906416 14.704055700428736 11.480889477879737
Cr 11.634294285867279 14.787369323914252 9.470039470291972
Cr 8.931201876060054 11.035110812641769 12.16989706236917
Cr 12.014022827133065 12.45388652378442 9.12717076519076
Cr 9.376465778515225 12.03946428518022 10.081072529624775
Cr 10.56308815966641 9.216347644550344 12.592462869634536
Cr 9.109399045674241 9.218299551198033 10.15236680406557
