13
Energy = -96.7464012 eV
Cr 10.829736021244308 10.204511050674125 9.744957986651883
Cr 11.37943550332347 8.552548570644145 8.173527436983937
Cr 10.614727708674783 7.429373742496255 10.036548678372471
Cr 9.440778859420382 11.440853282603527 8.212408072804125
Cr 9.30282081005464 9.102626583249867 11.465518458278586
Cr 8.918193482909562 8.647723135661343 6.277919229091057
Cr 9.089997966308884 6.307555416232066 8.563417972157305
Cr 8.933499881301953 8.912795781973047 8.820372315035678
Cr 7.760165606131433 7.504006883581817 10.32287039178894
Cr 8.00041764301284 10.733406095002023 10.07831571594066
Cr 7.305790660187722 7.503518831478017 7.476698380743807
Cr 6.2833371997156595 9.143686450424672 9.154025061026298
Cr 7.562682262989121 10.283286599049777 7.260477209741642
