12
Energy = -87.95388204 eV
Cr 7.3885979686933085 8.177495704415374 7.110730386271762
Cr 8.754012214576875 6.886896184146731 8.911476580179402
Cr 7.42503672411065 8.284575575008116 10.975910221169856
Cr 9.553034013352724 7.704289272400941 6.403939486301627
Cr 10.907723013747038 7.652896429195698 8.436346052427918
Cr 9.912408248490514 8.02897381784165 11.076225191948613
Cr 7.472354272819085 10.540225300170984 7.829495305012346
Cr 8.804034069348624 9.20723060382684 9.07603857250983
Cr 7.031358542582875 10.588338602944262 10.46221788165581
Cr 9.746806074559013 9.963093793724813 6.7793519046196815
Cr 10.997301464797408 9.87553705783467 9.007246518315407
Cr 9.293195428391387 10.376309729428641 11.216883864118524
