10
Energy = -67.73328744 eV
Cr 7.511575795984954 12.526041513388016 10.79829428165494
Cr 12.278980949794494 8.84884086542825 10.012442550302405
Cr 12.2914086952109 8.241825712166612 7.914873108010285
Cr 9.446532737694977 12.47441752632786 9.71386090622504
Cr 10.667534285366985 10.228404100766406 9.047822214419906
Cr 9.183031528065538 11.226107148328246 12.208209366156037
Cr 8.691418424265512 9.993401212937062 10.311767365457083
Cr 10.47347812951972 8.107109288154406 9.508906142609431
Cr 11.049909223163121 11.137301264601575 11.118133179830409
Cr 10.395118445619119 8.96852333717131 11.562284316393924
