17
Energy = -128.62428271 eV
Cr 9.148866209788707 9.995147416686512 7.037637249285788
Cr 11.160865966875217 8.937881316474387 7.91791974983132
Cr 11.863446187735349 11.204367068753218 7.077656358567123
Cr 11.927349441148628 10.330785313641103 9.67992983991814
Cr 8.559624214808718 8.419402295075905 8.916023918133442
Cr 9.931910450787672 11.492700061933675 8.566741832386217
Cr 9.729010581216183 10.004191387511463 10.821418705470936
Cr 12.339075554888627 12.661436033756267 8.998096007828028
Cr 10.478256762319942 7.846521869045537 10.150629078968255
Cr 7.912859758430692 10.591288085946784 9.485019071073484
Cr 10.337529594599108 12.373350486480394 10.944608253635238
Cr 11.655099348078963 9.439537948017975 12.349959725625927
Cr 7.8963830884637725 8.230286268536663 11.289157788281036
Cr 8.261389425271274 10.792291114585474 12.5375177806738
Cr 9.436712726456058 8.46338737247627 12.978529508949318
Cr 12.575693826791683 11.634967568023665 11.605176795802324
Cr 10.38182777280644 11.17835930352094 13.239879246036363
