14
Energy = -103.2895145 eV
Cr 6.662009825454073 8.90026587658192 6.808990446690773
Cr 7.992711058106595 10.051044118115556 5.91515185786307
Cr 7.352818869343956 7.760875952191037 9.387348432424478
Cr 8.135001873333318 10.770698908061382 8.498626509265113
Cr 8.342147519144046 7.294877899571513 11.458535052645914
Cr 8.43831694507506 9.643264077530219 11.178082783454979
Cr 8.932391245003977 8.664794398051864 8.023976386300033
Cr 10.05509237007252 11.2822835239879 7.336865582170815
Cr 10.136615802967118 7.794124342259276 9.973814766123214
Cr 10.318728540109774 10.261836554748756 9.839603231388182
Cr 10.539141174994379 8.873773100014002 12.228144736412606
Cr 10.634963875639752 11.195567487759549 12.082852823886855
Cr 12.349894089275427 9.345013864942842 10.699163023277132
Cr 11.309038772251585 9.360451896184307 7.767716368096943
