18
Energy = -130.04214944 eV
Cr 6.643374621120964 11.713386629959656 7.997375643808546
Cr 12.139148791286884 9.585217145245679 7.992269511949884
Cr 7.570326051563935 7.342326785611228 10.90286997594845
Cr 7.315299385716265 9.583638412493968 9.374255629228387
Cr 12.593703677437238 10.064401032686858 10.709667436711191
Cr 9.93719269725682 10.3065495900303 8.686031317719323
Cr 9.773470332812058 6.744325989691187 11.220950029550627
Cr 10.971205080336302 9.450834163303776 12.257998181024723
Cr 8.030045772479694 10.140395602822775 7.308464774206133
Cr 10.520346141114477 11.576497040847004 10.99571036867681
Cr 10.271329553959227 8.104132763884653 6.992352820711241
Cr 11.279982899561643 8.163084415687823 9.720186618252129
Cr 12.43642807745815 11.784395501236782 12.061348185812783
Cr 12.049618614051516 11.621243548350053 9.383200368334055
Cr 9.206479278223204 9.40767615268282 10.68693373915847
Cr 8.829029139691599 7.679895366220165 8.664105038261745
Cr 8.235374778853503 11.00234926764442 11.687056027296181
Cr 8.298094952980453 11.7749411696716 9.454487464744151
