13
Energy = -95.80154634 eV
Cr 11.488136953965833 7.472080692344336 9.922399201552988
Cr 10.859124510296562 7.672043387988309 7.461388229148377
Cr 10.231854869230606 8.942271449383624 11.19171391335285
Cr 9.624950164352585 9.216932078717818 6.05526565441964
Cr 9.239308916537684 6.8237550149114545 9.653483995653712
Cr 10.100373644878147 9.558709930203404 8.8207059950916
Cr 8.85117489987891 11.196005187892055 10.175078070374054
Cr 7.91639787810793 8.911080047596888 10.245283794998272
Cr 7.746612395826964 10.872942409935716 8.076519135635117
Cr 8.187231729857306 8.554637091722851 7.871898074843089
Cr 8.883579741163889 6.314962330534122 7.321067933104451
Cr 6.041846408733014 10.627825711126494 9.728922221053676
Cr 5.833509514646211 8.82961452071277 8.373428859806614
