10
Energy = -72.38440193 eV
Cr 6.36712510046927 7.1124788746685885 8.250716506860526
Cr 7.950409893210074 7.977780041377512 6.46850404641726
Cr 10.09430757396671 7.3750183791820625 10.591169315464553
Cr 8.466056734442061 6.083951435256699 8.478548343713186
Cr 9.697167297488768 9.564194483412166 10.811924296296327
Cr 9.553888585370652 8.213238436679594 8.370955183318793
Cr 7.6112507262988505 8.5354156981509 9.813714181382405
Cr 7.1202496496112095 9.713722998352914 7.788628046649477
Cr 9.32148256965387 10.051671302323332 6.230287589749178
Cr 9.158602769357516 10.634298252240049 8.604337489552263
