14
Energy = -98.88942815 eV
Cr 12.125072907155493 9.269011015093007 8.61301804062434
Cr 10.756562979860945 11.307380432246429 9.196990771675138
Cr 8.855471708660883 12.446778488901879 8.822777205034605
Cr 9.588392907877086 9.953424343404205 7.894340790615849
Cr 11.061720458072966 7.83281740433711 7.66626037506059
Cr 11.573835115224366 9.269872733141964 11.155732009142291
Cr 8.883393858401643 11.99069556606944 10.91318732811533
Cr 10.752583138321802 7.4077720259806155 10.220194672991816
Cr 9.478946503375202 9.782065162122862 10.486028424425298
Cr 7.115429732399759 8.99615078999331 7.650436065660707
Cr 7.616091682978524 10.525355596251341 9.17519552739553
Cr 9.012454624468463 7.801190173282202 11.733152967972913
Cr 8.758901314258091 7.99385787572259 8.970637975921502
Cr 7.157743299147669 8.507641262940538 10.608912319893049
