11
Energy = -80.35268265 eV
Cr 9.41668392657054 12.085749965889637 10.459752751285105
Cr 11.044447845389643 10.277596029735863 10.616970655560644
Cr 12.003900003874765 12.402367414742336 9.522499100424126
Cr 10.903361576006246 10.126869915065713 8.204307254430272
Cr 10.167647745169186 12.543936650221061 8.23513782576474
Cr 10.123891001447648 7.995030148303265 9.221445775982684
Cr 10.766533540826035 7.759300305516425 11.420689369103927
Cr 8.755562537461083 9.550652587798425 11.076150506937605
Cr 8.610859301592239 10.297662222697365 8.908244156430772
Cr 7.7581650739689625 7.888743254343661 9.141357309973367
Cr 8.468456890313337 7.091600948306174 11.212954736726575
