18
Energy = -135.9002719 eV
Cr 11.142543943392091 14.45396619397445 11.932855367869777
Cr 11.257936111959806 13.54669794384219 9.84694238648544
Cr 12.876963328500391 12.200011159047373 11.405210247651821
Cr 11.070652213783449 12.545737807175563 13.315878361370672
Cr 10.167018171490042 11.980878600134021 11.28550806789761
Cr 11.675674329272839 10.933588313165286 9.397199196379034
Cr 11.75082697640393 10.139761434262152 12.062028983883986
Cr 13.67828532841572 9.85969223412123 10.284189806711662
Cr 9.375914368819906 11.744602960971084 8.703686096939864
Cr 9.439684065972425 10.142705687933471 13.085722218778566
Cr 11.91544511438383 8.261763537906209 10.058772355608141
Cr 8.015007769900699 10.8087077253064 10.9801816614487
Cr 7.476532151867215 9.621584609588602 8.89808948101187
Cr 12.324780342352911 9.109686497407438 7.781950860968188
Cr 9.731639587545981 9.475805088069896 7.906182285431524
Cr 9.848587054933244 7.944579415675657 12.206305931407343
Cr 7.60450659198872 8.517614268249442 11.626403309731328
Cr 9.91999227644217 9.45422723333806 10.334327150363599
