10
Energy = -70.78164842 eV
Cr 7.148873556090288 7.447202723046159 7.380947052190895
Cr 8.909104680247573 6.7043202355284714 8.775962260338288
Cr 7.005952733181994 8.181941218230413 9.625520928202453
Cr 9.27863921006174 8.3026933862075 6.816411653083639
Cr 10.499298068027356 8.008159038151264 8.47592816779466
Cr 8.892946210948828 7.923344485315819 10.461907838525692
Cr 7.37583646835458 9.779850310821253 7.664732865811134
Cr 7.80837422317093 10.098557937291613 9.674838615595393
Cr 9.415885275374142 10.184622786488074 7.688781022360726
Cr 10.141170003146291 9.845388307523288 9.91104945322913
