16
Energy = -120.37534621 eV
Cr 11.460441074958268 9.889811502715421 7.547083428543566
Cr 12.414871312928462 12.16992534946883 13.995486415944608
Cr 12.999432074047162 10.897684495964818 11.767733657681571
Cr 11.339307956268573 10.151393055131038 14.074063065846339
Cr 10.79613530654959 13.60671762805316 13.084713454916782
Cr 13.237130386859159 9.177191837671693 9.895530491064221
Cr 8.953634887206778 11.392203507749315 9.943788763835274
Cr 10.91710348449434 9.867904691810706 9.891281311867283
Cr 9.240303840079326 9.955409670580702 12.24927648193867
Cr 10.695909563128414 13.375359715328795 10.207913867426551
Cr 12.283843825100773 11.820512798202378 9.430277911877658
Cr 11.44756117992083 8.871921385416792 12.06871547375011
Cr 9.541531777054148 11.628107960981938 14.141409796541534
Cr 12.80887827464821 13.500933270470558 11.577013134953274
Cr 10.274444548195607 11.761499625272053 7.950392776691512
Cr 10.820730001793319 11.635289012988231 11.81775653426433
