12
Energy = -85.50564244 eV
Cr 12.907198717904064 11.212297269566577 17.129005348465142
Cr 13.838157817165298 11.132141937786752 18.966041482495655
Cr 13.076331400271975 11.772471833592435 10.219199913833235
Cr 13.592515385124017 14.633113562746008 13.341110874985544
Cr 12.668404870695339 13.778361289383296 8.371314767499218
Cr 10.978212100307628 13.373625230112651 9.737431765292296
Cr 13.476321356599541 13.883099455792149 10.690589357659272
Cr 12.19208129299056 12.751391555784826 14.727645653098453
Cr 14.50121215579825 12.761991825335546 15.305033862428811
Cr 14.061258505479662 12.422132754687153 12.777038038242592
Cr 11.45763521001509 14.401449919476729 12.036043311716009
Cr 11.795033781585413 11.909370846047167 12.433226973541135
