19
Energy = -141.84286321 eV
Cr 10.264917183986302 9.796499814758896 6.082411074149464
Cr 8.609507790377085 11.94294122779951 6.9159785327254495
Cr 10.871915174373108 11.07899607404318 7.986415277662657
Cr 7.952250750350015 9.689573570948241 7.193176311620205
Cr 12.457001891933846 8.646072087861723 7.685534390813699
Cr 9.899224597944633 7.7586201957664604 6.689612779369257
Cr 6.609497139096883 11.275350369401277 9.005252107818
Cr 8.812779135235244 11.241039619235824 9.599374224469177
Cr 10.129570952350768 8.9482520900954 8.54599239766874
Cr 8.102226281717892 9.021485163502438 9.861137090662561
Cr 9.820532402902433 9.41303593627655 11.317037505697678
Cr 12.44037715844535 9.469734650212622 9.813068112778241
Cr 11.702722857391159 7.700530272683658 10.275884642506771
Cr 7.458881182543195 9.079197681385924 12.326682229642918
Cr 7.911737772310796 11.19321585845351 11.467371413017759
Cr 10.541584971272737 11.562601189450877 10.917672807201027
Cr 10.09957619194103 8.182915347279202 13.41069642184211
Cr 11.946528299476961 8.978385854804236 12.5248316952807
Cr 9.601342355496646 10.253727085186913 13.61404507422019
