13
Energy = -96.40716949 eV
Cr 14.705516764943908 11.642027033275347 12.788980593954394
Cr 10.708542838526595 12.426560744213232 8.937308703178394
Cr 11.879477602516996 11.444546080011195 12.60568644775024
Cr 9.820965139590937 10.073784005991795 12.78949475389908
Cr 9.058079952985395 9.21467285658612 10.623324879369083
Cr 13.27463559834901 12.074876132534515 10.30106590363036
Cr 13.610984087801077 13.39071986629201 12.49182767854277
Cr 8.745776412781652 11.042363499859205 9.134912160844772
Cr 13.592360087050354 10.021190654266954 11.522693557328678
Cr 11.526819618364266 8.646217846631306 11.875845302443386
Cr 11.166605733868213 10.529355727694028 10.362681740604039
Cr 11.303703322907324 13.26480990593672 11.087749447318535
Cr 9.342233842973068 11.94133884241011 11.310932779158472
