18
Energy = -136.77120225 eV
Cr 13.73842686142628 10.739606675229615 11.718609508819222
Cr 12.099712102906896 11.90185638850404 10.425428042631463
Cr 12.459393140243362 9.16054100869081 10.28756687357317
Cr 13.337612469160709 10.869472300299465 8.677866177693819
Cr 12.058335896566245 12.894675100401562 7.887459942524386
Cr 11.706217727781915 9.925117565823921 12.848029866494375
Cr 9.853884804807207 12.304395291397181 8.927745034112087
Cr 11.399820959686826 12.24600638540843 12.691202939190333
Cr 10.003877470125385 7.956801216531833 11.38375265882742
Cr 9.753226217924608 13.176332403757977 11.110750917117825
Cr 10.37544211472671 10.363659518789179 10.905145486925681
Cr 9.157808710025185 11.185560573117295 12.988955812445765
Cr 10.988420985116376 10.377347824258985 8.269262660714565
Cr 7.935700539062064 11.80304743973613 10.945397665428173
Cr 10.526285647261238 8.264670019705497 9.102010749769988
Cr 8.083331278634162 9.278130655872552 12.029084522680487
Cr 8.509305481070335 9.752210421622161 9.561024490519088
Cr 8.052101102723354 7.288616667905729 10.050394389214599
