19
Energy = -141.08959062 eV
Cr 9.513785072769089 8.509231992503109 6.004477591280458
Cr 7.437700695451883 7.476658267471222 6.126061687396307
Cr 8.433290452146498 10.253246775090004 6.453548136602659
Cr 9.261732365042393 6.179361522727608 7.2392836328621355
Cr 10.552803160553015 10.261555728534303 7.798155441682431
Cr 11.158945254560894 8.150151153644872 8.116532866149495
Cr 8.605367129860708 8.292291960492195 8.229257240460901
Cr 8.09344849021465 10.626376351266515 8.718484633332796
Cr 6.188785580941822 9.233039515424577 8.31446208110719
Cr 6.804655159257545 7.102645508626767 8.259496637569049
Cr 9.82210393535835 7.306712573908695 9.831791110569682
Cr 10.64143926759592 11.69145594959611 9.77223396518065
Cr 11.958519677680544 9.782070952212033 10.05320262698113
Cr 7.3000113756150915 8.659935038036393 10.519144097951942
Cr 9.703295954548025 9.409809849482912 10.30432752129957
Cr 8.223562869611202 11.297843166775102 11.342132297137056
Cr 11.164049197918638 9.220043950698118 12.424133197648537
Cr 10.94089944095578 11.079870291074654 12.25786206179557
Cr 8.591978559918935 9.8640730924358 12.631786812994074
