14
Energy = -102.91533112 eV
Cr 7.289812113360622 10.235120260756453 9.321572292578164
Cr 11.366654952735049 9.696382214601943 11.920825275451374
Cr 9.229368320620251 8.963701152192277 10.361320986864529
Cr 11.474954187776953 12.455121355574748 10.35360026019627
Cr 14.763977156802127 12.300162270684888 13.554712562930323
Cr 7.576459742264232 8.30104481673273 8.153743181954955
Cr 9.758059890106676 9.461653550061012 8.0066482283819
Cr 9.295473381112911 11.706988860169751 8.868675841955787
Cr 9.180238927115987 11.126360979872933 11.113062077499753
Cr 11.450765061962638 10.273298793689325 9.700670661647774
Cr 13.070306558606227 13.390841216152943 12.435524864422161
Cr 10.966657926185954 11.99702308931683 12.739500878030691
Cr 13.367953701393926 11.147034271554164 11.403795461409048
Cr 12.963313136769008 10.899529918615679 13.86022742013434
