14
Energy = -102.49131154 eV
Cr 5.619185223686242 5.0851218614234375 9.70582797099377
Cr 6.574190472797469 7.479709040085928 9.701409698274166
Cr 9.663807128796828 9.087753065980616 6.505089531761643
Cr 7.549831053588689 7.619999230089984 5.606101734772806
Cr 7.470393957028462 5.255068358251215 9.36598413453418
Cr 8.648853714726256 5.212782060304389 6.8918896192466885
Cr 7.401381537653138 9.948680777570505 6.140191224808812
Cr 4.01594047877812 7.013470497820766 8.793174101928429
Cr 5.754640453753746 8.355057007855867 7.653963958336107
Cr 7.724217114740558 9.681510426418335 8.4808197243495
Cr 8.384192437566272 7.413281651283141 7.942039214094339
Cr 6.16507361901661 6.133795077980119 7.4633061607112126
Cr 9.931772343166744 6.7706978091054255 5.65877533181846
Cr 9.176183213691038 9.022735884819586 4.171090343359643
