15
Energy = -112.46529418 eV
Cr 8.857710770314592 8.861002329023364 10.346557639420002
Cr 10.582304021424234 8.896956812322019 8.735919894248136
Cr 6.830325843989794 9.993341926690372 9.392884464380426
Cr 6.412177821392071 7.61801505112719 9.773553510328622
Cr 9.415995090624444 6.570547687140836 9.830604410682243
Cr 8.046588875982179 7.94426162054583 7.963489962392785
Cr 8.935973585675313 10.469066082873407 8.110194239542409
Cr 8.165848903038237 5.499428852015856 6.208383672513861
Cr 8.055770465585498 7.741965576918087 5.3588136744350745
Cr 6.508499570793765 9.608108217582513 7.003506775234804
Cr 6.035344101221448 6.801707358919226 7.072300423106386
Cr 7.944001390809021 5.412473510591607 8.597761027915164
Cr 10.035460153619786 6.939087095005648 7.309688785875231
Cr 9.545575893958928 9.228049964131968 6.130885636675108
Cr 4.701537429976566 8.489101833517813 8.238569801655496
