12
Energy = -88.00531771 eV
Cr 8.48875234423871 9.130597664246606 6.788342713550958
Cr 10.932975533794952 9.084743182101251 6.592933637316708
Cr 10.153606904701366 9.850196454312153 8.787606079647642
Cr 7.1457853321215765 9.432173525969931 11.42185120241151
Cr 8.051574754920775 7.519713258602002 12.210193016016014
Cr 10.169426331387495 6.964010796803278 7.247812603293668
Cr 11.16683160030965 7.935997330667624 9.324615581291537
Cr 9.060133780987139 11.357414212417435 7.224849841076562
Cr 7.488522646801634 10.575578014831743 8.92266377029903
Cr 9.0590520046888 10.897053668328752 10.703388191915012
Cr 9.822848041290797 8.68980386689452 11.27683537183781
Cr 8.240444724757097 8.342672024824434 9.27886199134316
