14
Energy = -102.94194831 eV
Cr 9.044615542323003 7.487810814761168 9.365550972012233
Cr 10.428744499791755 13.856769494222267 10.726693651802451
Cr 10.673497149258662 11.321608571240247 11.448594040439753
Cr 12.532275982950878 12.529853508066482 10.708380401392729
Cr 10.2146575671097 11.979546868964942 8.976075753440014
Cr 9.426302360952098 9.63741660078464 10.119301671243013
Cr 11.518612951243332 7.739026555355569 9.204862625489943
Cr 12.00379647288667 10.537034089680118 9.136102221198277
Cr 9.267456585619016 9.816807397948116 12.658545834237655
Cr 10.315753981902018 9.332077839389788 7.831899358159431
Cr 10.618505982962786 13.061837181251756 13.042448282295746
Cr 11.82341445157271 9.230808364406034 11.051453328376892
Cr 8.51552151406545 12.223988487448501 11.178761617499186
Cr 9.848951559523538 7.539881806451271 11.11601100387279
