15
Energy = -111.88053372 eV
Cr 11.891459002204884 7.674005937116828 9.754673157224364
Cr 10.077479616760298 9.252124604185106 9.252391796179513
Cr 9.9975703599861 6.5919384809212405 9.121342810984247
Cr 7.635014250572165 11.887968524795753 10.619470839010722
Cr 8.162615098232344 10.763587820605764 8.583310883878973
Cr 10.487920801775207 10.571825039284837 6.981374966425834
Cr 9.210267237230095 8.346012896074765 7.375514416279862
Cr 7.853186259190065 8.252477557680185 9.933631614174713
Cr 5.957017620155089 10.335003636840279 10.323545393547265
Cr 11.595993423031299 8.0496826737817 7.369319874993314
Cr 7.332452078499404 9.432309147731877 11.938133810476652
Cr 12.196497618810374 10.16094997694582 8.418395983450697
Cr 9.51085705901343 7.764462787676639 11.272906695560202
Cr 9.405926136137492 10.430264241944004 11.291595832316817
Cr 10.012645938401636 11.814289174415212 9.091294425496706
