18
Energy = -135.35819404 eV
Cr 10.447841085172982 7.00953395230683 9.372509477693063
Cr 13.130171813712101 11.229165808845169 12.785697139626523
Cr 8.932448683387634 8.601704954789252 8.399315802688973
Cr 10.527085514135877 8.98733411554155 10.596504830193696
Cr 12.021960035058925 8.486337259111512 8.341574933723724
Cr 10.568771888994732 10.91897058008643 8.582506489430694
Cr 11.332790624358772 13.025948451163632 9.29873129964743
Cr 12.087157025720696 8.744483376359797 12.108999613300897
Cr 11.305954977897576 10.353419350531167 13.873360654756961
Cr 9.530271110212968 12.656871234458704 12.497905950403384
Cr 11.78542525174078 13.11995582564592 13.54421001859037
Cr 9.606209370355678 9.808436821823342 12.666958741364477
Cr 12.896748971981038 13.635017212351016 11.52963252386677
Cr 11.221034628412689 11.52775657593314 11.31965151169493
Cr 9.12041448959251 12.889279636643547 9.92251607126217
Cr 12.553460372523949 10.3371019010474 9.810956700857787
Cr 10.805648238309093 14.44209241765987 11.328562673709769
Cr 8.846851506330252 10.615986053345024 10.141193069929447
