15
Energy = -110.17310684 eV
Cr 8.686561080502427 9.606750797909394 7.3036530757209635
Cr 10.829315128178418 9.252212046433193 7.684772299795551
Cr 9.710182295385831 7.453117269871245 8.377917567415833
Cr 10.054129475078994 11.06102697347262 9.010676290509204
Cr 7.7205469285280355 10.653198477661263 9.0206655817897
Cr 7.493191698082924 8.459465390302274 9.323149600663116
Cr 12.363729192762957 10.891685261009185 9.538630832716182
Cr 9.254732824060438 12.310351326343847 10.863872309527949
Cr 11.438925516505291 12.587185319527093 10.634936490377001
Cr 11.036147862903398 8.99812728403936 10.042994308255865
Cr 8.90487826448818 9.959343893295507 10.947860406995378
Cr 9.143844548838862 7.63801926657395 10.533637689761967
Cr 12.46278552810052 10.436241683082159 11.709885340419492
Cr 10.238876616422447 11.440161611461445 12.663845247395738
Cr 10.689837576224374 9.28079793508056 12.371187494719027
