12
Energy = -87.56965807 eV
Cr 9.88370623429728 13.885970227975518 9.092974137077887
Cr 8.616289618757833 9.52117330001973 9.35934417364837
Cr 9.872046500658563 12.505438190708958 11.52945950682167
Cr 9.90133505492348 11.503530310023386 9.441817947705966
Cr 11.843933503632403 13.36127298362173 10.089450988036171
Cr 11.785877340940646 11.05458264589508 11.708581490992852
Cr 9.214810025113618 10.050634605348908 11.728813896245663
Cr 13.399869080648978 8.977462256054555 10.759766947567954
Cr 10.306912079353037 10.828747693485639 13.669539733945822
Cr 10.856005984959754 8.862618366280437 9.717272405868409
Cr 12.289706047509522 10.854884692740365 9.3606125169904
Cr 11.294886990081903 8.725204975475805 12.06444256330419
