16
Energy = -118.60497865 eV
Cr 10.965058394296856 12.152153390123654 13.762943446574017
Cr 12.396233466912483 10.325504326209602 13.943689687162085
Cr 12.57895073813204 11.646218383359548 11.480354425154529
Cr 12.604993601030031 9.383502633316398 11.273999922930109
Cr 9.02636587022692 10.806767458711887 14.050339053784322
Cr 10.669979808134832 14.076186249329043 11.611776339185745
Cr 13.085658676242867 10.71520205386293 8.952772063365064
Cr 12.52023288810892 8.393654071554598 8.836857394418221
Cr 8.2268103385226 12.88634155146697 13.034466173222302
Cr 10.630171376342174 9.681492462932928 12.53393490046609
Cr 11.930058854755679 9.353822340245983 6.781254752982468
Cr 11.466147256614068 12.814049060606694 9.664871754044494
Cr 10.745346670241965 10.316971204019438 9.800249345368787
Cr 8.026785563731844 10.258491863362693 11.966546918913764
Cr 9.933018337841443 11.793603880264039 11.626640540535023
Cr 11.408514300359416 11.55710445422876 7.4506493731141115
