16
Energy = -120.35887461 eV
Cr 10.095454612346037 10.560168344234631 7.680198125156032
Cr 10.500362170814443 12.886218919599555 7.534394584884698
Cr 12.420058494334539 11.130735524078363 8.34973307956606
Cr 8.413101680533973 11.812202021394544 8.981298858171673
Cr 12.286567441134823 8.982388011292635 8.821722417274652
Cr 8.017007455674058 9.387812968960372 9.42036018079446
Cr 6.482158720702934 10.666664785300277 10.598070596637656
Cr 10.387101594778178 9.899322085970773 10.05502211133353
Cr 9.907906529017975 7.621070455549567 10.663807053227464
Cr 12.478373103980543 8.45412215513741 11.488359793420035
Cr 10.937560854088476 12.258656865507291 9.902648386261069
Cr 12.819067974463472 10.564373184809888 11.010081678232895
Cr 8.530705639024175 11.45747801925807 11.291862658907442
Cr 8.401862034741818 9.12449544153831 11.891897016950749
Cr 10.711650791134025 8.004351597882538 12.917334472730778
Cr 10.735814414786903 10.314693131042413 12.5179624980078
