17
Energy = -128.10212169 eV
Cr 9.0802955720561 8.487077586980073 6.048292450219356
Cr 7.545514054614473 6.528400383735455 6.91260300120337
Cr 10.10828875724156 10.317336347982588 7.539302518354541
Cr 7.44256976229698 10.539724398303582 6.097811636562907
Cr 7.9463594476601 8.77596138016069 8.123346679914015
Cr 6.20134616926333 8.632225692395114 6.241310305422902
Cr 5.701436547691777 7.889082023071091 8.96703669697008
Cr 7.826477786758021 10.954247027784275 8.89639647356829
Cr 9.875969850210783 9.248451375851642 9.633933960321016
Cr 10.193464402767548 7.347271837717903 7.983282431656402
Cr 8.231034125532341 6.945947830814478 9.583783107094028
Cr 12.151662845565694 8.923012179405642 9.224068464975
Cr 9.591110325705761 8.008664703201338 11.629386895085577
Cr 5.579177749429429 10.084167492677079 8.35494094418806
Cr 7.174331324967073 9.11961710096305 10.6438237410895
Cr 10.917188468964849 6.725748070089037 10.111896738586623
Cr 11.94388483882031 8.983176598412921 11.518895984335114
