10
Energy = -50.53573716 eV
Cr 9.385255372055628 9.894875845384727 12.356418938327701
Cr 7.835257618400011 11.129506549745658 10.84760784750347
Cr 9.380891598015161 10.865892437207489 8.72390138541467
Cr 10.020261311374734 11.451283242881017 10.829944793548592
Cr 11.016331171757109 10.348201696177057 7.262564618731258
Cr 11.696874282405233 11.281681671317854 9.18396610824414
Cr 8.820915450681172 9.233582510493823 10.270215204796658
Cr 10.892402523354948 9.130296278620499 9.234588445440549
Cr 11.662821587119826 9.952459391168075 11.243608512970603
Cr 10.443184375166245 8.09238767398232 11.386956200615225
