18
Energy = -136.50194212 eV
Cr 7.0351141370164 7.690091010421323 4.632031758635101
Cr 7.004303303815472 10.02100114454132 5.181159014412614
Cr 8.96970337036816 8.17000283200104 5.9656992446110975
Cr 5.089477958777925 8.973726252130549 6.215240102828571
Cr 8.680083330120766 5.839258496414091 6.1135748177369456
Cr 5.53580998372699 10.835326583924608 7.589090524162245
Cr 10.816620976414454 7.318864978351072 7.326921272453198
Cr 7.693617363359326 9.727676835022143 7.424500020259319
Cr 6.51702490496186 7.117103343838445 6.993733850230376
Cr 8.331832811503372 7.387878695578366 8.403478657038253
Cr 10.039842092428538 9.328574633646115 8.292593835613005
Cr 9.652922775301786 5.605495954607862 8.802706778051316
Cr 7.160032437949715 4.970703478116162 8.317257829356874
Cr 5.758983568579906 8.607065200345009 8.875339498398915
Cr 10.373435263955962 7.837600570092236 10.09375274730262
Cr 7.9335796795602205 8.761026465065648 10.176361676673578
Cr 6.166410289273379 6.43878855747167 9.723719373651372
Cr 8.181231335548503 6.30984055109522 10.81286458124705
