16
Energy = -119.80199444 eV
Cr 12.798802211893923 14.226506424008376 12.742106476245194
Cr 11.154120606350423 14.623837246385381 11.054737000879323
Cr 12.900270113035328 10.589851727741772 9.686402725990703
Cr 8.727274851508739 8.71673196110229 10.716801013570771
Cr 10.302009049245243 10.745691004629508 10.00902257091039
Cr 11.690826141952217 9.619092463089615 12.248428505379383
Cr 10.1210348459798 13.125502519187318 12.855305765586133
Cr 12.892918403609938 12.192706299919255 13.753821534923555
Cr 13.992279902459558 11.082353063625733 11.7015147072749
Cr 9.848512320928675 7.881280918858903 12.545865196425744
Cr 11.131517156961703 8.483464761158837 10.235198778998157
Cr 13.783363741765806 13.227564908038149 10.797349772610124
Cr 9.208434875977915 12.79560540251321 10.616680072148274
Cr 9.424956014567506 10.555389543336524 12.310851262389814
Cr 11.752195827634726 13.010097366223977 9.472476485731004
Cr 11.591823354921775 11.948259360189471 11.534644405806732
