19
Energy = -144.19041333 eV
Cr 10.705326202258062 6.928596317336176 9.190442594560235
Cr 7.972816400706876 7.191529858349981 8.91960237435807
Cr 9.174935946412427 7.545948346666034 7.005352852525735
Cr 11.484540504870917 8.414635874348015 7.308937608410724
Cr 7.715642443893926 8.662892538243723 10.745705695790193
Cr 9.72458718836744 7.206862937026971 11.243355264243952
Cr 5.762655289888969 8.259737751182778 8.5979274473639
Cr 7.270204220281682 8.62731722347791 6.484727025106264
Cr 12.16612960695082 8.730819522079157 10.35769704363165
Cr 11.263145048024805 11.350276636558963 10.58836072772769
Cr 8.540976280540189 11.28606144838977 10.424579055737993
Cr 9.948764951476337 11.738213610943603 8.239939207566792
Cr 12.016179249153396 10.302078890603703 8.31125401197984
Cr 8.00103490573887 10.429219047418892 12.445224420788687
Cr 10.111078391618323 9.270132226741627 11.850534070620848
Cr 6.2538613176370195 10.405927080625682 9.893086607109502
Cr 7.874561648997284 9.892729282051343 8.244744333572308
Cr 9.821687802417962 9.305244242213428 9.382541147738056
Cr 9.890332927015976 10.150237491993135 6.464448837418685
