12
Energy = -87.87571005 eV
Cr 11.30792192538315 10.30117785669381 11.731359188391618
Cr 9.98783694146813 8.67573132145875 9.95590283907807
Cr 9.544624971210322 12.519538551823757 11.297171797663516
Cr 12.42468954425592 8.609811112987126 10.390268336567189
Cr 8.847054453727004 10.181082549368496 11.810985156588961
Cr 12.839106062597955 10.699261948214623 9.311018784463984
Cr 10.526986212101653 8.147252942739678 12.325576224757988
Cr 9.672817359759378 9.803816821350418 7.4089903103309975
Cr 10.418117358294941 10.969844064546075 9.530115516110888
Cr 11.606116831716987 9.097167775889808 7.835506526640564
Cr 7.243413455223105 12.360696988026891 11.251490212797279
Cr 7.968186148771187 10.806977294343806 9.630644693051243
