16
Energy = -120.04729531 eV
Cr 12.498947129992516 9.647363441674964 9.170869751105615
Cr 11.239798938040114 12.197919142399837 8.361767834259187
Cr 10.540294010083405 9.90273424376834 7.807960737163541
Cr 11.396186453901787 7.473147001892692 8.959480879815079
Cr 8.90875562245297 11.813872365100861 8.990007570821831
Cr 12.141150672090124 8.619555597513301 11.309475987754116
Cr 10.9866241314889 11.035603936875987 10.548138640794315
Cr 10.018554520784294 13.35129013714949 10.613505500528522
Cr 9.53698019074105 7.64647461151358 7.5969646259545875
Cr 10.477265709456752 7.00364430507159 11.190267432915569
Cr 7.749491408812141 13.46268386394382 11.060383251267929
Cr 11.609133105031438 10.489180937733035 12.791711880432999
Cr 9.695168791764253 9.236841116377905 9.879080254619153
Cr 9.685632643680881 12.096317079682695 12.705451014528403
Cr 8.293451285432955 11.130143350725632 11.284047012912353
Cr 9.628265178309405 9.221183935178235 12.252835968492878
