11
Energy = -79.13170852 eV
Cr 7.7786636419023685 7.998978303205253 4.796999980783899
Cr 5.7346265636109806 8.575217951661095 5.359769157392775
Cr 7.28884782982132 9.502734495286196 7.1573330899353955
Cr 8.678641854648843 7.627380872182923 7.02980462834501
Cr 6.51029635259361 6.765562744376064 6.996726454843051
Cr 10.410463247962854 6.754878896546608 8.619800582706082
Cr 8.224839013294607 5.713923145524719 8.892143128122262
Cr 5.290422620776761 8.572577813936249 8.171116727614578
Cr 9.405418697400682 9.001640469248875 9.118700619462704
Cr 7.345880077151023 7.8207244183947076 9.293266960263667
Cr 9.251127986111952 7.585608774912445 10.483566555805421
