11
Energy = -79.95433762 eV
Cr 11.951173841235763 13.444018302318309 10.854895430066536
Cr 9.79887378397962 9.333630546327159 7.637100982342463
Cr 11.136308148901541 8.994571538104125 9.605166843365375
Cr 9.83145653583395 12.540698935984848 10.994006382580546
Cr 12.227134944654447 11.152976372666862 11.117497452044404
Cr 9.820162548241514 7.425654352994389 10.887317608469445
Cr 10.945358110322994 11.524304826271548 9.063760200909778
Cr 7.982894001450359 8.680579161421758 11.469225702811414
Cr 8.79561087191136 7.574835188483461 8.791369738901277
Cr 8.765988279813927 10.456738057247394 9.423669026779374
Cr 10.007256013704557 10.134209798229657 11.418207711779308
