12
Energy = -86.74463661 eV
Cr 12.401168387624656 10.49929255698775 10.759233038243467
Cr 10.803973675633419 11.583799636513845 13.4449770739032
Cr 9.135287102389512 12.48536459306487 9.191256648998403
Cr 10.234400532688362 9.80457085281276 11.851242568048443
Cr 11.102453294330706 12.397076373411032 11.07887385753104
Cr 12.781227948893067 9.980787746321113 13.072879633239289
Cr 11.682328896657962 12.65345828385513 8.779746431734386
Cr 8.795323922753385 11.76735264460753 11.507454819796749
Cr 13.701324400988142 12.479834640977181 10.10258436250495
Cr 10.00573480207012 10.362284023037097 9.469865747666582
Cr 13.112246920159807 11.89918455644186 12.69253201890637
Cr 12.99338734907185 11.299376559563362 15.153685070955035
