12
Energy = -87.90995395 eV
Cr 10.011122377316356 11.946033249333057 12.355988150461307
Cr 12.25513398175982 11.478833061715827 11.915681733751013
Cr 10.240430875388924 13.467739075609138 10.442158483540227
Cr 10.541093823087913 9.07870249656428 12.377442751526885
Cr 12.078584443117162 13.871370961249404 11.579046519902338
Cr 12.262711753414523 9.359701361367213 10.723891227810316
Cr 9.991783851098873 7.9935827808383815 10.163237891810354
Cr 11.97182962787744 11.878518019046872 9.503242936275095
Cr 8.3298929032356 9.650482389496844 11.60435921715306
Cr 11.303592759103903 9.374772399642202 8.544993985880325
Cr 10.101189744113531 10.753201501582236 10.403055697607005
Cr 8.301523806235052 9.158566087861136 9.222141885043273
