19
Energy = -143.62549751 eV
Cr 14.19433035155899 10.603705164254983 11.508452663503668
Cr 12.637634284095125 9.50943484898179 9.26178917503829
Cr 9.802218428691258 9.751404666512286 7.654146867765811
Cr 12.729161563056751 12.783006809741542 12.402196763260195
Cr 12.696934027796088 11.828404828196945 10.18749543385888
Cr 11.986348425464877 11.779568595151527 7.852966423405805
Cr 13.169221319627658 10.953936167555426 13.757739032575326
Cr 12.169089819850683 9.387808909851476 11.598527463299316
Cr 9.764078399046364 12.230820656297333 7.647439211762569
Cr 10.487128744167205 10.47063369239528 9.660772447854901
Cr 11.296457029222738 12.207171731899745 14.736698912308624
Cr 10.392222111784884 12.81855191428895 10.035902519233872
Cr 11.289702280619924 9.470509098000857 13.916912544289517
Cr 11.114498448409138 11.504385622630764 12.17947288684735
Cr 8.029285554097255 11.459385056423267 9.050861826485502
Cr 8.145239302714973 9.200385785775682 9.616613460149328
Cr 9.47850273163711 10.956000855019797 14.02280088716556
Cr 9.581904743874038 9.471063782925041 11.724402071408413
Cr 8.657100882326349 11.64097817786167 11.360453427951281
