17
Energy = -128.98485411 eV
Cr 8.127575513592008 11.244636104600492 10.865137790969168
Cr 6.419893007513924 9.05093307704458 11.622011033916175
Cr 8.726005290457 9.257104566642937 12.023198527513014
Cr 10.232397545405178 10.359739902234018 9.93539897984007
Cr 8.807261901594552 11.011054192231828 8.121188605289504
Cr 5.926175797806352 7.502102381475939 9.243766719029615
Cr 7.396689396670918 6.995184391929934 11.047374501352067
Cr 7.610250612380135 9.279607970568696 9.48171178114229
Cr 11.104172659728532 11.056989670229203 7.356626015863109
Cr 9.58554453291691 7.861422648613613 10.070107105239142
Cr 9.71205464807759 8.776860330378703 7.784648361721993
Cr 7.389729633611382 8.603082369827634 7.078455803667978
Cr 11.89668298961203 9.11840075038145 8.509552617406706
Cr 8.065222992120187 6.681585422313437 8.345866057499723
Cr 9.80864127383259 9.634263271296076 5.663862773150443
Cr 10.405246846505406 6.5848761929429624 7.423801846577867
Cr 8.863771028254764 7.253772282713227 5.717222950055704
