12
Energy = -88.25679149 eV
Cr 8.810620072511322 10.067307834780348 10.951485727798577
Cr 11.187563664009932 9.000039027178174 9.847465652236208
Cr 9.959468363997098 8.101470303475507 11.646370938622967
Cr 9.301064529133479 9.98571674921385 8.461430530802751
Cr 7.069962582357029 8.487051236966602 11.094581512580037
Cr 6.908394327490738 9.686871768502897 8.889484549282765
Cr 8.793424259362668 7.860825210207873 9.495388523582223
Cr 7.130589445364784 10.852770259272138 6.804975470688294
Cr 10.91553588650349 6.743536638850562 9.1900659689246
Cr 10.32279698956346 8.056852889261673 7.307104616470216
Cr 7.744645284295123 8.010830858687354 7.25071450345772
Cr 8.745688829549108 9.835580153722123 5.878763323933513
