13
Energy = -95.24949828 eV
Cr 10.559723135056364 8.655055872047454 8.49246417299519
Cr 10.071105064682728 6.278706072075713 7.627416050546101
Cr 10.348364122989286 7.177818071571141 10.319899089736456
Cr 10.038947937749478 10.010084379435058 10.351523992339887
Cr 8.46772045781325 8.440161983818605 7.3048951296771385
Cr 9.546842533840145 10.892888066603822 7.6869746916469115
Cr 7.930007707850133 9.80336554909135 9.080494478634316
Cr 8.24829006423384 6.937549080826917 9.038111228009594
Cr 6.6938336080761776 10.474736692467314 7.038784747996808
Cr 6.238519874914106 8.21195486170396 6.217738213035146
Cr 7.763297784170607 8.308846304791574 11.027251197839018
Cr 6.100235544889141 8.152544229927624 8.645136071777193
Cr 7.192337058371507 6.074297389827198 6.962786407963623
