11
Energy = -80.45133316 eV
Cr 9.296831538739024 9.179901896049774 8.425805888485051
Cr 11.265907673293471 9.734823180445213 9.685987779785426
Cr 6.963952498956512 8.308666674564916 7.33477157858322
Cr 7.420532803289908 11.034029964060226 7.965414594528321
Cr 8.038286283078172 6.9048822086714425 9.502532592337422
Cr 9.2151591230306 7.085960708404626 7.43731507081851
Cr 10.87470871753925 7.293823805867478 9.434248869065128
Cr 9.36281617259715 8.112070608943194 10.986621677919887
Cr 9.182486365550162 10.542194407750348 10.68797497417687
Cr 7.214450964696793 9.297321691383566 9.584199486673793
Cr 8.454164308953642 9.795621353859092 6.244423887076276
