17
Energy = -128.33082151 eV
Cr 10.391620400996127 11.421716255934994 8.313531822467844
Cr 8.195628112921103 7.839926900361747 10.910781648400178
Cr 9.16408560431432 12.791992900320448 10.459846522690475
Cr 7.385659797104346 10.610158643374202 10.796541324886627
Cr 11.996131224743353 9.387130869885395 12.295320941186645
Cr 11.055330208240811 8.9972803102234 8.441063423096875
Cr 7.970287970405199 11.533809189961243 8.729962998656777
Cr 12.3660493044271 10.2474257744857 10.046174163519588
Cr 9.643261331758277 13.785794596884001 8.304552327106439
Cr 10.869889884149982 7.965709582394065 10.612415566968245
Cr 11.236278454581907 11.675499889358312 12.201694570107536
Cr 13.14432696513714 7.920754294209514 10.056340618349735
Cr 9.330936587269283 6.805065569024839 9.111552635340496
Cr 9.659552073084166 9.453513795106934 12.859250139894318
Cr 9.781904165553215 10.254658686214707 10.598481661936223
Cr 8.747439096133974 9.151267274856913 8.588323645244593
Cr 11.47499780353661 12.571674451761064 10.087544974505313
