16
Energy = -114.61098856 eV
Cr 9.185921629111592 13.690794159904604 10.479830907323072
Cr 7.415452162956075 12.16125005397243 10.621915436606294
Cr 10.082041258724256 11.800777965992134 11.406382990400521
Cr 9.723811549273538 12.134359891251092 8.833683463478998
Cr 11.48927128099595 12.97367944847146 9.5000541358806
Cr 8.410543569979886 10.927386647453435 12.706803176755146
Cr 12.848145045545612 11.183227899684516 10.933296593742721
Cr 10.96404630052434 9.928649370283942 12.759570185793153
Cr 12.244704106250628 10.894685739366144 8.562979647776128
Cr 8.153594942835268 10.34239230745832 9.992786995519628
Cr 12.984574638529143 9.12687289367391 11.652879270131686
Cr 10.73613807965223 10.05988447901432 10.003130142898858
Cr 9.327455209600101 8.944053769587029 11.645900260365499
Cr 12.982768900344375 8.787174506300254 9.374790646741339
Cr 11.25173540605576 7.620981199704606 11.159086389040928
Cr 10.716325077863395 8.08125858086981 9.04599047583046
