10
Energy = -72.50380353 eV
Cr 10.179739158685218 9.837538224009565 10.082504416973782
Cr 7.671818616202304 7.869746369348018 7.128686281978919
Cr 7.276836040345684 10.267049659326954 7.372986891216742
Cr 9.812519102615834 7.873012416287018 8.145392788789874
Cr 9.163115582362826 8.914202592332444 5.566558038946866
Cr 8.12501535199671 8.70810669064437 11.844823327012444
Cr 7.97353025551703 9.27186182969955 9.45436500686622
Cr 7.605123649176569 6.941599606217845 9.559623429360078
Cr 9.711305747928218 10.160774858912268 7.542403043819786
Cr 9.78415290394028 7.459264161992818 10.605813183805223
