13
Energy = -95.22014785 eV
Cr 9.550108069940316 6.8727904931931665 6.8650834146413
Cr 7.511178038219893 8.887567912699271 6.5351838187362175
Cr 8.912713782854471 6.1860610808427285 9.69230774734404
Cr 8.501857515336209 8.239141790235932 8.586884358893807
Cr 6.33728610770403 9.786767992153708 8.396296134773582
Cr 7.027318207724367 7.53149685270289 10.64051341312544
Cr 9.870048715620548 7.909899312708933 11.016413412976277
Cr 10.986031118534605 7.261842360310844 8.555374946051284
Cr 9.939271120259358 9.376172166972584 6.766429064073206
Cr 8.307467966599857 10.926002351319427 8.020298673896512
Cr 10.333893601488208 9.527378562529092 9.285825105149588
Cr 8.3007334492881 10.3265367202121 10.37999023130977
Cr 9.42727999834571 12.119057554782962 10.271786996701554
