19
Energy = -143.96141964 eV
Cr 11.960102538284504 9.705314612608774 10.693245178678573
Cr 11.685400025400792 7.974287079110613 8.011968126411924
Cr 8.063697474975628 8.794287610708826 9.02782414556503
Cr 10.266616057660642 8.218625708344844 9.889959524305542
Cr 9.212168955130345 10.238250893332951 11.078999282175142
Cr 8.081217131344665 11.142314567490752 9.06323981687279
Cr 12.010737395811539 9.987804223562613 6.937550846974236
Cr 9.982806868929073 12.231928743080099 7.200087640939103
Cr 10.463013025612286 8.893050156313373 12.634062305112996
Cr 8.305515095343392 6.447005547192471 9.168956344413878
Cr 6.947736204226933 9.277610240928151 11.095280912558732
Cr 10.953883362155127 11.588726867343675 11.820660911178882
Cr 10.321379771264315 10.280928643971217 8.493123957778081
Cr 8.589108335726308 7.5480217621634536 11.531308570880563
Cr 9.415482814086277 8.52209126491954 7.100751604966216
Cr 12.000877161829651 11.76981043916051 9.274729770222258
Cr 6.179705249118617 8.311329857025058 7.841502873066098
Cr 6.210831427565554 7.164057047304189 9.996902464517106
Cr 9.887027495624588 12.647107664519288 9.707185328768274
