18
Energy = -136.17148083 eV
Cr 7.533814794816392 9.19115842541321 6.223156167121087
Cr 6.898224698913989 6.4645226411839944 6.037928378623871
Cr 9.74787155702638 7.401475309324998 6.281790446169052
Cr 9.88482637766628 9.682599704520277 5.843398928334389
Cr 5.420026526845626 8.140866862774574 7.052842915958116
Cr 9.320849475088309 11.020947556651215 7.659811963121222
Cr 6.82463058180746 10.392311189240916 8.024945992550276
Cr 8.498126695597676 5.672781222788043 7.523250808232045
Cr 11.593950183054458 8.22696722799119 7.765180581315507
Cr 5.123773275656623 9.246934815103442 9.306047455409294
Cr 10.852901361877231 9.488057829911398 9.620152407813356
Cr 7.096763223392107 7.416309546647618 8.674779714170642
Cr 10.273290057195714 6.520744318548512 8.945353959357615
Cr 7.8029243028467565 10.088361457031072 9.990630064900252
Cr 9.01364818345486 8.711718837306975 8.308808381185555
Cr 8.088986691298881 5.756011076948689 10.28577824546609
Cr 6.535371028223496 8.17410935538886 10.971043394677302
Cr 8.846899903425149 7.761001541412717 10.8419791137822
