18
Energy = -135.10618137 eV
Cr 10.480160544592552 8.488565555140823 12.456689463258572
Cr 12.984533515511245 11.408420795063792 9.926538295840814
Cr 13.823164715301594 9.234616879745744 9.13310785894746
Cr 11.6885959963676 10.60576329367159 8.019362418565171
Cr 6.886143916998537 9.604532752310227 9.870680307350868
Cr 7.75083371804275 11.892663468992044 9.53348880472285
Cr 9.123341899332406 10.635673652834354 13.391658699649406
Cr 9.1867550084502 8.234597429444616 10.289946680678256
Cr 11.212116120960513 11.33318905568364 12.32704870084932
Cr 9.506243948085213 10.234889052452932 8.843427051159775
Cr 13.373534724478661 8.563550536810832 11.273773539675323
Cr 11.424169457963595 8.261555548724688 8.812279098161627
Cr 7.566793897582715 10.71060960028097 7.28363935386407
Cr 9.105214000103258 10.26225758026806 10.976657057158166
Cr 10.52153839132648 12.237567413057377 10.143815103356355
Cr 8.759982095332411 12.707881136416683 11.816062777101699
Cr 7.816994753804631 8.635150902738678 7.877127878927742
Cr 11.505231005363928 9.699526210578542 10.640383004417119
