10
Energy = -72.59217819 eV
Cr 10.08006945312566 9.658276774782566 8.367164342545523
Cr 8.763379883501186 9.519848938731725 10.82385763067882
Cr 10.110527830957777 11.478218892429874 10.0201185671634
Cr 7.818982939746214 10.261787022813621 8.76950559731681
Cr 8.691480963046414 8.841097439438144 6.5484562439680545
Cr 11.650103551540505 9.861249700504072 10.710740903490445
Cr 6.652966200941477 8.448906088610691 7.701059738725084
Cr 7.488320952877845 7.653402400314333 9.750858315161338
Cr 10.295800394013451 7.901431505941827 9.970684450061494
Cr 9.09211905242244 7.071903942360769 8.047136981139502
