10
Energy = -71.96915784 eV
Cr 10.097368083708854 7.53014694252257 11.624697675284906
Cr 8.713273143480999 8.661309270345852 11.522948664673988
Cr 11.085166817685986 9.83531730984854 11.824966599470502
Cr 10.446549548213325 9.14588876579685 9.646774327123483
Cr 9.373912932609441 11.163608659687634 11.372245125114155
Cr 12.68150584027043 10.544229574401683 10.054427506599914
Cr 8.678411084831664 10.469320377660958 9.2170910205589
Cr 11.420887955296495 12.354812738634001 10.821487080074656
Cr 11.257572592475979 11.110484608588548 8.310500887508361
Cr 9.766313848932777 12.70819936988522 9.133794611683571
