14
Energy = -103.51561419 eV
Cr 9.411814530272329 7.859483159219982 5.741944439671599
Cr 7.985571598918442 7.774755448859599 7.673167081889483
Cr 6.347149617667768 8.545958536212757 5.82760816441479
Cr 6.420379981507092 5.980497430582651 6.449459806428948
Cr 9.103144549625423 5.323124703864617 7.019162657424176
Cr 5.632676350671309 10.40447623385227 6.893764596345612
Cr 8.177931869979007 10.269963686950025 6.839984468636736
Cr 5.314060587075544 7.621963691820397 7.867266890895781
Cr 7.1262473465621605 5.34496494680443 8.549791254721605
Cr 10.582542031352732 7.110076162736366 7.788634415416715
Cr 9.278537642660709 6.122204678216268 9.60452528182117
Cr 6.464681641321958 9.581064883201456 8.822249071953989
Cr 9.515612058689229 8.926120897886905 9.092646144215456
Cr 6.663135503882833 7.158830849979104 9.853281036350058
