15
Energy = -112.19697264 eV
Cr 10.99284251453947 11.045272764001195 10.585971411590116
Cr 9.670773398334749 9.429313256593527 11.887262767303383
Cr 8.658530459857467 11.378812977418098 10.048016730738137
Cr 7.3148455297797765 9.847810566626642 11.225825418520808
Cr 11.993965509702505 8.92032905990422 10.31735303692702
Cr 9.332454019928779 9.057986309258256 9.538803405037251
Cr 10.926016486912621 10.247949070519661 8.096786171411468
Cr 7.399324761120265 7.806891722326567 9.930309766289652
Cr 10.215910054378368 6.8245202292165486 10.032750466908954
Cr 6.09423990625052 10.118048841463727 9.204031460753878
Cr 11.400077518398717 7.946346873656603 8.190456517601703
Cr 8.238533529070997 10.133928251215398 7.465519213054189
Cr 9.87971536295094 9.136968769365705 6.08080879574478
Cr 9.02666319183175 7.508432282985418 7.5695069082644215
Cr 6.681596442155851 8.329309183513466 7.650840996023648
