11
Energy = -78.87745254 eV
Cr 11.506804847804148 9.520455825007751 9.207728246638794
Cr 7.634487877014437 8.62889246162275 10.722689443048395
Cr 9.73283404378431 10.75650971861986 10.557761658929996
Cr 8.541309074801731 6.4302427196697325 10.318865818289504
Cr 10.326475166687652 11.100994344011637 7.876388668083443
Cr 10.080131000049645 8.319412312569002 9.599571728155661
Cr 8.231280514946842 9.595650512670204 8.254441434359439
Cr 8.58656610861939 6.846846325453881 7.978038778086991
Cr 10.084887857888695 8.847449588263169 7.202282727963723
Cr 6.554786963947612 7.856940980206339 8.744727267332093
Cr 8.259068008986207 11.635236747374863 9.076135800051112
