11
Energy = -80.3987989 eV
Cr 10.841650865060837 7.719437568578367 9.363336240225498
Cr 10.232817981085297 8.764623149925093 7.226165668162486
Cr 8.380950035766848 7.142045585135247 8.07009462613619
Cr 8.852157374089545 6.559013998036206 10.32612533073522
Cr 8.079367139763303 9.645136645524431 6.954244518075674
Cr 8.805822468077402 9.223444393844899 9.470999977525429
Cr 9.968763335207404 11.061667038169691 8.440268095069651
Cr 6.9689081622791145 7.956311405428347 10.36533909760219
Cr 6.935677164712641 10.626425050659481 9.291604151670109
Cr 6.354431300036878 8.494517771130711 8.08250443484209
Cr 11.608369745133896 9.948151690383511 9.516697872433454
