13
Energy = -96.26338868 eV
Cr 9.173819774143439 9.22559989614295 6.9247613720367704
Cr 10.613608680815025 7.231008878818627 9.524411787501407
Cr 6.066090410289131 7.920631951748203 10.365100178893305
Cr 8.3194487769531 11.230504863720153 7.993209864367109
Cr 6.8434846974692345 8.819012864173544 7.763129828001403
Cr 7.05309958774901 10.143759695436428 9.87901399063749
Cr 7.499491039746113 7.138515925188753 6.235256190366325
Cr 11.398890231123106 8.840292204957441 7.834386695295679
Cr 7.813307160055595 7.0317086429582805 8.917160720724592
Cr 10.51431017696007 10.885002882498613 8.71172811368697
Cr 9.089834732469859 9.019795614968084 9.428577004254446
Cr 8.240548500383278 8.030458995032646 11.423669295252285
Cr 9.606112926869915 6.749698374658235 7.231686656167097
