10
Energy = -72.74962489 eV
Cr 10.23764405179387 8.816646419995195 13.113628839436277
Cr 8.771620388277746 10.779090571404984 11.839732757026937
Cr 10.493320722767926 12.60906305345433 10.759416851454636
Cr 9.137603709512975 8.586087981009642 11.013529626472783
Cr 10.984073752925118 11.182117242699789 12.708398741245954
Cr 11.235077292335413 9.800265423982598 10.667574308367081
Cr 12.651807816556856 11.765906144256942 10.326492035733954
Cr 9.544756782946047 10.993287299180858 9.435710420014434
Cr 11.510384329280345 12.098258351008708 8.200024076642539
Cr 11.874375763418978 9.808193121304015 8.330129693302064
