15
Energy = -112.56750963 eV
Cr 10.62930686106857 7.7984963050715885 7.291154993807601
Cr 12.731448922273563 11.2175125036857 10.962542130933512
Cr 11.971498056516348 9.50940217030779 9.151516097124565
Cr 11.33056150768766 12.002829369119533 8.601944699440994
Cr 11.835164206997895 8.699048891077508 11.829352090387895
Cr 10.462180049015316 7.615863622041535 9.743049144577883
Cr 11.113465494021492 12.876177402650152 10.799017768770366
Cr 11.070124147090118 10.788472151637597 12.662390602384338
Cr 9.610799593546213 9.8483664435939 7.877288868788809
Cr 9.241825869934702 8.698751689217758 11.678950788816962
Cr 8.950030524425342 11.907603407023393 9.2947499112162
Cr 8.998134391051979 12.044121053946112 11.837047336966942
Cr 8.352503961943121 8.187913829454674 9.006002478491826
Cr 10.28803317290268 10.24907181151235 10.42443752323972
Cr 7.625859580423222 10.033375125900482 10.226638112205935
