14
Energy = -105.14159713 eV
Cr 8.553333945212538 11.394314711283997 10.320566231179784
Cr 8.188349601476714 9.248693883969334 6.635492688056775
Cr 9.735087302236828 7.594402282113997 7.618403609839272
Cr 8.458047008937541 11.674241305619505 7.87196884295133
Cr 10.330498210784798 10.444502277700295 7.298875950179963
Cr 7.657031564181596 7.326137786589035 8.603955828661244
Cr 8.181797882853132 8.246208671266732 10.93575882077916
Cr 10.036413611672259 7.040261181977138 10.072170473285396
Cr 10.715660731214985 7.6474523202701 12.249465094540781
Cr 6.944187205702022 9.738220924502123 8.52111522991717
Cr 9.22938901983758 9.39887112197718 9.143672235007216
Cr 10.057047466552378 9.830746512751686 11.630948412742688
Cr 11.475896084148266 9.137366405855218 9.860217246421202
Cr 10.718936365189776 11.56025661412368 9.519065336438292
