13
Energy = -95.89195706 eV
Cr 10.367570117804613 10.339004258283968 7.2683692937524755
Cr 9.507839646097949 8.365629861001608 7.159202918256473
Cr 7.468903610437379 9.635041284100353 7.541693446672337
Cr 11.7953534195926 8.419653014428528 8.852973959835035
Cr 8.670715621523339 11.660864703824195 9.208737577111311
Cr 10.283166624602678 6.782293634079682 9.32065528678543
Cr 10.928690743459883 10.77569307873175 9.599630375810996
Cr 7.2452848221088955 10.045513042524112 10.053973171442353
Cr 10.81336334577513 8.565075782424772 11.353621016482027
Cr 9.35919219333598 9.114474092898469 9.459366952111669
Cr 9.114003682967242 11.607215078371729 11.517361033598911
Cr 11.23312170457621 10.759749327828217 12.040710452947927
Cr 8.634369777056744 9.351368150841258 12.045279824531955
