19
Energy = -144.33681471 eV
Cr 9.487051607154502 8.360294929183066 12.755682394490568
Cr 12.295846355323425 9.009908708873999 12.542440615109882
Cr 7.99778154180973 10.770909757620721 12.570938467928679
Cr 12.642157583297246 11.736944889861446 12.30869223522129
Cr 9.99983998177546 12.87179077061642 12.338345259869477
Cr 12.537381230575209 9.90370151377777 10.423765232741882
Cr 11.413835731452837 12.464801631174476 10.395499074726711
Cr 10.945158345912626 8.037406004202946 10.277630252990296
Cr 8.631390588987182 11.999576527902494 10.523154815926876
Cr 8.50039114067788 9.065458960571586 10.702336854938913
Cr 10.005706216462109 12.625039973848349 8.397918925129726
Cr 7.830344896014759 10.567129467971585 8.796906607949019
Cr 12.133066531398763 11.44681372173958 7.755799366063898
Cr 9.213830071564125 8.145315252997388 8.206073990268985
Cr 11.609917055794767 8.450347881191055 7.895539722958083
Cr 10.517895325646798 10.587382494865514 13.58042813786443
Cr 10.369240651871424 10.400295075699887 11.307312620668755
Cr 10.163498692228616 10.316315027407342 9.009290447839971
Cr 10.391761975835491 10.281371946352513 6.659806229557884
