19
Energy = -143.8433525 eV
Cr 8.928052825414245 9.89842413464495 5.03930693643644
Cr 7.5544032182466845 7.582776983995867 6.134965451157898
Cr 6.924413648610732 9.871986163711675 6.4561401359852395
Cr 10.63562448428317 7.889391682063669 5.937743241899505
Cr 8.767880643296984 11.072425810329909 7.506227822833829
Cr 10.851038969203316 10.18813836182155 6.568031242878805
Cr 7.263356765851926 6.480998305329555 8.458572247431325
Cr 6.38874429732601 8.672631314271456 8.54399298005405
Cr 9.615365422219641 6.133570882633754 7.881587351797203
Cr 9.018910073779125 8.535363643875753 7.672885292633906
Cr 10.283612577852756 10.80247945770621 9.326289078735813
Cr 11.22993585447843 8.709114703047861 8.617864530474517
Cr 8.225426827800176 5.245168889809358 10.33850788316402
Cr 9.891004058559274 7.009719536451799 9.93156916077889
Cr 7.246021295416446 10.657134701771604 9.439847511335085
Cr 6.195298012178815 9.432728176256726 11.233545359221361
Cr 5.755312497069723 6.558815433363154 10.366585880758654
Cr 8.826684571836813 9.050761415363754 10.184736585822899
Cr 7.559518448958838 7.368974895934956 11.522205798984423
