29
Energy = -222.59258418 eV
Cr 7.2033545516845825 9.054506984096783 7.7607854052177005
Cr 9.925046747561238 7.6912090837393245 11.954013963752917
Cr 10.079138517119288 10.27489988875857 12.906638804626
Cr 7.923549422242363 9.72822904693443 11.88498748342201
Cr 14.754700019222756 11.321839347280985 12.271168089782098
Cr 12.957905955076736 15.026546167650913 11.01684064604055
Cr 12.80560729266198 13.113386517046019 11.995299785270205
Cr 9.452220617599078 9.32470984899695 7.884493428865154
Cr 13.258429844101038 15.046758394516157 13.823660717549696
Cr 8.60928324040588 11.839282837584642 11.32944215117979
Cr 14.856824646371646 13.139700083392858 10.386934311963838
Cr 10.430270182185785 13.763058859568376 11.010564416308599
Cr 10.305456985157036 12.516561141042983 13.149753668645053
Cr 13.589826649685175 10.852891032799898 10.525638471512993
Cr 7.456132492943808 10.378307076578267 9.514694270109375
Cr 14.329649303965613 12.709913993533348 14.097409826598438
Cr 9.724100701640637 11.814245737922567 9.101760218315615
Cr 11.982714782900748 12.695658044711964 14.444425424801326
Cr 11.110761831431267 7.934705160188236 9.18866271378111
Cr 11.257363995070516 14.890292120334584 13.204776799440614
Cr 12.46138752246743 10.761936665821464 13.059213452760059
Cr 9.761149491743007 9.441789932142695 10.418151784492165
Cr 11.69856898155249 10.235301367370376 8.791217876864742
Cr 12.409141171955149 12.737493813849888 9.386057625149709
Cr 15.304389640812639 13.995255867252306 12.098025367780366
Cr 12.079515726408752 9.285916245444925 11.273516720572493
Cr 8.267588086773877 7.703265826226337 9.879282674663
Cr 11.178765741114995 11.446380526118066 11.028965667052757
Cr 11.525138523680454 8.470545646241614 13.37400495777235
