29
Energy = -224.21667189 eV
Cr 15.148061905699057 11.966527814556477 11.1684570736374
Cr 14.329664780045121 13.86573755071209 13.35010697308187
Cr 12.27021300624785 10.900069153830133 7.643917313161592
Cr 13.699974942056565 14.099691172857284 10.678199362344472
Cr 15.323342748384542 11.60800444593156 13.489176554142245
Cr 11.236136516844173 9.63331621922575 5.860429486260072
Cr 13.194149847963219 12.017407227978595 9.5720272216477
Cr 14.359294799805959 10.303531657258258 11.286401385741982
Cr 11.784985354601218 10.365583503887459 10.365393383562123
Cr 13.962733632178354 10.175672391276049 13.912795617027536
Cr 12.813349924215094 11.94286507977792 12.25363990126509
Cr 12.933334541595567 12.621353876813956 14.532858666756605
Cr 9.353054248792878 10.330664887297303 7.3919623272797335
Cr 10.418899884151452 11.691269467613557 8.969910038094477
Cr 10.960939116468472 8.946476021870636 8.665925066274173
Cr 11.217399056068595 13.110714159922136 10.656030535759584
Cr 12.124194785172506 9.38846523411463 12.560258532890575
Cr 12.21341318178825 14.585369395560766 12.422376926175817
Cr 8.765652723073927 9.93276461921755 10.062814040780518
Cr 10.153390996666145 11.272816720930955 12.055429701586807
Cr 9.997772159033275 8.632887303449788 11.352588391182996
Cr 11.269841873349879 10.639643377053488 14.174940162828454
Cr 8.525941750567245 12.310850011492548 10.435750151447087
Cr 9.513422342158607 14.152595933994311 11.723237798778333
Cr 9.451097246430722 9.197123061073098 13.727513418170407
Cr 10.582657626482426 13.117389263528935 13.466445992667786
Cr 7.836815490569265 10.158441046628791 12.326963008502728
Cr 7.848016610034625 12.49326961781715 12.98136249381179
Cr 8.818752401774534 11.459951672155226 14.55411130082657
