23
Energy = -176.29323775 eV
Cr 15.444272988920018 9.899955350338697 11.083002423186542
Cr 7.68781734162186 13.432967668134188 11.180378741650685
Cr 12.81325895270985 9.419255847093803 10.776653359960141
Cr 11.62319397544983 11.744761709340183 10.670357054320782
Cr 7.265502256162576 11.919254926320345 13.07828833575239
Cr 10.41508241922604 14.128287693306905 10.893448202707
Cr 13.92835030321288 9.261004412071888 12.839818270084647
Cr 14.58278774262402 13.709959098256206 12.992115615926561
Cr 9.353805130321764 12.089998490845927 9.947290918072335
Cr 11.776624743944975 13.391205951074344 8.908453068547534
Cr 11.349127633413037 8.398914388657225 12.366740797761953
Cr 8.994105227965841 9.665461382145873 12.867246006696073
Cr 10.097012656209008 9.638239237385728 10.788231647769056
Cr 16.00903941172593 11.178482076334967 13.012892936612992
Cr 13.749633723662702 11.551911079704267 12.382582376594907
Cr 13.952900410092129 11.701912411843585 9.914934402025885
Cr 11.759875232315027 13.110908902290161 12.628469436599463
Cr 7.56226373011881 10.572957304239253 11.131566472485458
Cr 9.540199339153798 11.944172447164574 12.414326756288055
Cr 13.262953834270975 13.896663380160698 10.874445236579323
Cr 11.530766092468905 10.443676948375913 12.79846517057221
Cr 15.831632077734165 12.740899790703471 11.134781189566072
Cr 9.102641063562219 14.162094249466788 13.029369355712042
