26
Energy = -199.76909863 eV
Cr 13.190833302010542 10.887451256160961 15.461737446660129
Cr 10.300990499135068 14.963737431153172 13.757433289659494
Cr 10.475747477529902 12.766330619715847 12.16092771077152
Cr 10.373149655130469 12.363429199599794 15.065515056478695
Cr 15.494410406982492 10.607388847685176 14.756459878987627
Cr 14.296142599972724 11.660036644548828 12.979441274007396
Cr 9.432996153097147 15.00561068925812 11.469758851880073
Cr 11.994446830003872 14.901121506891739 12.232400283285148
Cr 11.156595304908677 11.869855761888115 9.518494069717834
Cr 13.466696240617576 8.12489490164879 10.738208621888695
Cr 11.70585323497567 10.75042601592698 13.333688870653509
Cr 12.671806755880429 10.376840405826384 10.924310258735863
Cr 8.6639729262974 12.332189000303499 10.605352354100347
Cr 9.951383275779822 10.372217931460169 11.280212385428438
Cr 11.371132379105653 14.30507689612758 10.015944631836634
Cr 15.179652357485171 11.777711586696645 10.709907836122573
Cr 13.621441523363972 9.409578813205174 13.222099273780016
Cr 11.151587201361016 8.70171955337804 12.362380138449051
Cr 12.825190443796066 12.769387601080583 11.523060050722664
Cr 13.445074171458723 12.572412991800539 9.281571769555512
Cr 13.784398727231057 10.18482035335794 8.824796656911484
Cr 9.495895252887516 10.618662061344965 13.747862624727274
Cr 10.928890875671845 9.089391204549287 9.569359669094718
Cr 8.666148066673795 13.260222941545678 13.55322184220567
Cr 15.28376810507941 9.584362874456755 11.247262306142273
Cr 12.368568716314964 12.953262449283587 14.103355205626753
