25
Energy = -192.52502819 eV
Cr 11.299514143511797 11.331744726915389 12.832611023379293
Cr 9.53570580576963 9.65608470679249 12.285708818517032
Cr 12.61812762419491 11.732986836036986 10.885396436951941
Cr 9.859069582382762 12.043074344056595 10.923965354722604
Cr 7.820543446213233 11.387682894974127 11.985694232155563
Cr 7.532623266151471 8.579168581330174 11.5176637310659
Cr 9.651770887290908 7.811862309643771 10.331920255018195
Cr 11.365842807323796 9.61295080281342 10.587789314695017
Cr 8.032793142945147 6.137335897198076 10.058767367800211
Cr 8.792930011942705 10.0452898888118 9.717018000000023
Cr 11.088487415956049 11.877938812267447 9.14061034590671
Cr 6.616991361717277 10.768856600425691 10.079643613822846
Cr 11.599663527935839 7.331167049886969 9.049477090884356
Cr 8.024773730430057 12.451410186573407 9.29420579543141
Cr 10.708333463930297 9.425705808504427 8.095668930102867
Cr 9.966490242668838 5.74337336990706 8.401942894718976
Cr 9.339490013899924 11.202162394949033 7.183279075935047
Cr 8.913124106273475 7.831260815306018 7.974274290663742
Cr 6.933870881935942 8.147888724346933 9.317130198744032
Cr 11.091265659314736 7.2852299810553385 6.330178735016716
Cr 7.159201593368519 5.8120206031647115 7.8790565995332384
Cr 7.538447666039061 10.077324717362973 7.452668357672779
Cr 8.929336679719064 9.093973740598472 5.597815742706513
Cr 8.899437974547162 6.760774435580451 5.831804426062777
Cr 6.537758417636407 7.762585449045141 6.759749358598575
