24
Energy = -183.0403283 eV
Cr 12.40269147404979 14.164966596412809 10.58298768548331
Cr 9.748057618620456 14.385609707485255 9.709284583630339
Cr 13.010564517279319 12.12441319108009 9.832011213137273
Cr 11.36848437417106 12.43584044651901 8.31013341282985
Cr 12.921664358459507 12.224328345061098 12.162246357048074
Cr 12.268010829706785 10.087794805129578 8.88468289432649
Cr 11.391062524749957 13.732492881877032 12.829825223100721
Cr 9.021912902509873 13.036542585717013 7.925013521240111
Cr 14.056080453263757 10.065810936736783 11.298831627624596
Cr 13.153691365417224 10.234283867678226 13.231042780252077
Cr 11.560396727136869 10.267684476953708 11.02837249400467
Cr 10.137287176962333 10.715294094513922 9.136088545377435
Cr 10.589910380627332 12.564232274933874 10.905728389137526
Cr 12.538493868236012 7.954065978313927 10.154173521303074
Cr 10.968265998674761 11.20614037084342 13.622793723385115
Cr 7.958768707959125 10.27928802383614 7.919774639209358
Cr 12.017003294568777 8.386323326124014 12.150386586603538
Cr 8.644768594830262 13.013348545306991 12.597913977804028
Cr 10.07602929065007 8.565114879125913 7.936407524882943
Cr 8.192127549391119 12.04709703862232 9.795705816111576
Cr 10.070931266364921 8.203815376721804 10.138556882398717
Cr 8.061379776682324 9.066857659782134 9.813838312573898
Cr 8.868042976297337 10.679201593657615 11.71900116245748
Cr 9.737370595088064 8.750791427129549 12.58457086005005
