22
Energy = -168.86261289 eV
Cr 12.593721966350369 11.496293688794983 8.272437766781538
Cr 10.349309519403048 12.01976728195446 9.398189501584007
Cr 7.0008181775807525 8.299199742618075 10.60418552516784
Cr 12.727345353841365 9.145354968686053 8.874564317134196
Cr 9.496299649688561 10.925762989951187 11.537439125389863
Cr 10.860101684894836 9.481064223862097 12.670419769027838
Cr 10.91049496438702 7.009532429663798 8.837422640530777
Cr 8.676817794733331 11.239730539395815 7.629748276902117
Cr 9.36797987875222 8.276176595295594 10.694181211232179
Cr 6.4725586480949895 9.619579249797672 8.109755093724425
Cr 7.89807048749206 10.37637737221989 9.851174848246814
Cr 6.414123882254552 12.030985733163329 8.257657077080696
Cr 8.770932927254025 8.669309600402586 7.880617712499078
Cr 9.202435026349251 7.454181371895585 12.808092366332655
Cr 7.892691726178462 9.493416668423409 12.589446279663225
Cr 10.878011918309012 10.590567724324204 6.889879033404669
Cr 12.293430557472316 10.673347034160239 10.93517250043683
Cr 8.68983190008366 6.5016130490011985 9.182359814047555
Cr 11.689580507960997 7.887143274487099 11.007462991811856
Cr 10.428731762184471 9.703737285435734 9.166618416355764
Cr 11.130719316848483 8.205871964893722 6.910843210560394
Cr 7.929773464677579 12.7239497775437 9.981557936530205
