25
Energy = -193.92842441 eV
Cr 9.57787189067855 8.479247838751398 6.670729343327886
Cr 10.394311936095617 6.464363996897316 7.7467261211111795
Cr 8.011149343162458 9.739217030267252 8.527594823291846
Cr 9.907211103334504 12.730182016674531 7.31966625695881
Cr 10.907895390220373 10.549784387658743 5.684187098036877
Cr 12.048488668032306 8.798581450871877 7.333424340313557
Cr 6.237363555178294 7.938353338091018 9.361233920077249
Cr 10.432673451944238 8.380086211137485 9.273061578195366
Cr 9.359761222778538 6.267434465415935 10.453324722989793
Cr 6.961098066097912 6.012583852523803 10.717318965355565
Cr 10.252657430958713 10.514008182543932 8.14780105008299
Cr 7.196659450927069 8.294145893341936 6.706140994044568
Cr 8.574580934958611 7.047261737896126 12.939587866272738
Cr 8.223800843469931 8.465428876983188 10.794209581010687
Cr 8.428398986346133 10.820676769577359 6.304503322041012
Cr 10.597619637634818 8.504498371266417 11.685599725969205
Cr 12.51645912696273 11.2694775044364 8.033954670475588
Cr 6.389633722689195 7.80019814838379 12.157756549187484
Cr 12.083205580864918 10.05770043499433 10.025442139065207
Cr 8.21458837698095 7.038071306725375 8.498112549200522
Cr 8.469791017839949 9.535223781202214 13.015160967231418
Cr 8.325796885857532 12.154316534297893 8.935318559553243
Cr 11.059317352963818 12.639170058637543 9.47244935187843
Cr 7.097690670422551 10.454295818204146 10.68943374881
Cr 9.674098809570784 10.734037344945358 10.563731489428216
