23
Energy = -175.70384686 eV
Cr 12.563681101970428 7.4521524421187175 14.36088653622222
Cr 10.046809747941564 8.311377129451126 13.597383701633918
Cr 11.236186174289719 14.8136130280248 9.514401381928833
Cr 8.442032357839631 12.842304740025686 13.860741231054794
Cr 9.914470952106303 14.208724983293445 11.928687802871224
Cr 11.380557118253991 12.758404150834622 11.072377286267274
Cr 9.40958367715078 9.044559940542916 11.440268724645032
Cr 10.303831946625637 10.698438848900567 9.802252046881883
Cr 9.529587773631654 13.249853987788864 9.32404157401301
Cr 11.388585727174215 6.700192894453512 12.374809307649688
Cr 11.053843004910588 10.600984029200918 12.472119084024827
Cr 13.05143652296254 8.921470611166178 12.54466846367553
Cr 10.809064531275316 12.63535219091717 13.725818123015179
Cr 11.517737339520384 12.189815368152322 8.333281399797961
Cr 9.013944097560485 10.51358444126359 13.91426750335101
Cr 11.541566496873962 9.26108235949996 8.27035652962414
Cr 12.663247728622004 10.61987064615865 10.438114878910842
Cr 8.858699454766018 11.951350310044264 11.576388417773721
Cr 13.73135613129423 8.15051020509008 9.679554263326056
Cr 13.228080815726248 12.995393983065478 9.679681824216958
Cr 11.669155522334908 8.440153487541462 10.727312885238918
Cr 11.609896566427052 9.759398073839431 14.693354920041381
Cr 13.59230207729965 10.334017582993669 8.314943102468076
