21
Energy = -159.29632857 eV
Cr 6.478774635418561 7.511885961928873 10.857176738462291
Cr 9.246541206873523 7.503941807433758 10.520431577531925
Cr 7.064568355604643 7.704361442031088 8.83874314098369
Cr 10.548044874058977 9.218350909547773 11.796485907360632
Cr 8.215979677115014 10.042063877734538 7.750823546883626
Cr 12.746492663196294 9.336558771520993 10.478602265608785
Cr 7.991160360148695 9.599394840605775 10.532751091855422
Cr 9.933650060015111 13.416627006011637 9.747414982551692
Cr 11.614870840781352 7.310426925378738 10.159813413685216
Cr 11.48699081864241 11.607427242118648 10.417491704003123
Cr 9.319424644699572 10.638097987906542 13.951017468792577
Cr 12.258234424784273 8.924789257479354 8.013578477569597
Cr 9.78332354595807 7.73120958092954 8.086380151971092
Cr 9.280598593823369 11.32394155295119 11.604866136663171
Cr 10.248033731539769 11.807211535786351 7.86720180624998
Cr 12.423308425052477 11.102215031843517 8.172387413489364
Cr 8.245300490233806 8.988438782240383 12.750074918924195
Cr 8.075262622822635 12.173295202252545 9.592641955430395
Cr 10.424625260976143 9.71197988313401 6.540837801043764
Cr 10.23536868164475 9.7837538662113 9.314424770274579
Cr 8.02215766073688 8.230206799774134 6.494717578949854
