21
Energy = -160.08737444 eV
Cr 14.018698249574374 11.045568940340157 11.395396058052576
Cr 12.305306906541569 11.810865176269282 9.318262207401983
Cr 10.376389161803719 9.962681942336744 8.664002583119577
Cr 11.917332005805035 9.788776487013118 11.021861184062166
Cr 10.263109447669557 12.52337842784791 7.607698333803283
Cr 13.285632212138545 9.079095617695362 13.254952316886776
Cr 12.810213122270893 11.192877963791005 13.546304821202282
Cr 11.54633798513711 7.481721456432423 12.090943963922369
Cr 12.277872065843265 12.79033410322369 11.426298451775633
Cr 11.341553398491467 14.013226212763447 9.130142511560534
Cr 8.918698190748998 13.392621967325482 8.740222746514947
Cr 10.778880137380204 9.122945204843129 13.527693507278684
Cr 8.453633083400065 11.03684649059198 8.043346693935478
Cr 10.142082144790743 13.987217040362182 11.162650486894927
Cr 10.645526685003706 11.552316943701 12.62186449248377
Cr 10.003460744591205 11.780013252602043 10.191018238871681
Cr 7.709869171032817 11.138444666538536 10.176391532988736
Cr 10.518009541860263 7.462368491011384 9.620212702168319
Cr 9.24313379490135 7.192272726017243 11.749141402724847
Cr 9.49086495504787 9.445053523999963 11.400510404295279
Cr 8.417311366475314 8.677005666811224 9.459514348686156
