23
Energy = -175.60449096 eV
Cr 13.30436676382559 13.474916849778136 10.64874363985246
Cr 13.505018904939629 12.554191836814992 13.303639876965708
Cr 15.174829336476707 12.422221905557064 11.52442048164391
Cr 11.780885826428797 11.840008380125324 9.13267946952476
Cr 11.165458547353028 13.31345821758195 12.139514494804645
Cr 10.742456844964897 13.723032500369017 10.259704477170569
Cr 14.404177853597735 10.64399498917578 9.845190384578505
Cr 9.666839775476635 12.460860729904468 8.230764698605329
Cr 14.957412020143446 10.311412930843613 12.555497588644132
Cr 12.739953686384135 11.16659307946743 11.393169154997416
Cr 13.832963789555885 8.725671057948965 11.29827254234725
Cr 8.351901169625728 12.894476887735776 10.002696747131308
Cr 7.2758129333829915 11.115117226646863 8.677341480544735
Cr 13.038770761056096 10.229126223444192 13.915903623534529
Cr 9.5145282135054 10.146199527805981 8.645724681582315
Cr 10.051015478120911 11.26535603112379 10.827019084619636
Cr 11.756198000681142 9.30078458236224 10.062403874058791
Cr 11.247353199313412 9.05654455755661 12.12930363055025
Cr 8.690175274524515 12.384094850278204 12.705120090525483
Cr 11.078708410658773 11.062915397235274 13.184799144089357
Cr 7.829728079047482 10.334318072979883 10.952841652522272
Cr 9.26106561167095 8.667014436946694 10.458001130426386
Cr 8.904171615651412 10.088911929750125 13.016896135475436
