21
Energy = -159.6051507 eV
Cr 10.397958739373008 9.286067558692807 8.862133388656714
Cr 11.622016869320909 9.860096179982644 12.689351927274473
Cr 9.846179003467041 10.623677293726391 14.10348299703948
Cr 10.510261878728873 14.484216827056922 13.665792302450262
Cr 10.723578427999977 7.629662583813797 11.237820250467363
Cr 11.484812862460306 11.351713688888193 10.36551835027798
Cr 7.9657598952356965 12.61185690108437 13.020547625706431
Cr 9.704748113050897 9.827210042623797 11.286957504419101
Cr 9.192853953609756 12.805222161719405 14.883826925516983
Cr 13.021481619040419 8.486020969168372 8.086157675177398
Cr 13.24778126324863 11.816012265097141 11.78310890088476
Cr 12.277546436705366 10.99500784074866 8.180477303281224
Cr 10.933788997411298 13.546293549680477 9.708226118417965
Cr 10.409535146715262 12.268994033718242 12.190666471907566
Cr 9.224314528848714 14.231823023495359 11.621067255403489
Cr 12.416745087838004 9.120913140192407 10.415764115725535
Cr 11.301263465148265 7.115465083020389 8.904844827884219
Cr 11.77595920991514 12.244442998765198 14.055480518554742
Cr 13.325003742815396 13.14684576211561 9.527166053948422
Cr 14.139175130630385 10.546440296994456 9.624552076376919
Cr 12.119885076969176 14.04440099827901 11.793823967461702
