28
Energy = -216.77982314 eV
Cr 7.883492221994157 9.938651036568741 11.508649093689739
Cr 10.629478492128161 12.027722869926835 9.057983940981785
Cr 14.524865221025353 11.52143666960505 12.46090982621738
Cr 12.176673963179704 11.912027482921102 16.01278564388925
Cr 8.114579260728354 12.493502753554479 12.782959270954183
Cr 12.76026194918932 12.201788156860585 10.942769524884055
Cr 12.76324502177909 10.39269962642332 9.519043100018697
Cr 14.950186183623613 12.818920997648094 10.024477504553293
Cr 10.061805253055132 12.929095245278106 14.388475689930814
Cr 9.822246398974627 14.791880816068474 12.760485538387849
Cr 10.625940492187755 10.608314819793621 15.310941533694914
Cr 12.013765887327269 14.125883752624814 14.895143034934934
Cr 13.614793712099601 14.797064047480998 10.307270131117008
Cr 11.858427581060125 11.68896686057873 13.259333131230962
Cr 13.427911038106341 10.232511048554107 14.662620144709768
Cr 12.137894771139113 14.211158101846392 12.62583153981351
Cr 10.235835161627358 12.658479191643927 11.713322866122105
Cr 9.355570098968329 10.58582353246239 13.172069565022232
Cr 10.61601542724295 10.352046302567391 11.15628212476898
Cr 12.88938028866101 9.754414348914905 12.060354534856398
Cr 14.865517736721879 10.42095685702069 10.308120440521973
Cr 11.475935392426223 9.18471667334159 13.314437188143977
Cr 11.414069342428384 14.292785167985485 10.307619423790278
Cr 14.483272790569673 14.24569774940556 12.35503285439019
Cr 13.955317440949772 12.82367895741707 14.228844480762529
Cr 8.394372532753028 11.708827350332443 10.26940873783816
Cr 14.678157087938368 11.31182941586642 7.800833277506628
Cr 12.988897474696905 12.844632326566717 8.436113658251443
