28
Energy = -214.4664124 eV
Cr 11.926480313292327 9.963563156322396 7.666382703008078
Cr 12.943440695800298 9.001158270552688 9.516443222928277
Cr 11.155767775506337 7.541636110336524 8.786458824424617
Cr 9.579795675354259 10.985309174307185 7.176365134252156
Cr 9.656475034395227 8.430821963581137 8.025220276424971
Cr 11.029089296331247 12.573145602031628 8.4101450354893
Cr 13.014926405041823 11.623204883544938 9.292627759269568
Cr 11.621952188568322 7.604090621227885 11.443168899065574
Cr 14.243579523372409 10.38288879761746 11.247569168105974
Cr 13.953808797536375 8.622952105052946 11.883443398443688
Cr 10.609794188731048 10.439693795800522 9.576548906474017
Cr 11.6772386418061 9.984712553774568 11.564508952783191
Cr 6.676702918907751 10.380586059040972 7.120110802432074
Cr 11.133547034963721 12.685697561891686 11.030836400862652
Cr 8.94413677623079 12.581001298962509 9.626149202207289
Cr 8.249147073148006 10.321460107445752 9.13199052746678
Cr 12.13718696281039 9.052846623726879 13.944550566982615
Cr 13.255957485958834 10.54734800631403 13.738693458667763
Cr 9.49834793403403 8.506765549708819 10.687635063316746
Cr 12.747687938001082 12.425096292286975 11.996321968340451
Cr 9.656226543237706 9.1019205556634 12.887942800609737
Cr 9.170916023677059 11.092044038156676 11.59308084475328
Cr 6.99074586132792 12.10557416472133 7.686058313638623
Cr 7.170738575034365 8.335879036903062 8.957661704935587
Cr 10.76302998138176 11.458783473314522 13.479467640407714
Cr 5.636124349139622 10.599424566826498 9.642959842143059
Cr 6.622373982729633 11.931630592134187 10.499591406887745
Cr 7.415657216066863 9.559812391792192 11.413897597050534
