25
Energy = -190.24966361 eV
Cr 10.396792472256555 11.476743021691751 7.139302200865848
Cr 10.592420244159358 7.451171349248659 8.037044423970952
Cr 9.228522738511431 12.472396236706084 8.42410155883471
Cr 7.346066584050533 10.971455897354227 7.390210429197551
Cr 8.552634964934496 7.364715204712849 8.436596280503082
Cr 11.496602833606753 9.617134302799808 8.441672574263814
Cr 13.650308742821789 11.030887473433769 8.786037623235464
Cr 9.255981624191168 9.646045052019613 8.3228367658918
Cr 6.5995253453047 9.471829533121237 8.456154685805672
Cr 11.387196598850487 11.720982249413328 9.514986045088772
Cr 8.07167098054588 10.939142060683007 9.877283513711618
Cr 11.87284499365661 8.029262302351322 10.325554831635458
Cr 13.948848829999703 9.152176256650186 9.412610670030974
Cr 10.22669954714199 9.936852398657368 10.574181918884852
Cr 6.654300111737078 9.930991657698138 11.74127667118419
Cr 9.692743855050894 12.339479528637156 10.928210599292452
Cr 12.47561840027385 10.459172563908897 11.0716059832063
Cr 10.075748462202526 7.31372914181407 10.71076054548587
Cr 8.06519649422579 8.582060074609362 10.495169511063196
Cr 7.855200976616389 11.334341748355303 12.46446396592859
Cr 11.95702236011312 12.889958931606136 11.453058570262375
Cr 12.588897750067636 11.631308923121766 12.8257953980727
Cr 11.29095195657653 8.835247688144314 12.724704075882771
Cr 10.435544387018965 11.198579222191618 12.546649606394094
Cr 9.060843521524166 8.982521956507203 12.67791632674379
