26
Energy = -199.09730227 eV
Cr 12.918157120424338 12.000450303477912 9.630895996122083
Cr 12.91969219474558 10.061216046195167 8.029826942241026
Cr 12.4120306135912 9.563417201986411 10.254294020091214
Cr 11.34200759398886 11.763832458127194 7.320737559106351
Cr 12.122737319025859 11.49231635853486 11.395829135842936
Cr 10.161743162345532 13.021940000294085 9.813090212205005
Cr 10.430406747715315 10.556238603688184 9.470170341353093
Cr 10.800457638860362 9.319127912910707 12.437427198379487
Cr 10.200694199796532 9.413495346301218 7.1246575470081135
Cr 11.582544182155077 7.558518266325698 8.720318666453867
Cr 9.768714415357437 11.197722333835799 11.727822720211607
Cr 8.620078171612112 11.131738482349322 7.518933099581561
Cr 11.47219883207518 6.984797077215728 10.941398400205864
Cr 9.645672911379187 8.842831989762615 10.0335537395278
Cr 9.512923259771803 7.4340682207531 7.644980160221507
Cr 7.906419428787441 11.14025765248825 9.98073084300781
Cr 9.00435177723024 7.503897290485753 12.269251857961956
Cr 8.040445758564397 9.06271081440227 8.74929457352891
Cr 7.947752776247773 9.49015796169447 12.072925649206098
Cr 9.209314665696718 6.392301376072865 9.781144950997284
Cr 6.326266591553642 10.939807767504266 7.8476345819646225
Cr 7.0435936937954 6.771759995880151 7.98391529375796
Cr 7.719990509406129 8.887860734915584 6.232480602116076
Cr 6.22629171283516 9.693022027110098 10.347020344052059
Cr 6.894758667717511 7.665553850955185 10.331013655210889
Cr 5.745206123721589 8.066307147737502 8.201748665908733
