20
Energy = -151.28579684 eV
Cr 6.356278877165682 10.104369325757663 6.837217691000496
Cr 8.790940150371114 10.52889145376563 6.899833624538511
Cr 8.138411080989354 7.9328295302823095 6.396593719984262
Cr 9.994092755581905 5.967023833753808 7.1473576628460584
Cr 10.343001042486707 8.251427013866367 7.699376105405659
Cr 10.01147436430416 12.475432934352076 8.281640042420996
Cr 7.38632685876097 12.034658386654428 8.294944653887093
Cr 6.112770900983368 8.277940608121037 7.98479403217509
Cr 8.275382254387806 6.684660498567691 8.598214076831361
Cr 8.139667638097253 9.253005373847046 8.706171201943478
Cr 10.959886405287339 6.191328555420592 9.410443946748837
Cr 10.119715072977979 10.374906722448173 9.37904734470929
Cr 12.14806714485092 8.769808155748942 9.778647103009794
Cr 9.741989574898906 7.771491847474855 10.325692251125139
Cr 6.480290598058681 10.663022674446658 9.605300587977979
Cr 8.649376253382815 12.431010844926877 10.320259891666689
Cr 11.942186271596084 7.286603936466099 11.750129337789545
Cr 8.600313106486794 10.19531453398646 11.202552579922813
Cr 11.000989890879982 9.923824738194542 11.828985136906992
Cr 10.22615403070415 8.299763304170595 12.970113281362059
