21
Energy = -160.54219912 eV
Cr 9.609750797627322 9.142692448457593 9.257264335924564
Cr 9.883408076908882 7.596181176011766 6.864332238491497
Cr 8.634864403203611 10.943002402515452 11.168389525176355
Cr 8.660422961360037 5.837507868332486 8.074733752718382
Cr 9.126669076365895 10.282927848585208 6.850579498289225
Cr 7.639996876418589 8.718652495441663 10.888649405910645
Cr 7.283566283782929 6.32787417002991 6.26138001400839
Cr 8.14125187740863 8.507936972124746 5.482864492008155
Cr 9.86054901954746 11.76583623052073 8.653815976336874
Cr 5.554057330878299 7.640383355699761 6.871156739240308
Cr 6.8939055240148175 10.4109871740546 7.001629590033279
Cr 11.560384823232036 9.82983094293982 8.110826172484687
Cr 7.627257085249818 8.313647736056357 8.037959874061475
Cr 11.289372798282768 7.085355947071184 8.562359871102345
Cr 7.63233011040135 10.847408031636693 9.099027843421743
Cr 6.235429825125335 6.504978063766432 9.172069431914556
Cr 10.78010474185675 10.713140393728267 10.772210264568375
Cr 11.694271258068445 8.094819133019065 10.583223066944207
Cr 5.840033036474143 9.197174395596408 9.382225755283995
Cr 9.369573540865881 6.803120649387135 10.028900529691116
Cr 9.731076073588158 8.484818085686202 11.924677143052076
