27
Energy = -208.33070293 eV
Cr 15.125085514297846 10.28347123692258 12.16740433650141
Cr 11.987759118643218 12.706539931820041 12.5611648351736
Cr 12.974539611800575 10.76671847776475 11.015629842804925
Cr 14.465003308005588 8.423118740765993 14.224122139457824
Cr 10.896823917229703 10.43762725256981 12.384534938121648
Cr 14.810042070137749 11.932492301073173 9.755481095112007
Cr 9.552608827670788 9.205304122755045 10.856227086834622
Cr 12.502508595669559 11.07734945019209 8.661358460698827
Cr 11.547292978629365 9.119560016892962 10.175373983014945
Cr 7.550699885548573 13.624151265115442 11.98207603522403
Cr 10.088362927679752 13.946529405873854 11.907898301775427
Cr 13.364105716022557 9.751605731741549 15.811487944052262
Cr 10.538829639420097 14.441390623130834 9.528033171385793
Cr 11.490904752230573 11.664060394350761 14.776430133024013
Cr 8.387741975014453 13.382176944639879 9.822425216203303
Cr 13.41358704174949 10.87126456824658 13.690010488458295
Cr 11.403469202031093 9.137094927871297 14.39012554476677
Cr 8.22425157574127 11.200845537704996 11.562736825628297
Cr 12.481703879210947 13.209647924032861 10.433809237560594
Cr 10.4120664079385 12.797948053183676 8.080124420777889
Cr 12.91427974424921 13.307711684138027 8.083971189187947
Cr 14.613306676707031 12.734742093739298 11.811864424629654
Cr 10.436724961448064 11.758715413582612 10.3298968323217
Cr 12.870804140739956 8.628519777107401 12.509567666179572
Cr 9.529963456869117 12.111469286068735 13.337815498197092
Cr 9.796932185670453 10.063012730476807 8.468049175930592
Cr 8.12434600484719 11.08210884313952 9.071090385702037
