24
Energy = -183.94230235 eV
Cr 9.177331232424974 12.824476841391373 15.856973088054724
Cr 11.31760848625079 13.521925627703457 10.279969495090983
Cr 11.96098355557762 10.759137447308468 10.566461765776719
Cr 11.594058119244995 13.499190034665498 14.052062101917357
Cr 10.454780953716769 12.415297551345233 12.138651610056248
Cr 11.11296449839191 8.187812041850488 10.946617453413786
Cr 12.417169707372391 10.99749576326461 13.214555928244932
Cr 13.159444353959783 12.965031202222947 11.779056791010849
Cr 14.540912117040635 11.41778218853673 11.588284444355564
Cr 10.066405558956943 9.920130983833692 12.188292598106854
Cr 10.338695958883829 11.211949370227867 14.569297034496067
Cr 12.652639384083084 7.892017597846495 9.18853463299962
Cr 13.479932978923365 12.440895559686359 9.225140997342868
Cr 8.445397948225635 12.130179430924967 13.267921306305993
Cr 12.553318614699153 10.269423718989975 8.089920301864435
Cr 10.421273793745188 9.628978866340397 9.373634709518429
Cr 10.940951000415941 12.091104749970023 8.393195751766232
Cr 11.613688817984599 8.802435990555576 13.63134563636014
Cr 9.09050205485763 14.446131532023335 11.469782205995749
Cr 9.361202839135016 14.244261543015192 13.874735812156487
Cr 11.44254363998703 15.069641650892304 12.117802150871388
Cr 14.319156615047627 10.018491447409357 9.534046041610411
Cr 9.221334082903057 11.748405004238402 10.324219452648641
Cr 13.16935806258835 9.025651924927725 11.6674716697919
