20
Energy = -151.28043806 eV
Cr 8.36549222171778 8.358043225233379 6.28860499479319
Cr 10.786840154196296 9.976528510485538 6.268773499308112
Cr 8.508563053556998 10.66432244987062 7.076951631066527
Cr 9.952795930274329 8.484036167477687 7.893983396813194
Cr 6.354642317795984 9.388489228666774 7.818683771847671
Cr 12.279096263006478 10.236330031526442 8.091901182759338
Cr 10.43080519011202 6.3198486439443755 9.394520903285546
Cr 7.55384428821265 7.406343910067774 8.58364064303968
Cr 10.08594444527784 10.612367175409489 9.005064676048127
Cr 12.13883310917901 7.683520926969195 7.878445414105015
Cr 7.672531426047375 9.96184810821769 9.567594796881433
Cr 11.519286917935585 8.70331345590593 10.066419606956405
Cr 6.2659970224528045 8.329602666594706 10.530438456438052
Cr 8.6107365934373 12.461341716013568 9.697985797544135
Cr 11.841198494888678 10.58170296562579 11.17615011506776
Cr 9.146777388908617 8.215151219038098 10.308730824739532
Cr 9.559582260412292 10.563012189976561 11.379841813839745
Cr 7.142586089651861 11.16106218509145 11.488329599585693
Cr 7.836665929851753 8.80285011415297 12.242471288626984
Cr 10.960238111961896 9.102742318608396 12.25392479613129
