29
Energy = -217.37729879 eV
Cr 15.326861077133932 10.522675286109703 11.132765239560033
Cr 15.29719255215183 8.692822242620986 10.831331451628328
Cr 13.905268926349702 10.120762489019189 13.311483135385883
Cr 13.002771577664795 11.615900439405983 11.322509475184502
Cr 13.263380337637205 8.4741803955175 13.813732290384602
Cr 10.791624295119574 15.017285796528661 12.017057371722217
Cr 13.77549230291934 10.254599943099594 9.153970290736488
Cr 11.179428488500925 10.071561811944473 12.803225534983449
Cr 11.402064307834815 12.563901457061755 11.543780759396224
Cr 11.352243589915043 7.820747708665503 12.375526215269963
Cr 12.919232772194622 9.009976360141474 11.181242920939019
Cr 10.30058268003312 14.67394006773142 10.286986521151047
Cr 13.614341632123866 8.374226256050655 8.671108968515169
Cr 11.533596927631226 12.517886258015977 8.85612201021584
Cr 9.300848257053344 10.905241308432002 11.56114811471095
Cr 11.169375797325827 10.451660065019782 9.79256539701337
Cr 7.370908771208917 11.446612033865573 12.967495596536901
Cr 9.195623497928674 13.09640834819208 12.072945210797693
Cr 9.03222924190956 9.119613765299933 13.333630630508361
Cr 7.1685967326052795 13.30758726978454 13.137422773945918
Cr 9.470602338287147 8.594568207742038 11.092508504782638
Cr 11.419626729733622 8.145070671315354 9.653439418614287
Cr 9.209814035418962 12.43325444945555 9.767673434187602
Cr 11.668081118796529 9.826873211070145 7.544531337534262
Cr 7.290933618816814 10.544971035165213 10.262598373675148
Cr 7.034051528312877 12.902884524779521 10.622826509989599
Cr 9.832238582834368 11.406624596497638 7.440169281480704
Cr 9.147975023637807 9.786540056642842 8.86869971030219
Cr 7.505587709859725 11.809796769959664 8.178998085982009
