24
Energy = -184.01976755 eV
Cr 11.609599608820615 14.285173805286005 10.337470739992428
Cr 13.156506155802294 10.691294908905862 13.287541196306462
Cr 11.716313441060885 10.292013368500816 8.324649339202756
Cr 9.797280151071208 10.088828047687052 10.068015655108846
Cr 9.527407987815675 7.583506347426707 12.680531020176021
Cr 10.002730481114428 8.206786846927045 8.315975083369752
Cr 13.572414482335937 12.226142963526156 11.442356213089633
Cr 12.332726571244649 8.037887080409538 12.631802321179427
Cr 10.956225997710773 7.936802886193922 10.82670033674932
Cr 8.384905859919064 9.219131296196384 11.75304170063637
Cr 9.037839358553123 11.906266155847991 11.95103869730832
Cr 13.032583989031341 12.196583596528212 8.940260601629994
Cr 11.212472845643978 12.512207937680854 12.676562779084692
Cr 9.92188541029314 9.503858666009043 6.3806399506759774
Cr 12.656728422943695 9.92478990141356 10.556005203537346
Cr 11.09951677617461 13.284472821978982 8.068411146803363
Cr 11.155183330576582 11.947790709598927 10.401490820069696
Cr 9.13824095044358 10.357891703221508 13.78868847414588
Cr 11.001614264616702 10.060301068606016 12.440793645744954
Cr 9.135084644367767 12.878293490893025 9.538057961879028
Cr 8.331629498378527 6.899725159213084 10.366460271780301
Cr 7.850898270674102 8.867590858514683 8.725675233830634
Cr 9.087755089083746 11.005005756950485 7.808381793089297
Cr 7.387321838668898 11.04404700718081 9.937793289028448
