22
Energy = -168.43449617 eV
Cr 14.375003819056834 8.816101161195686 12.498971019165838
Cr 15.419258156604808 10.621018888836277 12.193452340932222
Cr 14.240819297072187 12.944184479100866 13.416379131798195
Cr 13.453159308757488 15.217080157625801 12.76649306154641
Cr 13.562046263076013 9.915218688689322 10.062799020085924
Cr 11.785313264405266 12.861038706330794 13.687404699054424
Cr 14.3812223500567 12.748056901490738 11.012483817057106
Cr 13.608878981638085 10.806510327038191 14.241739682566196
Cr 10.035988977225022 14.170369782587501 11.926536515828975
Cr 12.278124605740693 13.762384829697242 11.49865721359696
Cr 12.885563344267263 11.065400899325235 12.003486858441743
Cr 11.272313527321176 14.125297398675132 9.398326590568693
Cr 11.556833347800428 9.219182613409743 12.518287908547673
Cr 12.377151834799157 11.963536616349609 9.518143693399956
Cr 10.98792015779659 10.755972298076923 14.142105705212131
Cr 10.199706561886636 11.585892707217628 8.9025872753385
Cr 10.949331359056773 9.664736183043965 10.266021881188653
Cr 8.93572984184977 11.774035838042767 13.440764362344824
Cr 10.426921070091526 11.898286066944733 11.691641362010634
Cr 9.021483223378196 13.315676809256011 9.948911027515654
Cr 9.13327693432372 9.480576205204752 12.490689284399611
Cr 8.532201397946393 10.66702756517735 10.79058620793353
