22
Energy = -168.11225423 eV
Cr 9.07801800723101 9.189297531830393 12.049747290377654
Cr 7.46813260325187 12.004409714638363 11.345235600288545
Cr 11.220934991375334 10.214542466227465 10.467682373988852
Cr 6.727103928546534 9.74902845969225 11.791725229771494
Cr 10.782338289615787 11.894491918870346 8.820828257348513
Cr 7.855883795108116 7.1628750674041655 11.759350467456695
Cr 8.338549932956013 12.348207284476606 8.534750305327469
Cr 10.034912559850971 6.325070460168199 11.503021865346687
Cr 6.234379439936698 11.03164898903016 9.312050451279875
Cr 8.702209960934528 10.52692656345063 10.05143979384518
Cr 9.78254544293213 8.013286624918056 9.932341396665224
Cr 9.361148873932132 11.196311975611899 6.476779887813078
Cr 12.227195483637077 8.53655464175564 9.148050169575091
Cr 9.76969565861673 9.639608188882102 8.163317021618928
Cr 7.382441855000326 8.502951481680315 9.828786349323254
Cr 8.694523833958488 5.681653334927553 9.50064032347862
Cr 11.012232015691653 6.208550703512078 8.732200882427366
Cr 12.141386395987016 10.261396513458864 7.486400493482674
Cr 7.313324108739373 9.99653555158537 7.4885277633261715
Cr 10.74403058651857 7.915136644418685 6.931464923709709
Cr 8.570487707489923 7.25889237299283 7.713163183594768
Cr 9.119402877072476 9.040590638547053 5.518586416858486
