24
Energy = -182.94410875 eV
Cr 8.352810215492774 9.446469114504545 11.712978225548227
Cr 7.749040758864542 7.572540287415289 10.539037720875081
Cr 8.198707654297147 7.699347273579545 7.836336643509455
Cr 11.2001861509915 11.626390066381415 11.574109239179107
Cr 7.529344280820289 11.4065630757357 10.896911479765084
Cr 10.358392778548511 9.58066814106431 12.052904486113672
Cr 8.999932277881156 5.920807974563362 9.23083588106511
Cr 10.45413871620637 13.531362118781368 10.283447970083563
Cr 9.633449274703482 11.017679912095533 9.843990461703374
Cr 7.924824432596648 11.815775878658732 8.191442542458985
Cr 9.554241738122363 6.963648488991317 11.703009686849716
Cr 10.284242840283541 7.421071866730744 7.385209397495293
Cr 9.094733972553982 9.875654627098779 7.4344268357429195
Cr 12.042388830844303 8.015960336798942 8.547929111480808
Cr 9.816102402471541 12.485249254253235 7.828884534359229
Cr 7.392405322549066 9.575111836590748 9.278951892047271
Cr 11.093347685051091 10.021657844506848 7.767114061247562
Cr 8.56923625651132 13.41352761487009 9.953288208115682
Cr 10.90574774727391 6.062857777371723 9.544786476556437
Cr 12.078411205003402 9.859309094409651 10.12651388577909
Cr 9.83220039685822 8.46543626742267 9.575631664476349
Cr 9.168013108869149 11.977590302696512 12.10368388643294
Cr 11.508062286173262 7.785580503823683 11.224948199775918
Cr 11.752776749618098 12.031638750426874 8.916023102947381
