24
Energy = -184.04646274 eV
Cr 7.672492217387776 12.425827495658437 7.4870269442480835
Cr 12.747144583767891 11.653707284170814 9.602734886081059
Cr 13.652462852821724 7.8348596765954985 12.393799530689703
Cr 14.066416542735169 14.003406157588449 10.315270675348726
Cr 12.462795008597578 13.515963034757135 11.840424611227528
Cr 11.680382540796284 13.787422790082303 9.292934755009066
Cr 10.792754738635564 12.444814437673923 13.30793076893678
Cr 10.125936894359267 11.942084565401235 8.609582285742363
Cr 10.980794946673857 11.203842143941396 11.200255194122098
Cr 10.349927173702806 10.554347780684088 14.7688071871284
Cr 13.929317787921503 11.690944610930869 12.039544382894615
Cr 8.590096052010898 10.290927453237286 7.784759179777306
Cr 7.960803425657562 11.990578944612732 9.93605111370402
Cr 12.976962891689592 11.88796699592085 14.210746468397941
Cr 11.231336528976977 9.764944858709221 8.853634827734135
Cr 14.511650862887866 9.661596528124363 13.341014254190513
Cr 13.274764785115314 9.603739742383649 10.858211894344409
Cr 8.561875273125194 11.560681545668498 12.601272189655635
Cr 11.258002470879136 8.550491616158766 10.824940979788884
Cr 9.76819019907111 13.444779156171261 10.969824529353648
Cr 12.07570686290816 10.023581006439274 13.151515822463027
Cr 9.414865192684132 9.543682560082244 12.872380473451845
Cr 8.99243919756329 9.975138560748482 10.207357138328994
Cr 9.078352362298551 14.05381575583598 8.437813352690576
