27
Energy = -207.42657669 eV
Cr 7.956641033768317 9.225924804487255 7.884091843300391
Cr 6.31699294890859 9.871823528429573 9.767557132240677
Cr 8.151124214307519 12.559384005721435 11.174071112379561
Cr 7.871906475654476 6.865710482184451 7.898897834949089
Cr 9.4547731139204 13.146921919440564 9.345155388398753
Cr 12.023038577336386 8.486005794427813 6.783025913030563
Cr 10.59055849164942 9.630401164455893 8.628403388051137
Cr 6.378677568286168 7.412154251585664 9.321163783207012
Cr 7.002279510223438 10.407536085279528 11.969494464293444
Cr 8.88876458469168 9.872504577002926 12.385208146678165
Cr 9.140230308301028 7.238597287069778 12.36260587565079
Cr 11.713456466950932 11.926905473447206 8.187784304980681
Cr 7.573581923828501 11.99284376264803 8.454691283340503
Cr 11.118791651922196 10.505671539708894 6.099306006764801
Cr 9.26995167399568 11.247144581021294 7.467555900379421
Cr 12.421365280248368 10.640386151807505 10.025518949182883
Cr 6.812822315235642 7.8798660871606865 11.940247950020355
Cr 10.739160486089785 8.964653188766734 10.937916922821445
Cr 7.80000262552907 5.734459427471331 10.50511965180835
Cr 8.739779241770005 10.562840263720927 9.942007768137495
Cr 10.60793525238297 11.33487694683547 10.774355845766737
Cr 9.370076096837742 8.743471026940076 6.291308501905808
Cr 8.547523355153269 8.164072002563476 10.149464127962657
Cr 10.425645135583567 6.548332169608298 10.832568878470196
Cr 13.186353534533087 9.892719148528897 7.916896531058055
Cr 12.523180885004908 7.970525208728806 9.45123400362827
Cr 10.097076916828584 7.426200246516252 8.69773494192097
