28
Energy = -212.76837314 eV
Cr 12.17394595293328 8.490126018069883 8.25560010666342
Cr 10.230552541957929 6.929860713782537 8.599816397517376
Cr 8.445094191267337 6.9908427980947465 10.4110904727268
Cr 12.057293574974722 11.578648500838682 12.483558329705803
Cr 13.89341358517721 11.98327189961197 9.474570276625661
Cr 8.856724848082504 12.26389912115982 10.389245189918217
Cr 13.95065522243971 12.575890844687772 11.150739068690129
Cr 12.810619607692352 10.225981524818854 10.917744574850758
Cr 8.096181946596994 10.75589460571764 7.252499009402376
Cr 6.683202963263535 8.897344557723562 11.5405337650046
Cr 9.559730491835946 10.805660907992594 8.959200853922848
Cr 8.475637342875675 10.539880423294704 12.929531370618479
Cr 10.328396544266027 11.453642719084042 6.7439760158146544
Cr 10.446399562271909 6.724615279205674 11.281964109012495
Cr 10.714734853133153 8.513231681970327 9.989372705953055
Cr 8.35033084149018 9.506217544548887 10.622665425140953
Cr 10.445779593338186 12.990664806945526 8.270808150257505
Cr 11.483016557654507 12.381074906313621 10.234633315367066
Cr 9.43039444570937 8.296971383142704 12.453290695528583
Cr 10.492647321672663 9.197867591611216 7.21166781518662
Cr 6.452533361518283 8.33225966330637 9.535336173951139
Cr 7.050543896693052 10.659522601354027 9.357892552902936
Cr 11.466383009432787 8.904237841110891 12.550587933753189
Cr 10.179037625298099 10.68166658757529 11.547917058586695
Cr 10.492602675945095 10.165464204519632 13.93894218069726
Cr 8.524829459064946 8.52901655433898 8.331992986248737
Cr 11.888944248759989 10.721824888518013 8.70648403929361
Cr 8.310090480146215 12.728852739692808 8.080033518809078
