27
Energy = -206.21639901 eV
Cr 13.544617560556281 10.686058173768219 7.244810811259169
Cr 10.336777996675703 13.69669534628923 12.151238130761843
Cr 15.161027822660325 10.39993325374448 9.537588212746055
Cr 9.758643952594344 9.857391425505806 11.956619825439716
Cr 12.846754971248968 12.261076640883333 15.922736039426514
Cr 9.269674309565817 13.588099180271731 14.630048089755723
Cr 9.508031573438242 11.606186449929929 13.045775111575805
Cr 13.455606185764614 10.904872904872907 13.766541493198138
Cr 13.417903669617045 9.01005329434719 8.56554612548738
Cr 11.035868413625215 10.334798457894612 8.124314719145291
Cr 10.64061004734124 11.924597214724347 10.343275546992553
Cr 11.793064132436543 9.639190970322165 10.202331924194157
Cr 11.781771075528566 13.647956982110122 9.795540201270885
Cr 13.318024622550286 14.811475860099593 15.033214252033094
Cr 14.19575200525614 13.339106513625149 13.610684347335829
Cr 11.207274678173587 14.32794078373106 15.946526731580764
Cr 12.73669256906651 13.180548677043204 11.52958914947086
Cr 10.471949740622124 15.22985021334514 14.165016236463298
Cr 12.489766387043002 15.301541017222737 12.598774798939932
Cr 14.581532292263644 11.551593032382808 11.741231299101788
Cr 11.383779324606992 12.161866918797891 7.867108606577324
Cr 10.27786524853185 12.293864635173142 16.053267419806875
Cr 13.974798828761754 9.758476281581421 11.350671842709664
Cr 13.075163435865045 11.4887314293445 9.593296207808269
Cr 11.095336200386171 10.661079009898389 14.454884665762554
Cr 12.000551147417596 11.131548434694965 12.173919844242034
Cr 11.668794308939367 12.984849144313076 14.015765804076642
