21
Energy = -157.12814289 eV
Cr 12.4320465886785 9.013135182957752 12.272864347270012
Cr 8.185247680790328 11.72921592860868 7.007153116772271
Cr 8.676804541993876 11.48944151537678 9.487240038113788
Cr 12.67690694042042 12.68153918074977 11.651553927829614
Cr 13.120581934901551 11.11453315399104 13.749925241076397
Cr 10.863726518559954 12.465460963602158 12.923557032488686
Cr 10.201473118724351 8.121214357421296 11.611180715008905
Cr 9.768658811781636 8.999240805280422 9.245071377385093
Cr 10.530055873621446 10.87167365784335 8.170179571879881
Cr 10.552581249348158 12.945139651501883 10.070245446139689
Cr 8.051567191458805 8.09357802278707 10.469097234982161
Cr 10.095508249824249 13.207869498377363 7.761371604489291
Cr 7.697097725992772 9.444739524427286 8.891821527059031
Cr 12.296137612309565 12.08170192587479 9.1944892517881
Cr 10.938729344331282 10.692395436336502 11.038130830423368
Cr 12.267189301823182 9.55069416186245 9.862498234730557
Cr 11.711926820737279 7.175467321780106 10.10369514907378
Cr 8.603277758464174 9.822950112566673 11.37412132673432
Cr 11.672575550886203 11.512001973468413 15.456596229958164
Cr 10.961007031922888 9.831652137097306 13.258439863516863
Cr 8.960463558742049 9.421915504261388 6.6763092134658235
