28
Energy = -216.55187244 eV
Cr 14.852985085575858 14.816097728514801 10.336815744613899
Cr 12.224760052125466 11.534769600803967 9.544711499367715
Cr 12.042752479678983 10.078558288034078 11.41571621459944
Cr 10.335842320152198 9.74835121192225 9.704986625770012
Cr 14.321810039606687 8.58275752210766 11.869644189501331
Cr 10.373077213992174 9.946559761267405 13.41976672073515
Cr 9.40736204330784 14.386001222519122 11.283405881369767
Cr 11.850091694698717 7.830667376699885 12.162336486420864
Cr 14.028342475729035 12.90206844092421 9.18458619276101
Cr 13.176661010238066 8.755465771786314 9.848594037532832
Cr 15.660039902969208 13.174830556040224 11.617436399266557
Cr 13.115292632041973 12.479379367379282 11.689095608976572
Cr 11.502917838015906 14.013157952369609 13.07529732117375
Cr 8.227827826278943 11.240137796991249 10.596805789801909
Cr 7.9636905117607215 13.515265071571024 9.419512346851642
Cr 10.337385030022746 12.112906709949996 11.424851672946613
Cr 9.384284241239865 12.530821566243228 13.840156598657025
Cr 9.57952412168225 8.900208619394299 11.362370460793908
Cr 11.756960450240111 11.897042679870989 13.838083451753029
Cr 9.90001664813071 12.796901165952336 9.062019329353287
Cr 13.359246413541298 10.087009572412516 13.437484281676909
Cr 13.552894051658464 15.048874999284447 12.257332170743483
Cr 7.898102552751212 13.145289745529006 12.120255560394506
Cr 15.44283048774404 10.945798256029502 13.061295699754773
Cr 14.151334080949955 13.003743577319092 13.656925289847534
Cr 14.652305719821301 10.962727413237799 10.793807346422183
Cr 8.256263159065725 10.63026354064883 12.931887947364778
Cr 12.173374082223708 14.105342781430965 10.404599323702667
