29
Energy = -221.32033091 eV
Cr 12.455165866556351 10.397893670168289 12.44489924505866
Cr 12.435892847532962 12.000410999537925 10.769132078883874
Cr 12.812848582677958 10.015532007075214 9.572093096446723
Cr 12.04971009101325 12.740888025302132 8.168413677149184
Cr 12.252865644191948 8.46960853839044 11.412798743398495
Cr 10.166908994698165 11.170200632487976 12.549597315304238
Cr 10.516507185124697 8.752489669664982 13.174883451059209
Cr 10.256914373060164 12.607075042500323 10.683983662936761
Cr 11.424168842540404 9.89066758005578 6.944262604013022
Cr 10.487105595715303 9.843334728509346 10.861875978418688
Cr 11.111011181377753 8.343021157589355 8.874281922917865
Cr 10.1587786078174 11.788334013442421 6.4559418419688095
Cr 10.917328718020642 11.157832992756852 8.841822904837471
Cr 10.342976532854644 7.141027981814349 10.937938963042946
Cr 9.065731345470516 9.714788691418951 8.166269279104254
Cr 8.139625854147603 9.758396154150493 12.13064338773675
Cr 9.005298415378922 7.02961825158603 8.444632147201245
Cr 7.905526740402359 5.9168133876922715 10.683245661607197
Cr 9.648659140314173 8.248059184775842 6.502240848691479
Cr 8.506955468672713 8.410364030572621 10.264818282503473
Cr 8.489329100677878 7.410014537633317 12.594833322919703
Cr 8.975119566080972 12.492295745782972 8.257661531574113
Cr 8.419411978041943 11.25112404158558 10.17734896406231
Cr 8.842652963272268 10.082466645789196 5.626872636687849
Cr 6.626617629958813 7.275270091780419 9.042238382366877
Cr 7.440370577707135 10.916178484429533 7.394147672317526
Cr 6.301763671728552 7.832430872716577 11.45059513525021
Cr 7.222347835781729 8.456871650590092 6.945133336097207
Cr 6.697443615204269 9.59359675480599 9.404995549737393
