27
Energy = -207.92259301 eV
Cr 12.955323842401388 8.768898618719264 7.492772046941825
Cr 10.703776270686769 8.986011491637571 6.211384670338929
Cr 12.042116860345871 6.9686082356877135 9.469877813274797
Cr 9.189326458941268 10.8062940351103 7.7103137836001325
Cr 11.04770259144486 7.008185851998595 7.821407305215699
Cr 11.453957907745384 11.248585597998357 7.035651237582556
Cr 10.523532337434593 6.72888070617347 11.788116471784603
Cr 9.03709666738489 8.602769048353212 7.923622978396669
Cr 13.848910272587853 8.944490021233959 9.579163434514147
Cr 7.115087827915479 10.508729272760876 8.617431343711587
Cr 11.235393926658247 9.486691566317134 8.910942137993517
Cr 9.953828418904607 7.632132750851034 10.057752898331465
Cr 8.318200492767334 12.659295930581882 9.373537813873826
Cr 12.997660545139901 11.155533599557838 9.513722393444747
Cr 10.079357058418465 13.17751702702328 11.360964968812409
Cr 6.367028198684052 12.705582947373756 10.124010830533747
Cr 9.421152487152552 10.509603139375724 10.457642973497812
Cr 12.031716899629066 8.946251299274456 11.131885603187904
Cr 7.4282712341685055 8.19361761641278 9.596106742701952
Cr 8.111367778446093 8.287385020496943 11.849237391055288
Cr 10.941452094352325 12.258756440976853 9.199374848513454
Cr 7.935178037873138 12.735348080915303 12.092980288223965
Cr 7.084676025127547 10.493138518290646 11.029418988522746
Cr 11.615676172871806 11.22728019366759 11.528668623477726
Cr 9.863864773393207 11.562902755799296 13.552229904826792
Cr 10.032713498492742 9.19655778760081 12.562988797172686
Cr 8.056999324947828 10.592320449726843 13.400161714384176
