25
Energy = -190.34106038 eV
Cr 9.88087922232109 9.162059107591485 6.499065106751263
Cr 8.063789309891863 9.075313237281017 7.250700116810406
Cr 8.774425199562728 11.488615167755345 7.398950001596042
Cr 11.01121071071578 10.813299227243013 7.587761549087373
Cr 12.55968143080985 12.522959318817769 8.75436454616045
Cr 9.551040951441731 7.4058967367083115 8.575235776791637
Cr 8.08903942577649 13.451112091988243 9.115603590206792
Cr 11.52894871283803 8.531097227066233 8.483511779856663
Cr 13.395753243235701 10.660734410344546 8.71486658840621
Cr 7.520456665280809 11.623926795720484 9.82777537512548
Cr 9.249758547419285 9.910991166645571 8.989614196066315
Cr 10.012200098831759 12.33254079779615 9.328110495447598
Cr 11.295137672702154 6.277259781198452 10.647809303865259
Cr 11.484143978925063 10.563866784527791 10.172837407247908
Cr 9.963699197261457 8.511043445259368 10.791145928673021
Cr 9.37325202449051 10.90234735052724 11.434004533730466
Cr 11.21188179952612 12.77753832073636 11.488287516251154
Cr 12.33523299233392 8.671981204965254 10.943859508647638
Cr 9.546603635155211 6.363376791115406 11.997255078482379
Cr 9.060612219833773 13.050596274552202 11.597779209422058
Cr 9.256525180520685 8.873071957317162 13.056486062849139
Cr 11.330890890051805 8.001660304553631 13.028796103193937
Cr 11.208239077529596 10.57173720838596 12.469797070132268
Cr 9.223548355160979 11.480074907802198 13.918179708784379
Cr 10.887119997758349 12.790970923476886 13.742273985788907
