21
Energy = -159.60811681 eV
Cr 9.773743801815547 13.274936645644866 10.53596487279984
Cr 7.992206593786996 9.379117719801497 12.879278763544674
Cr 9.19478668372576 11.091723488473994 11.074363638019577
Cr 13.631418177241265 11.193974628011462 10.354438548299695
Cr 11.260457913690898 13.182403306334722 12.975484849114734
Cr 15.20872012334914 13.31801957880878 10.73597529723232
Cr 11.48716972828568 11.091593624548006 11.128475181517599
Cr 13.88556746518357 13.3286706104251 12.598309713753688
Cr 12.243711314258537 13.55371787828304 10.811237152952147
Cr 9.765057294137348 10.997683923370001 13.414735217342253
Cr 7.9948999122170985 9.155157508970351 10.441646456506296
Cr 12.684917625984017 11.078268937849613 13.160807549127892
Cr 11.185332072461398 11.732337010289596 8.918134878936597
Cr 12.624065615567604 9.642397531409738 9.03372778795668
Cr 10.389932995591415 8.710528384343954 12.044872292020438
Cr 12.76515686195973 8.852281728358072 11.370356132235562
Cr 8.935167287261761 13.152997356223867 12.90465244193284
Cr 13.476907850969146 12.864510362595734 8.71588955211328
Cr 15.100769668907512 10.90511539781008 12.163906916109411
Cr 7.239644155699874 11.57370830507381 12.056250751752865
Cr 10.422335713065836 8.976221180489608 9.780818213121572
