24
Energy = -184.42811777 eV
Cr 12.598422395719611 8.296116528899782 9.544512806316128
Cr 13.255087764148243 10.319439488287873 8.252208996579364
Cr 11.881058604775431 10.879842891582879 10.290917638957227
Cr 11.07008915407187 6.853633421833035 8.324443951121813
Cr 11.375536596270562 6.9758305756223775 11.200513953812996
Cr 10.933760021371866 12.110228007905727 12.605330995670613
Cr 11.093519574671372 9.617364035693072 12.363339792711779
Cr 10.323704901897349 9.0809052527219 9.810346645837303
Cr 9.109639563095504 11.263650004438452 6.400298929824376
Cr 11.097441348902073 9.440440508289441 7.569013487425989
Cr 10.607324798602487 11.647577809042799 8.308181019879548
Cr 10.248908090344683 5.252496631256829 10.088954844107446
Cr 9.497977444868921 11.418223002714974 10.844362926540597
Cr 8.796937441356826 10.241634078580544 12.833889503443713
Cr 9.367809664945604 7.7403887499171615 11.84920044650692
Cr 6.9756413852362655 10.498000471830785 6.732646016406947
Cr 9.064829170045607 8.492376344800642 6.9569072108479055
Cr 8.855573717878524 7.4080351453699125 9.21395804691896
Cr 7.651096129499774 9.299133945693493 10.856101810846914
Cr 7.761556266173268 12.370237638574038 8.692041417680125
Cr 8.575297343562259 10.13782572000436 8.75795738653241
Cr 7.222334027279649 11.79863910111253 11.048401054674143
Cr 6.7030337747217175 8.317055043291383 8.540631026842563
Cr 5.949970171526329 10.557474953501544 8.932389441480037
