27
Energy = -202.66693421 eV
Cr 12.101214308586927 11.686139301626529 10.463423142824954
Cr 13.2736455418639 10.204066729254535 9.200494424480802
Cr 13.882108862390215 10.478415496800258 14.143526366985528
Cr 11.899158333153675 7.419051835201959 11.74724540968199
Cr 12.527372111756685 8.173388407082717 14.48026736677273
Cr 11.772718744060153 13.78774944134525 9.029726839987871
Cr 13.18397962092617 14.013885425267896 11.29791667623453
Cr 8.529023289682803 12.625352161192016 12.05027077746862
Cr 9.817881177025535 10.526278816685812 11.338800107794707
Cr 8.962750931601546 15.001669917293539 12.340370681954834
Cr 10.686415196440217 13.488221010333982 11.17972493169472
Cr 11.075010351415782 14.316649324831731 13.404396778599544
Cr 12.608699829987597 9.884021997630674 12.280764361944167
Cr 9.43414906504294 12.916840932327343 14.197548757847915
Cr 13.830216289593297 8.605457768819953 10.784742214247759
Cr 10.845647301524638 11.681896511974886 13.04498838491969
Cr 8.969981476638969 14.496215837734024 10.090550125496268
Cr 13.990084293185225 7.740757697145876 13.225645947329893
Cr 14.166002683579665 11.382555897870919 11.219501517864403
Cr 11.306000044294828 9.182658627263692 10.167001910530612
Cr 12.983725835582957 12.497341565934505 13.054864621005837
Cr 11.62829378349064 10.617418920107166 14.76816606245873
Cr 9.973043188717707 11.666647405956184 9.380898875893893
Cr 10.579923281086405 8.875352170815056 13.066747286660485
Cr 13.982222165811496 13.061140955033393 9.459468398596464
Cr 11.139753520978458 15.787269602696588 10.971847496067952
Cr 12.989092508515515 15.750273563959789 9.659261076587777
