28
Energy = -213.89805721 eV
Cr 9.758910693802997 11.28411575476833 7.463731042996794
Cr 10.808236258560012 9.544431880600749 6.161511150527223
Cr 7.123318972688809 11.323538342354237 8.386461420537922
Cr 12.347725884789819 8.628982649689444 7.978809573304066
Cr 8.88332863064175 12.894010394790714 8.829776446891886
Cr 11.980155265134558 11.113070156608725 8.071603437052197
Cr 11.380303117995684 13.289129038895158 8.618554664426417
Cr 10.618972675260531 11.38371143462211 10.146745232394109
Cr 8.221869153192907 9.661074498152622 7.180314555375558
Cr 10.285434429458089 9.023545316913687 8.548871409006686
Cr 7.939189180430784 12.418081098191085 11.168183571532992
Cr 11.31348772178208 10.519503398741199 12.380331243790796
Cr 10.163113352065537 14.07397297752158 10.613536024776787
Cr 10.722156413582477 12.875610713503068 12.474974187238528
Cr 12.28492329993344 9.528940945241906 10.184378570534124
Cr 12.465188952402162 12.45222101817527 10.408355498720672
Cr 12.176256083705107 8.044803958025307 11.895324949246994
Cr 8.951813025640062 10.85486755524691 12.386390330688815
Cr 11.569513799492295 7.052665361582206 9.748926747170076
Cr 8.424653474097365 10.455413877154703 9.629808282296349
Cr 9.914851515552787 8.78930225346149 11.142447034577545
Cr 9.321944111193163 8.869222153647696 13.446943967694049
Cr 9.863221172599463 7.096310251057552 7.39185494365961
Cr 10.228278156831932 6.707318858830341 12.102405802537955
Cr 7.162657025315688 9.407786761035638 11.553211351724672
Cr 9.350754469340222 6.614548122401165 9.72867051291747
Cr 7.984182014414715 8.115676942469126 9.320216264585191
Cr 7.766439854627169 7.23809749032139 11.920569545906844
