22
Energy = -168.1494893 eV
Cr 15.768731286142762 13.493805922407685 10.270368870625985
Cr 8.57764673993733 9.719806092301079 10.890031125673698
Cr 9.99017836866331 11.568439691706418 13.836566068664458
Cr 8.71857342120362 11.813121625648169 9.765305084658946
Cr 10.660213464324277 13.750356800931877 10.452513895334006
Cr 11.903270047093379 9.604255831221028 13.783134187778874
Cr 12.64067216318671 11.974308727560194 13.381558518877476
Cr 11.277286640106693 13.865820931896549 12.604758050139692
Cr 11.014645935523472 11.855864146929155 9.02470363599299
Cr 14.416005561557027 11.573410837504193 9.740436866625032
Cr 11.037109792045053 8.510549559036665 11.355232542408894
Cr 10.443843083710085 9.542712238014376 9.230426402184237
Cr 13.35213722960324 14.263870148066136 10.45157949767365
Cr 13.007074643822117 9.760815106275329 11.649093013990035
Cr 9.652458893720501 9.13727680234458 13.218792749819341
Cr 12.81133089767489 9.720034248581712 9.360962807332726
Cr 10.4928901978396 11.149543848607216 11.62052940359651
Cr 13.959218292721248 13.905854544800572 12.45444882464129
Cr 14.874348295073503 11.22792251225277 12.061613629860245
Cr 7.9077887391359 11.169675976406799 12.632453613438868
Cr 8.747944098441518 13.119908342965367 11.716819785711449
Cr 12.58408169327067 12.122063574167742 10.976566729945592
