28
Energy = -213.97906016 eV
Cr 9.134453465099197 13.561738279483668 11.845477084989323
Cr 10.85656548858991 12.10213280803924 12.983094595775038
Cr 12.281845863904586 10.67287078131394 13.737905215468288
Cr 8.958758805207136 11.000797758418598 11.564309954946768
Cr 10.240675619288284 9.417499038232844 12.68138992239864
Cr 13.053512871790826 6.578863536318176 10.238291581212682
Cr 7.622763578571884 12.48600673943632 10.331238818949165
Cr 8.372652608829927 8.364395446308823 11.518188317898998
Cr 10.906186497192566 7.81271667478081 11.222941404697147
Cr 10.31629274052454 12.60128972840878 10.529562097057095
Cr 7.454096062533312 9.786827698200163 9.696662393912913
Cr 11.775966241463903 10.505787958392986 11.167243801858978
Cr 9.149436165252514 6.167751382402878 10.914971873381432
Cr 12.893295046978386 8.855072492613195 11.810893454287665
Cr 9.078179376063524 11.510474484131032 8.663098230336752
Cr 6.965979031097448 7.784301219770748 9.458338458477362
Cr 10.035890153948415 9.60208949261725 9.917781988186187
Cr 6.3413761777243405 11.527378205055507 8.24175666272451
Cr 11.64303380259623 11.37535583561714 8.635132415268304
Cr 5.952073022808766 9.225989169948475 7.332733933494329
Cr 9.17176715231456 7.596159340406557 9.12520298437259
Cr 12.241411397878498 8.886846454737825 9.268854766604386
Cr 11.233670038839263 6.281897415235895 8.997073601490124
Cr 7.469814101342884 11.646843796644694 6.3632999682654585
Cr 8.312028749447226 9.370861372363972 7.379395291124735
Cr 12.34054497267447 10.356771174818283 6.955175892784506
Cr 10.761692714751517 8.575900183419082 7.502334933689957
Cr 9.99864460771988 10.986799563444682 6.4805171812524485
