29
Energy = -221.12039966 eV
Cr 12.215702120040529 7.1685478277461465 11.631233258421414
Cr 14.514719348625157 10.465218908213636 13.910239988213387
Cr 11.135260217549268 15.255442648876008 10.54921770938885
Cr 10.070573501678425 14.314065924810079 12.81590819943172
Cr 12.2608870852831 10.074370852733463 13.813663367772214
Cr 11.413461409616593 10.760425953422436 11.32826797055079
Cr 11.592486633841382 7.81112306845172 13.461887305888638
Cr 10.417790914188858 8.65840604145373 11.226781902132872
Cr 9.042280394067152 11.31265980680205 11.251626641924924
Cr 10.870565784140812 12.0511901116748 13.326370199124197
Cr 9.71366374499488 9.752957261589746 12.945285453725182
Cr 13.45076704090546 11.873504451072607 12.097540939089361
Cr 14.172853023669512 7.983557242900384 13.591881740423327
Cr 13.27240610107016 12.629564486606714 14.210616939558669
Cr 15.159027033129718 12.173946626904899 10.591084753106566
Cr 15.895276082161331 12.391440941225264 13.189541929361068
Cr 13.161233796589144 15.403077589750142 14.527116384649206
Cr 12.396462963790704 14.223539597816922 12.399296335649828
Cr 8.422385200208483 12.259844896149124 12.839483305022775
Cr 13.128001607671914 9.233384960903736 11.806511652555772
Cr 8.992141072723037 13.968997774304754 11.006508513670518
Cr 11.486307408164736 14.345601767920794 14.89339335379169
Cr 11.196305714954597 16.401608993076593 12.848736119027386
Cr 13.18298980187017 16.273427457474178 12.079717987029312
Cr 11.176773186642658 12.867358810408033 10.808577520333882
Cr 14.862374459034118 14.164589732967311 12.747954061865514
Cr 13.60779559329053 13.880050172114247 10.285052187945054
Cr 13.43470904141088 11.007481500263964 9.81001230912678
Cr 15.314676369678473 10.140556387907031 11.802597666833446
