20
Energy = -151.23919694 eV
Cr 10.379360764582783 9.387559574972245 6.886526506493392
Cr 9.792525477809297 12.070133478063639 7.131820449315926
Cr 9.339305055490565 7.850785248175922 8.441377376984677
Cr 7.965472460301479 12.354869609899797 7.65280105245153
Cr 8.317058336173693 10.13274397905693 8.355028127300473
Cr 12.019445493928663 11.08566705814465 8.94371677507667
Cr 6.214137450312113 9.995511258058476 8.74806958534518
Cr 7.014320229931336 7.845718322055946 9.048637934003276
Cr 12.042329463413905 8.809940731614253 8.255190475198383
Cr 9.945801466050135 11.712002484977113 9.400507024558681
Cr 8.116540347656306 9.217203349373442 10.708995102480843
Cr 11.350783964429079 6.746835278480711 10.013173506601499
Cr 10.359786707335346 9.262340295630919 10.013945594074244
Cr 12.917323700882068 8.920625046828617 10.632037656290315
Cr 8.933822652144041 11.620140624884504 11.710486171120472
Cr 7.465906114768317 11.787521989881995 10.375763441628804
Cr 9.190900152538651 6.971641559429298 10.929840342357446
Cr 11.477170873298789 10.739580326902939 11.510510663263002
Cr 11.272545512452945 8.05761344143669 12.321493841493874
Cr 9.654472993135489 9.2005755587675 12.689087590596458
