23
Energy = -175.50447339 eV
Cr 8.026220737988945 9.743303807375643 5.481747139583709
Cr 10.189151291097035 9.19068064933848 6.008205441170763
Cr 7.8128505231983585 8.028793047329916 6.90235597128348
Cr 8.284981971063614 7.770402501631958 11.601425999633316
Cr 7.655888129552979 10.432953872031693 7.989625253868045
Cr 11.900894784838245 8.607021589935778 8.192441946777834
Cr 8.986493119404656 11.57062211130829 7.083230599994021
Cr 11.122274507001405 10.697736276844749 7.520349713022752
Cr 7.846954126377937 7.783765073528382 9.266393872546212
Cr 7.738279294093083 10.183079633633573 10.599879692130893
Cr 8.399920093029735 11.661962048350047 12.183880260738965
Cr 9.374353380513092 11.930048529319714 9.450373503615834
Cr 8.358043510206999 9.294166334892553 13.19581314208963
Cr 10.047336164812261 7.282301590311516 7.534879098796379
Cr 9.528456241826458 9.467677994890819 8.617738373367803
Cr 10.501212101590271 7.656667915270487 10.327482287084722
Cr 10.036714505332778 9.86959161039077 11.102495159222942
Cr 10.399233604119297 10.86623656546385 13.54772499815864
Cr 10.495730289333475 12.625047656609457 11.323451046889192
Cr 11.640617215757088 10.780593093921583 9.828633379858502
Cr 12.323689075056873 8.789272494759402 10.77335910090909
Cr 10.73390039951501 8.474904847685718 13.07612135985663
Cr 12.173437560535202 11.056702143346675 12.231229505235717
