24
Energy = -183.21481776 eV
Cr 8.430124973653587 15.223030512673292 10.075369952288359
Cr 8.694210028438494 8.95927661973293 12.739660742464876
Cr 15.840477525504834 10.78103921963975 12.406359384063208
Cr 9.95146771003243 11.777788625405591 9.660219639262177
Cr 14.261128045753644 11.347598395397332 14.533768357988095
Cr 11.67501129279009 10.444326195458263 10.439853525554826
Cr 11.99265370988258 14.853942192497692 11.86847380479689
Cr 12.755071868084165 13.677520506233499 14.207010228985764
Cr 14.261164202069624 12.863718805681774 12.523182506098093
Cr 12.094699152038645 12.687751430500434 8.904987780480045
Cr 11.46272363162498 9.162578532998555 12.897793192461545
Cr 10.836920861184218 14.442507520029856 9.842832777134634
Cr 13.578701572870035 10.284122265911087 11.935040046022992
Cr 12.1809016722868 11.392441177252566 13.802533904052455
Cr 9.57125308582255 9.04302207209394 10.63979518823819
Cr 13.701337201946522 9.209061456417219 14.370051848138685
Cr 13.600842985501252 13.990094089420474 10.162319908888934
Cr 8.037697930690081 11.013141666296631 10.890087765054046
Cr 10.07834858001 11.063588851835872 12.293359948117008
Cr 11.998837138468836 12.451831253133355 11.568403597442835
Cr 9.649843731000793 15.819387577358412 12.036052502243926
Cr 14.31217949793737 11.762069690876578 10.31814794809882
Cr 10.63076768480711 13.594018010287167 13.510348000022805
Cr 9.50653744692073 13.346316716460587 11.578733030304988
