26
Energy = -196.36759766 eV
Cr 10.742708088591048 12.096459673524839 7.5872886295266415
Cr 10.169455837690213 7.537242074178707 7.010103098357796
Cr 11.763065918649051 9.891371745162141 7.356768842300158
Cr 13.285961903166497 11.014819723654128 8.599451723296195
Cr 11.096044168405477 11.002765625571993 9.523141067393816
Cr 9.195552044777491 9.971326439501413 7.880531925110297
Cr 12.907310307888045 7.6001945145191865 7.734065644317869
Cr 8.913203863950871 12.478916535376088 9.205031147334813
Cr 8.063211878514782 8.16410068382917 8.270521260855617
Cr 9.147813693117536 14.741006150474176 10.284382326545694
Cr 10.630415726401512 12.999038987728607 11.281531236345721
Cr 12.96390228548564 9.089784038976317 9.848267384428365
Cr 7.348848937431466 10.801465215554884 9.484218283855894
Cr 12.679602829412241 11.389885809623774 11.357489832515093
Cr 7.615049088758727 12.808752766045925 11.500567865537493
Cr 10.610146970875904 8.401097120535505 9.034444692168782
Cr 12.245067770611758 6.8978883668057716 10.439481904465671
Cr 5.495463896643618 11.704570194950826 11.434117269376554
Cr 11.147592542590003 9.17499431840285 11.250338328793566
Cr 8.642889877089004 9.175335415278923 10.347541522664226
Cr 9.34631697549357 11.136832615284499 11.317352344555133
Cr 10.887618695253897 10.61934042356421 12.90730619341752
Cr 7.095114315971473 10.15820291780512 12.042418887983166
Cr 10.252611847432732 7.212199109495561 11.521217483468831
Cr 9.166024579183528 8.888684900568958 12.90295656970323
Cr 11.661847798264164 8.116566475237285 12.952306377331677
