20
Energy = -149.65448372 eV
Cr 11.96151634707635 11.50640943057457 9.04761471375491
Cr 10.644278608766015 11.679965135224611 6.995921467778051
Cr 9.594632290597106 11.82969930573579 9.742586550864518
Cr 12.105786211520655 9.48657378035464 7.747473953727045
Cr 10.841700789184907 11.34320437840278 11.728986475945165
Cr 11.630340824811736 9.577341457423024 10.451244090421287
Cr 9.897933732985347 9.867340132263895 8.537460478711175
Cr 8.496697712556582 10.899841941583363 12.14979537090507
Cr 7.9616200554485985 10.968909754844802 7.338771279815336
Cr 9.630698847584426 8.80235217245853 6.369153495268419
Cr 9.30958275257109 10.474925083009039 5.061998566029101
Cr 9.228048232550048 9.232913144604945 11.051630431607098
Cr 10.930937569639022 9.345351860649707 13.013469187782045
Cr 7.344588148168657 10.685455010739599 9.833630587808257
Cr 7.747138167192871 8.642441875517198 8.80347724401058
Cr 6.695315497299321 8.688355468465943 11.239706802673787
Cr 10.97530497162075 7.37938803063676 11.449907796760625
Cr 10.309650910028749 7.559358811269926 9.161153826560415
Cr 8.912527982484136 7.601262286455199 12.52051560208335
Cr 8.295966574867615 6.846600009886295 10.441272793658705
