23
Energy = -176.48919811 eV
Cr 7.462639862046085 10.501645224871588 12.148195080458418
Cr 9.962331459654266 10.295932982731513 13.027847663195002
Cr 12.192257237029144 10.8380244471288 13.401910903150203
Cr 11.967742996482345 10.333331377357178 10.855126909950815
Cr 14.238687985026907 10.117316454210801 11.66960864668712
Cr 11.637801092211324 14.431178184233513 11.843883440389456
Cr 9.893959540168314 13.924852836794472 9.543692246135834
Cr 9.106249380193939 14.029473552386763 11.824070826961742
Cr 9.444052153270437 9.555397648383627 7.966052577854639
Cr 12.02354070479213 12.971560123311539 9.761148646050454
Cr 13.508125777883041 8.717361776928623 13.52891044578366
Cr 11.425875617918605 8.416521294834517 12.112438169479486
Cr 9.326779372844811 9.71755000157817 10.733120439980551
Cr 13.348927114900972 7.942217767302382 10.830415960122556
Cr 10.53024976065969 12.06676758517196 11.537603297851033
Cr 10.907175986393181 12.990917992665311 13.855251586228052
Cr 8.535766586755129 12.27271472250164 13.47504724365054
Cr 7.914848795693003 12.17825674147251 10.60505308833404
Cr 9.72484917282992 11.533866832867893 9.353330070936849
Cr 13.171884964462087 9.506248445388724 9.014462416932332
Cr 10.980870362780832 8.350488163175921 9.366528765224198
Cr 13.127234477330548 12.448787966276832 12.210538890235451
Cr 11.551411811577355 10.624682849226968 7.711158434446632
