27
Energy = -208.70258922 eV
Cr 14.246023725504491 9.566131353780685 8.977374031331214
Cr 15.289274819155734 9.52986162584739 11.59480664451376
Cr 11.464592249811902 9.559003980748738 9.148895669659126
Cr 12.875801607983751 10.065588749295399 11.03765284228763
Cr 12.86643431388951 11.47742200719678 8.648375682223874
Cr 15.14277289947821 11.441921281547948 10.222493639529333
Cr 11.620981055694688 11.597414312882357 13.00578366020738
Cr 13.05636993900947 9.504251957741385 13.281619223885318
Cr 8.781376709155122 10.157197994509536 9.865108742022803
Cr 10.684296673875213 9.391117946900993 11.873004098822896
Cr 14.320283327212358 11.57086464706677 12.74284375054575
Cr 10.26013855659264 11.09799965544326 7.849646073477783
Cr 10.72257249143306 10.369668382369197 14.768530361796548
Cr 8.989635760214412 10.557771813115794 12.546895873687852
Cr 13.021543098224406 12.486917759989542 10.913333265728383
Cr 13.252855874532779 11.658724498045656 14.968182629009673
Cr 10.602463907555515 11.667905499416364 10.488969382217405
Cr 13.547228581911797 13.395632062774517 13.085948216941947
Cr 9.460262232994845 12.23245147595492 14.692096008321613
Cr 11.59661569695587 12.029469048692413 16.528512431956802
Cr 7.750030143203955 12.080182202960916 10.643529010541934
Cr 8.809944331018384 12.673386924596485 8.68255126557204
Cr 11.468955980438015 13.31256682874924 9.040712253939958
Cr 11.297193553582208 13.457004689154507 14.412867252603629
Cr 9.381548411952796 12.860245621194702 12.32620899798871
Cr 11.544798769207278 14.23491296473429 11.717629245040275
Cr 9.67174146834649 14.271339250288237 10.27255920288812
