23
Energy = -175.87812144 eV
Cr 9.595207281341102 12.931332874867865 8.65377151742405
Cr 11.00903135174694 11.437615428827923 6.918252445495984
Cr 10.928736082841763 13.338794991112488 10.978307063546506
Cr 12.274535424452012 13.34806756584707 8.47234759462812
Cr 8.741418780155566 11.822423784769681 10.767253841780725
Cr 8.72931611742279 10.666013262662394 8.201137676710525
Cr 7.2489948580744255 9.850633940993198 10.28868951970761
Cr 8.433495681639426 7.984740619333181 8.595691985614636
Cr 8.0622170257923 8.087997852664119 11.472279152723175
Cr 8.817006721962704 10.148474666647669 12.607239916886433
Cr 9.775027827909806 9.51000585522893 10.191768220117783
Cr 10.760629921277152 9.144936741723068 8.087514370122713
Cr 10.929203579742127 10.822555929299343 11.88134246625726
Cr 9.569872778267248 12.508745743973247 13.29005996522046
Cr 11.013127557728748 11.403898708865379 9.45818364360072
Cr 13.254289198855133 11.626215668747903 10.548683776412432
Cr 12.885017514872036 10.78171414468323 7.944207967908649
Cr 12.239394147779626 12.159387021453105 13.033127356648512
Cr 12.378138942782417 9.196720046650755 10.391120109321763
Cr 13.161168071279679 9.68898956511031 12.521188901017906
Cr 10.879235378072808 10.210341765743644 14.302818479242282
Cr 10.766009622832334 8.170614092893286 12.230062961385274
Cr 10.18499916979412 7.173948032869545 10.001380967337203
