21
Energy = -159.75605856 eV
Cr 13.137158178366589 14.591345577088648 9.788562656755024
Cr 10.716701465426066 10.456364565443277 8.54658622109634
Cr 13.591770097031507 12.84825565409456 11.311315000524965
Cr 14.862533267668118 11.099203720977208 9.94950773543128
Cr 11.288335961061634 11.901562450979752 12.380987860204593
Cr 9.505614037085524 11.217948941977843 10.580051286911928
Cr 6.900329196180267 8.477255854832404 11.56892520545348
Cr 9.23441487176228 10.98293074521936 13.414343056871122
Cr 11.039307234218004 13.305719433700014 9.982371782580547
Cr 7.460568708439355 10.776325797029587 11.808436444782753
Cr 10.515169168732161 9.461607997606068 11.90533160952811
Cr 13.37738322399214 12.497198207065855 8.579567768797824
Cr 12.184643751615871 11.184447223242561 10.218626850511587
Cr 13.306725165517358 9.614891413482638 11.448512090802994
Cr 8.694391614372803 9.014516739341026 9.912394904108393
Cr 8.952131469118074 13.149599097606542 11.996175350693264
Cr 8.296725093636171 8.554855868067973 13.28384059846915
Cr 13.553047183456377 9.626617605537938 8.63999687917577
Cr 9.439470740350998 7.525547836132411 11.35533888263605
Cr 11.389835102291078 14.177788462185005 12.138553011354821
Cr 11.547603200060681 8.553031055462442 9.833765345056118
