24
Energy = -184.11174473 eV
Cr 12.622637845781577 9.17236311467219 8.23943081831091
Cr 10.716616187949692 8.897690882392387 12.700503298335232
Cr 8.188487754035595 9.392718337920135 7.032451206673933
Cr 8.634825823768532 10.587325993174195 13.707516025298508
Cr 9.805072137636905 10.175294219325837 9.113803854982612
Cr 9.856484740996029 13.148240476733546 11.830320678720222
Cr 7.474079043331733 10.191808627332987 9.294139666098014
Cr 10.786336403319307 8.372421684997736 10.317464099914428
Cr 12.674551968332398 7.039308114964596 9.005892326683773
Cr 9.856496965230528 10.782555890699566 11.49683642223445
Cr 10.801616590667738 12.677053686512616 9.041757595463286
Cr 8.584514843749451 7.656947491632555 8.877799753009883
Cr 12.097137050325948 13.449271890266957 10.701560551323292
Cr 8.396886472226187 8.71127894123966 11.19409715536946
Cr 8.572199362500829 12.647803346116444 9.842770450928239
Cr 12.790196738029902 9.644604753104181 13.435446033346707
Cr 10.37202367877772 7.802699488339744 7.725823717041157
Cr 8.492265028220825 12.091794961945432 7.5590400857739075
Cr 12.103296574724455 11.40837471440831 11.951200627764468
Cr 10.563439529881496 10.43839233566087 7.024930911654043
Cr 12.952108055585224 8.866015630716293 10.994474316117612
Cr 12.140422428135864 10.762181579425746 9.796925388945395
Cr 10.606539853385827 11.319974697598623 14.12669776507824
Cr 7.321327295570153 11.346995594926108 11.553299684683106
