28
Energy = -214.52400783 eV
Cr 12.075682042117384 7.187145255759167 7.39655413540974
Cr 11.156495177921698 9.267598493740058 7.237687565928428
Cr 10.061978379446872 7.113072657186991 8.329998065567171
Cr 10.24890167597768 6.674390918432763 10.539361631981215
Cr 11.673984371155218 11.511539907384158 8.05659101063378
Cr 12.344723023917899 7.165468241084382 9.650182950965078
Cr 12.789674900841224 9.211424322797935 8.99636253416071
Cr 8.944224620076701 9.234592819939103 8.274613759408657
Cr 9.341570051036173 11.421672772189408 7.3730544467052646
Cr 7.25572865328677 10.823407510132814 7.044424417166502
Cr 8.32092986015922 8.160416492106647 10.25869113093472
Cr 12.47094338351934 7.232232111032306 12.324131874272055
Cr 10.30905755183723 8.372096417669276 11.890822172084192
Cr 10.764135305058383 9.235849186746101 9.81533829781885
Cr 7.36727021910333 10.828256177982027 9.203872923071193
Cr 8.726994105513349 10.51488008696012 11.746461477897029
Cr 12.871301819081086 9.091283627688522 11.569774632464394
Cr 9.612529715184527 11.409422960928097 9.81704119297736
Cr 12.182816090644923 11.380168851820708 10.256644800472973
Cr 10.222085036522698 13.50051146471686 9.038089586380554
Cr 11.541142965836404 9.172370440940998 14.028373299814106
Cr 8.042743462207719 13.007112397257563 8.466364925724507
Cr 9.20652553414576 9.390912034088421 13.758816257426579
Cr 7.609881257262216 12.732568515440091 11.060350379193519
Cr 11.000702052126645 10.692322222736841 12.247974073807123
Cr 10.242037457490408 12.878555361272916 11.686330598908093
Cr 9.09292312788474 12.26330737465358 13.207293628949484
Cr 8.554274588553897 14.558677805221498 10.756054657785624
