21
Energy = -161.13111032 eV
Cr 8.779768934914435 9.939867728781246 6.937587142395218
Cr 6.931009502869003 10.02439803253642 11.189039671701938
Cr 8.314976631287635 8.081460335415064 11.055737070602591
Cr 9.187700251607152 7.761058761806443 8.64337571115363
Cr 10.474154783826865 6.600538554720755 10.275141403464637
Cr 12.099618614160795 7.715488633593872 8.95024989117739
Cr 12.546611951026858 8.182233886353503 11.31107648102866
Cr 10.301248706006152 8.235928184352467 12.923811639615677
Cr 10.428843724155259 9.170373927063185 10.526779965694667
Cr 10.964483521765583 9.744705170264183 8.230770991732385
Cr 9.009089818948755 10.494163794727289 12.195556399950314
Cr 8.449151350983445 10.268948696764417 9.334000191746018
Cr 8.510033051990554 12.403177846857117 10.761329012650881
Cr 9.928844342513242 12.123594206073436 8.194226365363665
Cr 10.636281614487794 11.492831514000649 10.384768929597296
Cr 12.302121989294468 12.305960729094075 8.519320522169142
Cr 10.195580919637983 13.000763780908379 12.43322499675495
Cr 10.34684394440261 14.013561141263095 9.795828482945561
Cr 12.265206613100279 13.02532956660191 11.004739175883508
Cr 11.810357608290293 10.53808545149814 12.43402553716881
Cr 12.85247090310278 10.34384397219519 10.005110421924158
