28
Energy = -210.04221391 eV
Cr 9.176435670430473 12.33178465056837 14.115868145578808
Cr 11.247256222941857 11.340777639813185 7.679629132989199
Cr 10.08951509616588 13.397060982022365 8.240568581671708
Cr 9.690153308149446 9.139053611938463 7.628810320634772
Cr 9.450995170841262 11.957968121581995 9.921750467560818
Cr 13.145177907549282 8.861791119631079 11.830842682109934
Cr 14.236205659645712 10.644641830781364 10.321621440343042
Cr 10.29969077131331 10.018840001026831 13.984978461313835
Cr 13.911928768043163 10.634914458443946 13.216212260851314
Cr 13.283795214353685 12.438341918843816 11.583993594874917
Cr 12.017337810226687 11.755894515211459 13.909725279275667
Cr 13.758689146156241 12.679460560369908 8.736217385504858
Cr 10.78776861382289 12.935071773021326 12.063986592239978
Cr 12.475373126255743 9.407850154520009 9.275541303487415
Cr 10.228135531690354 8.33522292195797 11.7842791103946
Cr 8.948442574950773 10.842112478290616 11.939118106231248
Cr 8.17612213195523 9.318712813897925 10.214085327251862
Cr 11.240469043535494 14.165304907422207 10.304613692079554
Cr 10.347091193240386 9.85356146163522 9.679663597026455
Cr 8.735633791046444 8.328757232191908 12.786713743770713
Cr 11.744379404612388 10.361406360094874 11.770890908576417
Cr 10.268055834216698 12.380535090428028 15.507066781852306
Cr 8.660285154097096 13.665820946193609 11.819334428190395
Cr 11.77849639138593 8.962920469348848 13.918742460139141
Cr 11.942916956271283 12.011392203471338 9.695026446100467
Cr 13.026978965495399 13.673543567194297 13.57140330067761
Cr 8.705766272519625 10.765330121275127 7.851999975229176
Cr 13.491509104924257 10.65653292466074 7.511921309880952
