26
Energy = -199.64287889 eV
Cr 14.017380364445875 13.107983538151512 14.220219306876237
Cr 10.054270316741205 13.745531029754316 9.5183937438595
Cr 11.493891938854158 8.827647492066589 11.510225476956515
Cr 13.447129169837226 11.971477298188702 8.932426562754225
Cr 10.796066959037114 14.791748612974466 13.270161110111603
Cr 13.587242894166272 10.137365301932105 10.29798658554807
Cr 12.941735519253271 9.628428055712291 7.771896148987151
Cr 10.938537696557324 9.817957929443194 9.189052566004436
Cr 8.92051520284237 8.016971065161792 12.345650394158234
Cr 13.54764649808001 14.837456241337216 12.719217060834811
Cr 10.899783388778618 10.717810386807319 13.319811829747772
Cr 9.16281886601889 11.836692855974732 9.432038447251651
Cr 8.493260909088438 9.355142415096134 9.510081630265809
Cr 11.275324729920468 11.812882119296134 8.148291551626292
Cr 12.83476231442922 7.998864220098438 9.593948849708966
Cr 9.544333672913213 12.63995870142619 11.91238840757827
Cr 12.02788524879068 14.273476810671593 15.27514716545313
Cr 11.954635005898568 13.665326679647018 10.615474090044978
Cr 9.900768602433248 7.5384038146724945 10.33564891016185
Cr 13.93757108243586 12.622837317353001 11.489408135188363
Cr 9.381429738964089 10.226554583795041 11.57617728337602
Cr 13.203312919491863 10.524506085878311 12.731393566632505
Cr 9.703885447105089 12.641012477888436 14.43112159707166
Cr 11.482274206368507 11.585704777197051 10.718379987894915
Cr 11.889171669936934 12.838303589291208 13.030649415635656
Cr 11.859658828327404 11.917279019610069 15.508617181004295
