20
Energy = -151.58365304 eV
Cr 11.442997282417899 10.247494720090724 6.76102448391198
Cr 8.47971902477835 10.255716582202092 6.670726774103253
Cr 7.364089548750069 8.311396401090862 5.946834020369131
Cr 9.985187428353065 10.071153810019576 8.970742274885323
Cr 10.139494046018935 11.999397483307032 7.546742692772192
Cr 8.775175709238274 8.130099020797374 8.309632563490583
Cr 12.505386226839697 11.069050854213932 8.81113514154461
Cr 6.387405378402497 9.030169083854528 8.045693703125458
Cr 7.6928104931679195 10.906228161668963 8.837538626690574
Cr 6.345438112842151 6.749653001419899 8.177294691673477
Cr 11.724793471920167 8.473873634740276 8.75198407658234
Cr 5.758763668470307 7.250648561254891 10.357103078133303
Cr 8.09944796709682 5.99006680085549 9.465045583530124
Cr 8.004732877044178 8.849328036406485 10.39192065054195
Cr 9.482192518049738 10.905308321807006 11.058073382568878
Cr 10.267976166771035 7.354994563769941 10.21699566793158
Cr 11.007033397381566 12.385394646698721 9.950452348513409
Cr 11.735865964675583 9.683859653663262 10.89381500019288
Cr 9.855925020750608 8.491571716549354 12.09282588451106
Cr 7.800867218239433 6.6998964667987675 11.5997208761365
