25
Energy = -192.58480893 eV
Cr 10.767682246822547 11.703671419669458 12.920401690314623
Cr 8.421499767864107 11.829864111901069 12.019182582273734
Cr 10.520100885464467 12.569320937027836 10.262403491119967
Cr 11.851985190128408 10.039615664448679 12.137756129247943
Cr 11.611694217783654 10.086486689542001 9.666814288581515
Cr 7.919595499868594 12.400197629524216 9.824260763137625
Cr 11.048072467071563 8.00650579187936 10.697206713983237
Cr 9.455464515067831 10.104358252055617 11.148315515618345
Cr 12.528478313418534 12.186135246439244 10.667866979659726
Cr 7.129109993947629 9.271280399541975 12.254862052089637
Cr 9.346487016467583 9.233601171540963 13.223958396277265
Cr 11.679801855806149 12.28813987182116 8.066007790730161
Cr 9.950873906276705 7.499692530187012 6.961954595959238
Cr 7.376224947027867 8.660709133367526 7.5918572299741465
Cr 9.403891003153067 9.702375385707267 6.606094079031924
Cr 11.744433178974258 7.39747489364496 8.506972125816874
Cr 11.711203115225791 9.60020459411125 7.434547237800298
Cr 7.071989564464959 10.948661474165903 7.6673690581466705
Cr 9.673061629257854 6.062721846143994 9.396077510569024
Cr 9.25342395357679 8.458280089766001 9.071538189463016
Cr 13.596658456841835 11.298122428821264 8.482994723264387
Cr 7.272667978464905 7.525662872788274 10.363889026183784
Cr 9.005927400958495 7.246258400219645 11.566470238399033
Cr 9.49219386930933 10.888095525667989 8.62563432785407
Cr 7.305677600649533 10.13076221391009 9.973763838396517
