20
Energy = -152.23790092 eV
Cr 10.596342148109875 9.711925902551325 9.306958517926038
Cr 10.30939038978042 9.110162391187373 6.847968325956057
Cr 8.078460574568052 8.940623953907773 10.366636113907653
Cr 9.592385911692686 6.789737201607192 5.931459484435203
Cr 6.712119490380232 8.451092848860979 8.134290924138842
Cr 7.64315244051995 6.3499848995736095 9.913112981157417
Cr 5.6900534880663045 7.605751896262243 10.210626683504124
Cr 9.569169253375723 5.6054788806407165 7.94738772365029
Cr 7.239343742513859 7.988818342293 12.243533100588635
Cr 8.970475658554493 7.743409291711638 8.299703462228106
Cr 9.70719707366512 12.305776697963841 9.386695999295783
Cr 6.160259672074694 10.110029681661691 10.436899336084755
Cr 6.9691185245670795 6.177594259158004 7.586645927523244
Cr 9.279240208754468 10.682682637684785 11.292730255177096
Cr 11.537227640314685 7.272352531048188 8.066513766098623
Cr 9.437827371803873 11.648508720045154 6.529606417147094
Cr 10.155029665871737 7.643366942807525 10.357726901729757
Cr 7.973024426002835 9.26733254680508 6.269376775385931
Cr 8.451494393827447 10.546265797927603 8.44234085313129
Cr 11.371503296222528 11.491919946968984 7.872601821599542
