26
Energy = -199.11900249 eV
Cr 14.942662328124392 13.582563715784259 10.728394086958662
Cr 9.753504980574034 12.230229593076004 9.118730843171972
Cr 12.832937177606555 9.957342071066355 10.603946493855755
Cr 10.369173912206094 9.091151343711147 12.03586631411248
Cr 14.12557950818962 13.400525613236914 13.351532381420238
Cr 11.749448472571055 12.19661319806692 13.514359665374794
Cr 8.730185570390049 10.741982867729314 10.559164882857617
Cr 13.77811353674826 11.07657630904379 14.67400672008834
Cr 11.806991284027774 11.206818938683913 8.237844693957573
Cr 13.323686630841207 15.110981371557468 9.76245493600257
Cr 10.669986447801527 9.964027823039993 14.590503735342491
Cr 13.976815937000662 11.70414399900996 12.130514859757064
Cr 13.000245140749644 12.82707739109978 15.456847389632488
Cr 13.012925121756213 12.468562741578664 9.792290561702742
Cr 11.973913375554224 10.867586649040467 16.555438112590718
Cr 12.299971903326172 9.840211934394533 12.985188454776369
Cr 11.05473834677492 14.134904733111266 9.669481072342455
Cr 10.56008050881086 9.50635720157893 9.6093581187965
Cr 14.153024250373974 13.493807735761873 7.966888462185858
Cr 11.301907291860491 11.518498669452992 11.088292859894437
Cr 10.471861632553347 12.285886395432973 15.221556570670614
Cr 12.410322347164394 9.240303740010285 15.561361441066857
Cr 9.74523579894807 13.14240515004251 11.855935194905403
Cr 12.364569244988944 13.751851713641546 11.793521727017811
Cr 9.43928844598632 11.226031452839583 12.903847836678658
Cr 11.852734885356695 13.666640518988661 7.640405202595261
