22
Energy = -167.92469781 eV
Cr 12.20072986408722 13.30579726085201 7.759428058485378
Cr 12.084980293871427 10.697998754690348 16.393437599597544
Cr 10.586462680723345 11.445838949167388 14.179602155485831
Cr 9.010822103100462 11.96716326433232 9.79506832651652
Cr 9.280889536767909 12.270056602524424 11.940498866124974
Cr 11.384260178740988 12.32723553139911 10.175945523130506
Cr 10.266323205615265 9.865179887357625 10.56294596912029
Cr 11.832460739421798 8.45019470992807 12.25811464451997
Cr 11.348331965933635 11.228922527300709 8.146182613752014
Cr 10.106738684728215 13.93345989039307 8.258817388721273
Cr 12.991249977401345 9.400820398526909 14.102015070199716
Cr 11.7459085743693 10.960627635014513 12.240108739152468
Cr 13.044424792105856 11.770755628610683 14.300712944491114
Cr 13.947139801962502 10.305449336042797 11.763612806803783
Cr 12.436133847707632 14.367315453086901 9.7649489482327
Cr 9.288817109822256 9.959890341632061 12.760342230031618
Cr 9.956991118648677 14.535044227964272 10.458909279124835
Cr 13.856402794353977 11.827273508168254 9.347750567147365
Cr 12.621479406515304 9.810892171360646 9.958906664107804
Cr 10.89361872023563 9.164000401321845 15.039057163165348
Cr 13.631971611583873 12.592183151519306 11.537662912022881
Cr 11.149463919238102 13.51256446847793 12.470667887429482
