26
Energy = -195.2243986 eV
Cr 11.69781207015549 8.81859578308188 14.264861355739235
Cr 10.20741776815384 10.999779162267462 13.666223114765863
Cr 9.246713217495838 8.906877478929461 13.5263338377566
Cr 12.647465810247127 10.190644206696199 13.440134876165393
Cr 8.264823086470376 12.201224921773465 12.792311394552364
Cr 10.349596298866844 13.632956361824089 12.962615084155717
Cr 13.403473806807758 11.39533917272633 11.495114519118669
Cr 11.005987019973391 8.961352998315952 11.63911067344619
Cr 12.097701589436696 12.942618225713941 12.96853771322694
Cr 8.571338950377209 10.159117282974243 11.683970047755352
Cr 8.975912490060445 7.928632992981085 10.891534384479364
Cr 6.552542863992732 11.869160272594591 10.899954279493505
Cr 10.670880030144437 11.332801360996935 11.352358293989038
Cr 9.537277357524774 9.601876218327778 9.269129506821598
Cr 13.463411171542555 9.150016975356145 10.958982521512997
Cr 12.01686996670027 12.953507077849025 9.664849846801205
Cr 7.407863673229952 11.030155051067183 9.486171228763938
Cr 9.103087504680499 12.876579328451148 10.545436241357924
Cr 11.326902285233519 14.403141570796908 10.6429793356812
Cr 11.399670318983459 8.137613599051186 9.311641857906706
Cr 14.053738340433714 11.270207390537818 9.015544959021742
Cr 11.95579554999369 10.422190661504379 9.531833331326393
Cr 13.72625827274004 8.993800755971538 8.259580514971255
Cr 11.403987606985664 9.810262451897813 7.141911239918651
Cr 9.974573751475868 11.721445002887023 8.645979041910326
Cr 12.156712279504013 11.507916776637092 7.160713880571379
