29
Energy = -226.33471582 eV
Cr 9.57585765762621 12.10315299766538 7.393433527204863
Cr 11.881571984439326 10.857909242906006 12.757129703791573
Cr 9.19896924675802 11.502640526736723 11.937726749472507
Cr 12.75867613500136 8.99440745892883 9.299928409452676
Cr 12.137769538982466 8.005319183075066 13.88744963550203
Cr 11.460673485837434 15.269756271256028 12.13492329776772
Cr 12.185755237317746 11.399964880799427 8.444714901202957
Cr 11.030894030021818 15.439903436832816 9.979843704426626
Cr 14.005429258971354 9.843025907349853 14.431213939908716
Cr 14.331900832140436 11.568614810116705 12.858585311384097
Cr 8.865941600524907 11.61029212753104 9.596897578364228
Cr 9.192370957858982 14.15165801263159 12.03911116434286
Cr 13.042472271505247 13.555043855301953 12.436623047282382
Cr 10.204057788216096 9.095663406196444 12.94100200444997
Cr 11.346777698611698 13.58982603386829 8.034117160976953
Cr 10.584975157302981 7.812109805424099 9.25958552818874
Cr 9.011326510635993 9.16559247277691 10.776121218196252
Cr 9.29382481429686 13.88422553393057 9.548894749269028
Cr 12.973252261187863 13.834172668284012 10.062527363635455
Cr 11.734987677235765 10.164657247577061 15.12569958272199
Cr 9.536412291655193 11.097795965006343 14.26822564999239
Cr 12.962558409784371 12.391490904561271 14.812523131108545
Cr 11.081496250984367 10.171128958009223 10.543452097910263
Cr 13.268171908512235 9.082955708753422 11.921344155803116
Cr 10.339516700742628 9.893786268076692 8.120045664392181
Cr 10.941947307305867 12.95089015329645 13.462692902113018
Cr 13.458372074457131 11.344099229911178 10.542356349148715
Cr 11.069400801547127 12.723358529000684 10.817823661502853
Cr 11.332657736043526 7.617957726320075 11.33183408368092
