26
Energy = -197.11351748 eV
Cr 9.817181938974828 6.562782480420955 11.864406664614886
Cr 9.451888240641498 8.798347722496779 13.672770710956183
Cr 11.727465621200485 8.172050495336627 11.461302181190513
Cr 9.680893859960268 8.977993248586396 11.320143020610708
Cr 10.57686018806376 6.664454817079022 9.456226178421602
Cr 8.878481549770036 11.28141343303894 13.844063790203547
Cr 10.61069103520354 10.747811976265673 12.191067043461654
Cr 7.865300210528512 10.337395459368588 12.042391774199194
Cr 8.27240706778911 7.235391076773689 10.359783486476903
Cr 11.719940924174308 10.297200803817656 10.399161738854318
Cr 8.873900769788596 12.762844496893857 12.014562693696938
Cr 11.131525354749096 6.948429501172613 7.195611711829868
Cr 12.367283725018389 8.607281960064295 8.712888791519058
Cr 9.227696325632756 13.739619381714656 9.5185254640976
Cr 12.692309268737565 11.919415434557045 9.445259911817553
Cr 7.849917169202633 9.667527240082864 9.379635885988543
Cr 10.259177983279073 8.743143372861404 8.936468250967001
Cr 11.38265183378776 12.736547983253418 10.84125566758115
Cr 6.271262785856853 8.42959886888122 8.476035116534678
Cr 11.61782522858906 10.74323072256921 7.918598946159412
Cr 10.874136759666305 8.872690835432852 6.314927464421583
Cr 9.375271766019132 11.390680247791027 10.052507016129567
Cr 8.531735420793233 7.672212924887295 7.653833540040911
Cr 9.215553617993727 10.49595260430397 7.331494929806322
Cr 10.536199707524357 12.861796450120787 8.260261568623367
Cr 7.873409529014135 12.015154344186993 8.01778433375506
