23
Energy = -174.94924092 eV
Cr 10.596534356601447 9.166651394603957 16.555135190036157
Cr 14.836025353899752 12.315115483817749 11.986309898171353
Cr 8.346710686059046 9.521669480168727 11.861469833157209
Cr 14.198276323728205 10.531513559576656 10.519265091806705
Cr 12.415439302628801 8.819797223068521 10.779267206488273
Cr 12.143835469872243 9.731049737568057 8.67709588907993
Cr 10.790262300782755 12.214058823564445 8.41709759042281
Cr 11.880508190388175 11.95154953883134 10.946830611956827
Cr 13.211489544375697 11.920250997901993 8.841697323137739
Cr 9.24163470701869 12.898417106103631 10.063164392487103
Cr 10.291221560379096 10.384067299140483 10.052180571858857
Cr 10.867427466601185 9.68307623460184 12.35096580828509
Cr 12.59039128559666 13.816288095409922 12.397231399433895
Cr 12.056560943556288 9.885169868092502 14.853962738767462
Cr 11.404653272650897 12.213369267399349 13.578540819191378
Cr 11.61247370095678 14.173991821669084 9.675183842021376
Cr 10.388496539630266 14.207839422432809 11.685628976307122
Cr 9.076605266744435 11.688343425620031 12.136851269725158
Cr 9.728186335497842 10.607499628411245 14.293185917161134
Cr 7.941504256018054 10.744693871980342 9.850521407981649
Cr 13.916725398796075 13.675391266471237 10.342826417061463
Cr 13.355820721954753 12.165263539539897 14.835507581541904
Cr 12.95027166135492 10.69500419170533 12.630059658688168
