27
Energy = -201.50046854 eV
Cr 11.244216716009284 8.993407744640315 15.743139234840678
Cr 15.606310279656947 11.950045059751526 13.82296390667231
Cr 14.075022504975959 9.994068749649319 13.112141804660233
Cr 13.87126498313759 10.33768664701556 15.514402716460646
Cr 12.727237754858104 8.256432358431821 14.90840849147434
Cr 13.734609958110328 12.738445867711905 15.412203245114947
Cr 11.697578004809746 9.022171783391821 12.822177591012979
Cr 14.86867680761212 12.16303167473636 11.403411695167064
Cr 14.699903070232747 14.23288237684949 13.277973613591632
Cr 13.1518469139287 12.243076293635724 13.09917845830987
Cr 13.110190239452198 10.713753166736595 10.758240610354397
Cr 15.367296254478504 14.375267734853804 11.112130594167876
Cr 11.863517595696925 10.81541640162458 14.513411634156725
Cr 13.60815184751803 13.139910979449034 9.438816049331667
Cr 12.530183645080399 13.816456563645756 11.492788450986481
Cr 11.344907465941334 12.502310902152232 15.847190055082576
Cr 11.576931881616169 12.367272642089954 9.40212468288578
Cr 11.232367441005268 11.1825423239447 11.887324255203808
Cr 9.624199314798727 11.055900631181752 13.65902636089013
Cr 12.49149433010369 14.554165106171446 14.198271987669457
Cr 13.60173127328701 15.56176881454134 9.833916624338377
Cr 10.83399537820894 13.230448511615128 13.64720390872405
Cr 13.468080111497661 16.002068188581312 12.091121713539593
Cr 11.39526315270551 14.757790027601626 9.546121766463228
Cr 10.09104157666427 13.066953718689247 11.244129446541123
Cr 10.712461584649713 15.473149611998126 12.296226084123902
Cr 11.297005681373756 16.84580501904536 11.017476324259395
