28
Energy = -211.19624264 eV
Cr 11.43751429318801 13.32996497430264 14.466215904085196
Cr 9.246243733887821 9.65629206660214 12.7126275284388
Cr 13.88021128318081 12.715143306713678 9.84272866826575
Cr 14.237986928653749 13.077656977056133 14.379483201146673
Cr 14.877146666024297 11.852186033815292 12.196605809790952
Cr 12.858616990755511 11.072563173992734 13.652117031170397
Cr 12.877069493476315 14.99640838796303 10.702934941356093
Cr 9.146219608202424 12.779316258874848 10.368699485973854
Cr 10.583921278382368 11.855304268574544 12.377274050346472
Cr 10.129267044556487 10.514184253810916 10.59235076727604
Cr 13.911801054377936 9.164367537751945 12.272085967015586
Cr 11.57918760584549 9.186007588219075 12.698757578021363
Cr 11.842417783810717 11.02322482595856 8.813950627163521
Cr 13.466816765549984 15.01212597956558 13.399592801931881
Cr 16.401647514439134 13.378493948342765 13.748483334570357
Cr 14.381859480239529 10.530212473390616 10.099179832063925
Cr 11.451297154866305 12.9540145060703 10.006554957314261
Cr 8.042048766091083 11.582001146886842 12.051978858861771
Cr 12.74991316116897 13.167034073820755 12.294497955773297
Cr 8.798788183217088 11.865727440057304 14.283886733583172
Cr 12.625099143485192 10.899896367705539 11.137167604971918
Cr 10.570297501456542 10.96792692217488 14.56126461846887
Cr 11.801123623496839 8.792554460734868 10.54005628074677
Cr 9.059464718095654 13.873458518217845 12.909784885079247
Cr 15.189582545424818 15.136061831575912 15.578964177574584
Cr 15.880782855674584 15.812612702462946 13.85220051199325
Cr 10.756290221778858 14.574996106261883 11.955894251984784
Cr 15.056866136370575 14.140529775797495 11.87231452367629
