26
Energy = -197.83296168 eV
Cr 11.740876438161152 10.606874587891765 9.589642615124554
Cr 13.179977249900954 8.567219837368462 10.230279798890642
Cr 12.118334037690918 9.07078241795806 11.62091586206595
Cr 9.151966634028472 11.330473450301115 9.988352968177448
Cr 12.419926107756089 9.380084808893484 7.908494512220818
Cr 11.035236815839786 12.028385767567478 11.71015184263156
Cr 10.322744899170678 10.967934339492492 7.639067969166241
Cr 10.412400646146986 12.925490239481462 8.688734392922505
Cr 10.552539035087344 8.455629044499739 9.598057072850468
Cr 9.286535318965337 13.808575144904752 10.942472790957252
Cr 11.74993017885424 6.473172585591894 11.10713477301022
Cr 12.493513419547028 6.8983801111610195 8.53085873623808
Cr 9.347069164925285 12.018031192438936 12.890798867527067
Cr 10.6569467756121 5.941995467685597 8.55457442487187
Cr 7.794418342925607 13.526081203071705 8.846488763680355
Cr 7.551754636273086 12.957279318151341 11.461550174345838
Cr 9.903402534557445 10.04519398656165 11.646125160970684
Cr 10.60937738504328 8.410858449601264 7.109714959220633
Cr 8.013574080946643 11.999610781057081 7.5045093337083255
Cr 9.04819946506005 6.440448999716494 10.540225590077737
Cr 7.9392239776712925 10.440921568215716 12.129989718875908
Cr 9.617119095907535 7.662493210322205 12.01214732799832
Cr 8.133774485577867 8.805703837049414 10.178919626314947
Cr 6.828450478148105 11.179916551067022 9.925058461761244
Cr 8.313328035348041 9.647173043568714 8.278615061634623
Cr 8.551526384144713 7.227791993827619 8.172394236163898
