20
Energy = -151.09513068 eV
Cr 9.589022228758024 9.918053804757898 12.700957499273574
Cr 8.98115822927119 12.959851548176216 9.532186208039867
Cr 9.858122179721443 9.035377651057622 8.46266248284675
Cr 7.6329480116735455 12.013201175602575 11.818639992691216
Cr 8.959466477696733 10.525879987419707 10.460542799154803
Cr 9.679989678148157 11.62789112015294 7.717030250295732
Cr 7.054396734887724 9.771748041790508 12.349694335097603
Cr 12.560479136626483 12.198022316068391 12.44633980920636
Cr 10.250321208029412 12.521711265038377 11.647153564740908
Cr 11.420726666777949 7.767249058064892 7.1589686150428795
Cr 10.38080738085119 7.947015494422721 10.989652171776587
Cr 11.721160631965828 13.591362039568981 10.141122284787178
Cr 13.326371967521537 11.731015828770143 10.160515451419764
Cr 7.647358933133766 10.550722400242503 8.57433970613365
Cr 8.108797998839002 8.310106029231516 10.61046996887687
Cr 11.716121459824972 10.146779627285055 11.686121271883879
Cr 9.626052030466814 6.708412182681597 8.97409272550487
Cr 11.049804005656195 11.17572534964928 9.534938683051312
Cr 11.980557219998003 6.4540145081614515 9.140486233028795
Cr 12.185933694779497 8.77545644648495 9.623681821774472
