25
Energy = -191.42614716 eV
Cr 12.395516336142293 9.521712038113327 6.474200896195748
Cr 7.914139640174767 10.551856060447696 6.2445861162435525
Cr 9.868871231153658 8.852274239817762 6.602743780649812
Cr 10.21463194719199 10.87798349443488 7.047277036895902
Cr 11.842845323849813 6.999326920633191 6.880594269809927
Cr 6.307028699978082 10.329807425958329 8.478042219061782
Cr 7.310282064614768 8.44057866569161 7.449282517362719
Cr 7.975758962530556 12.018750173112217 8.31383295744129
Cr 11.365921231856715 9.030777964824216 8.665664982633931
Cr 12.718895087673287 11.288893656181136 7.847889974774204
Cr 9.425676641798928 7.2623713966946655 8.572437608754429
Cr 8.911041537863769 9.9587154438427 8.677659903420064
Cr 7.463122274736682 8.197772815092462 9.680916279948578
Cr 11.038049025486584 11.108179143068622 9.575917812897247
Cr 11.343020874143779 6.755091589809005 9.372465904188305
Cr 5.318047091808185 8.639542190575167 10.424471888072905
Cr 9.032500120771012 11.809579776576536 10.64901204697597
Cr 7.11425840007438 10.527720234888095 10.58693703082768
Cr 9.125726170463839 6.7475327412450685 11.093183560221158
Cr 12.041006656040265 8.873989208356958 11.01240278456925
Cr 9.675737994939672 9.002834471201966 10.953929098374214
Cr 6.845145811762892 6.562190442746123 11.666447407887862
Cr 7.251352515369186 8.474107585222642 12.260953639749662
Cr 11.456559781428943 10.863861334283634 11.936241243539957
Cr 9.226501154876305 10.486187563911901 12.714545616234222
