23
Energy = -172.17379606 eV
Cr 14.156039606787514 8.697984018033194 10.667661787868925
Cr 8.870491641384268 10.93192881311647 9.633513661443189
Cr 8.17959341288887 11.650034222319542 13.15874493194026
Cr 11.689622538500727 7.94692893859941 11.71169658848364
Cr 10.941016497087805 13.723891852342803 10.17326907239145
Cr 10.196962622720234 9.152555911376256 10.870019163759503
Cr 9.526502832221745 8.237283189990409 13.171619146458363
Cr 7.861950144172313 9.03463352949812 9.500825642454332
Cr 12.785121042259677 12.622632619779694 10.918260896288691
Cr 11.472164271101061 11.17597990394614 9.177126194947423
Cr 12.911908015547482 12.675731320848541 8.766373757515215
Cr 12.510834492599574 8.660858112198769 9.628857641202323
Cr 8.109713432944153 10.073782647857946 11.908640930214872
Cr 8.607240051340122 13.8043417947644 11.632603074766598
Cr 10.414094047369465 9.97523819852244 13.113591923484789
Cr 7.484510376068443 12.543735237570306 10.887126556183347
Cr 10.256256960073921 8.954792159769617 8.441522506574259
Cr 10.091062095812243 11.854509926959826 11.438618665999464
Cr 8.850240255393805 7.631809934247886 10.95602340487065
Cr 9.31939114072021 13.16002344266694 9.059341888190046
Cr 13.956474390832778 10.691231282734579 9.56932862845303
Cr 12.790573210374442 10.07115735885738 7.867681581032108
Cr 12.37479474981714 10.387028864269292 11.355938283737112
