24
Energy = -185.2706045 eV
Cr 9.36348554401574 11.076813605265857 10.837435215108199
Cr 11.069849670133912 9.500044434530562 11.97771341182369
Cr 8.397057023671362 8.686360633296871 11.152682626868481
Cr 10.625286074190512 12.668165827425302 9.469962498285915
Cr 6.72266938111029 10.787137128617932 11.103905457521813
Cr 12.040676268385278 10.707362874073135 10.166989721012538
Cr 10.324058478879587 6.588751413385225 11.343619504204819
Cr 7.8744763832966 12.343664200921769 9.13734174101016
Cr 8.000183490811935 9.876812266195879 8.936519805428492
Cr 12.713662996948875 7.972593270210682 10.98183873127817
Cr 6.149381908700799 8.458835422363077 9.512575043740163
Cr 9.031764714379543 11.81589298806576 7.114987212601203
Cr 10.344597912291603 8.481246491955092 9.919039575198891
Cr 6.69388975466424 10.938036055700984 6.951383487142899
Cr 12.638647565418788 9.046365925609827 8.643166351153415
Cr 7.73653203620276 6.528486918219432 10.512281893568106
Cr 10.214879658847476 10.264506497847485 8.406358335026827
Cr 12.063662096127423 6.4606213121200335 9.13506994006464
Cr 5.589418113610074 11.02759429663986 9.057308654402764
Cr 8.816299401514001 9.370521367287486 6.270406285337319
Cr 8.591821553724012 7.637960324643283 8.47604819124726
Cr 10.038723217910839 5.847951982169104 9.080171059154969
Cr 6.652260747905116 8.50864146429041 7.05155476172989
Cr 10.75688778339169 7.9885137063895435 7.295304899028712
