25
Energy = -190.50742579 eV
Cr 13.164135048121299 10.377197885556113 7.69117810667003
Cr 13.739761718431716 12.243503646011893 8.246263555934384
Cr 9.250934885702131 9.682882287572365 7.914565013863804
Cr 10.993284522180478 11.643943785348851 8.822346691042785
Cr 7.225676681952081 8.60245006385344 9.375018595159519
Cr 6.491082341272076 10.301112378609838 10.397182206495003
Cr 11.321312842784794 9.507862511089728 9.332673957183099
Cr 8.238741162983942 11.33134609125273 8.620501146811963
Cr 15.10123110934118 12.405667941980314 10.685209589605787
Cr 12.453524322439023 12.868634789081574 10.350224187135455
Cr 13.160195322180513 10.531805337983936 10.345787332319668
Cr 9.12591075879675 9.791042088209544 10.520462257778796
Cr 9.614529232476189 12.77127037729519 10.457623141341577
Cr 15.360760082466765 10.705897010305916 11.824146500259717
Cr 11.147550499613374 13.857745120228804 12.29838068546615
Cr 11.305061986729207 8.623890676326008 11.535553583940798
Cr 8.390765997337905 11.35297025022308 11.711409576901401
Cr 7.588451273645729 9.180737885116615 12.597130178078094
Cr 11.05342197624094 11.322456167590795 11.595585778235378
Cr 8.84309693192261 7.83644060714063 11.930208831017888
Cr 10.130696703443189 9.966506019580109 13.074023599093993
Cr 12.936290414533707 9.782284590736216 12.539040539293136
Cr 13.372996138424297 12.295194284070247 12.605136427961565
Cr 9.684213618271244 12.815063714710632 13.181220001856145
Cr 11.950147562669278 11.845867624086006 13.992901650513787
