29
Energy = -220.79498567 eV
Cr 16.251239022745423 8.655402138709952 10.595434665904564
Cr 15.051641818025352 7.764310411170501 12.295192862486111
Cr 9.37622109335763 11.44549126338144 14.767145923761868
Cr 14.364826871191863 12.842043860810149 13.072119649673382
Cr 14.228383510062871 14.792645574006032 11.628622345613735
Cr 15.07627764265138 12.250194947810838 10.905598334512073
Cr 13.156513415023086 8.51906890246351 11.922698418768222
Cr 8.680406694760268 11.433044263691876 10.70179147026656
Cr 12.03441496770422 13.78984599327317 12.513615659414137
Cr 11.282422282800244 9.875744397766692 10.843420116387112
Cr 14.978994039599716 10.093580959085424 11.642609679221415
Cr 10.946684222900005 11.686210672685707 9.662923620780209
Cr 9.274885114851841 9.441108348262404 12.817298304086293
Cr 12.776515893932311 11.209471381573398 12.046558799336903
Cr 9.745882367289601 13.804971796137286 13.506466646649942
Cr 11.919052725385118 15.734547742163876 10.857485207006714
Cr 13.575148256193357 9.730553749653422 13.962670318622523
Cr 10.361882610721844 13.675061162436567 10.713196647454648
Cr 13.283499477747247 15.510684261988219 13.086381498944089
Cr 8.396009636737155 13.649860677010324 11.778608999574878
Cr 14.306877980664302 8.282105717058924 9.96731203025439
Cr 13.431414876768375 10.477536082857224 9.826982475942643
Cr 11.759769188515099 11.942935856672573 14.094308782730403
Cr 11.068660680130652 9.548927971791512 13.47629688596583
Cr 7.911717655090269 11.672915721760043 13.31100371799525
Cr 15.511186954973322 10.444239128527997 9.299868819699737
Cr 12.910768486545015 12.983884708708835 10.534717021872925
Cr 10.593184844649125 15.863522842104098 12.162941298874596
Cr 10.274282632109264 11.71965297079282 12.265790959653767
