21
Energy = -160.18482663 eV
Cr 10.925155762540195 10.810262706173708 6.761586362886387
Cr 12.233155820161679 9.104567871900779 8.204740392578685
Cr 11.885906570784034 11.740551241936723 9.122760928394127
Cr 8.38612875004995 10.752231911359546 6.577756690142354
Cr 9.287911572961592 12.361472217113416 8.634099033497272
Cr 9.890368862617125 8.385160050160621 6.619577715771955
Cr 9.901867398149744 10.022731196606452 8.771266062727998
Cr 9.692527991067326 5.75804666168432 7.56215647663671
Cr 7.516205213795405 6.544904308051478 6.772274664693049
Cr 10.397424219684634 7.593135806566705 8.900770030090959
Cr 11.435510010379275 9.628458521447376 10.658805235335725
Cr 8.001290488537636 8.831222813952179 8.090116798402622
Cr 8.71848826369464 8.952096065238583 10.680526522950505
Cr 8.110136643503036 6.833153738428908 9.491186457107732
Cr 7.4944943575587954 11.250778871455378 9.261149518867418
Cr 9.712461678693687 11.68629997699131 10.933576639186697
Cr 10.408418982361898 7.321190607004636 11.312607502974323
Cr 6.303740062466419 8.929534581443948 9.778918114051987
Cr 10.009785571650001 9.748285750870412 12.79846101239734
Cr 7.468147642736243 8.072300162105979 12.24347881837478
Cr 7.613849614455413 10.981019927261958 11.83560646820765
