34
Energy = -268.3232223 eV
Cr 7.485901400159693 5.996237051681875 9.838223879127124
Cr 10.139552588274427 5.579360478634989 9.2623513704713
Cr 8.951645128962035 7.096023137481409 11.445753697200553
Cr 8.399206520003144 6.584598885989165 7.612850668590968
Cr 7.2135335957715965 8.24478428898785 11.400590602776086
Cr 6.247330314610403 7.669108850435768 9.065340853533922
Cr 7.462257834877969 9.929729223661738 9.720019340875966
Cr 8.729839948023285 9.439786305589388 13.186408402173347
Cr 9.125424257209437 8.115613625434442 9.11976314274628
Cr 11.231419168934458 7.293211490186253 10.535888086961984
Cr 11.10042230229255 8.144631964864246 12.952707282093737
Cr 9.730444284166978 9.301058210629037 6.829034828042272
Cr 7.066662486829561 10.913356756430657 11.895591683724737
Cr 9.846425196383281 9.708300141476368 11.139428446589227
Cr 11.156373666268232 7.16025153523653 7.753863120432545
Cr 7.354650400034246 9.259828809086288 7.368552770795544
Cr 9.400356404395566 10.78814990673649 8.687622982958072
Cr 6.955663645540027 11.97166230002893 8.584215885024705
Cr 11.243269967388441 9.46666029442304 9.027238192782574
Cr 8.507215703884128 11.85711836977173 6.751615072984962
Cr 11.239977680807732 10.727246033178353 13.191908755580457
Cr 9.513860851208943 12.021762846328917 12.707275829271333
Cr 12.59707336256367 9.477222496768634 11.225538795704662
Cr 12.999725175089543 7.819962940108641 9.273904588467033
Cr 8.47806084052658 12.296575846143016 10.531830623750954
Cr 12.13033420058255 9.281355688750565 6.831457351261755
Cr 11.140016156281625 11.828852001790734 10.45687716407214
Cr 9.532588605359663 13.402092044282238 8.434912912816472
Cr 11.560827838768883 13.519425287639816 12.55459599809048
Cr 13.0850506490711 11.76606287468592 11.89011898698412
Cr 13.187012264500172 10.782345432368832 9.229314973752086
Cr 10.083103482344736 14.135119703717349 11.042303486360703
Cr 11.389497199099438 11.751223784099874 7.664248038608332
Cr 12.28085761388536 13.441987742965013 9.360250153639022
