36
Energy = -283.23687081 eV
Cr 6.430659644006603 9.476633050406406 11.639220312871995
Cr 6.111730315849134 8.431337375220995 9.5512190772162
Cr 8.741624463243458 8.117381340108476 12.97914037115787
Cr 7.004421658110973 6.788944367863971 10.783720670598221
Cr 7.1042415335846 12.19660689501693 12.137864780987421
Cr 8.775769350917857 10.379500193798602 12.00282782640231
Cr 7.278926791784637 10.896806728284302 9.80706853986167
Cr 9.847876153563684 12.63380959376769 12.93825286835921
Cr 8.635471503488311 8.64137727538204 10.372320370293087
Cr 9.836861402559132 6.316043159856667 10.724881787573647
Cr 10.696382370261006 8.528016440900222 11.668033415613975
Cr 8.477055930616128 7.027197135229418 8.684165416951005
Cr 9.170826630800667 12.190822974154628 10.374051553984465
Cr 8.387963341140551 11.906769464897057 7.854680609756886
Cr 12.565575647471473 7.063301428920373 10.87323658182113
Cr 11.095910606340762 7.675065099992912 9.128479564466236
Cr 7.826697354611794 9.263175870312939 7.940559424630453
Cr 6.910133622574618 13.445228339751448 9.62697829611391
Cr 12.784827526433626 9.389672115492536 10.237615185051254
Cr 12.993341325315187 9.643191731992184 12.433363579264348
Cr 10.331899614430847 8.291427848292335 7.110354764756181
Cr 8.893777294718875 14.285659053732454 8.853909817761496
Cr 10.613692046672787 10.112120085496203 13.445759456957516
Cr 8.551425123696749 14.125822504843235 11.61453083164022
Cr 13.25570563779548 8.125712102168231 8.100745930246088
Cr 9.53205212385297 10.456461517475446 6.706444271653958
Cr 15.01558433695544 8.590094901670692 10.257178792197578
Cr 10.0618510935744 9.989752556795324 9.309958318404215
Cr 11.126270643037161 11.143290613522217 11.339294564416722
Cr 12.001555396273407 9.97996380411741 7.7270347696786645
Cr 10.740375096568718 12.405194396652977 8.468846445917903
Cr 14.750428603534665 11.256433724598422 10.911959153587553
Cr 14.687807894075995 10.266275385511971 8.635737029680689
Cr 11.14457056628612 13.821202294913661 10.629440362296211
Cr 12.662843841989359 11.685365048090832 9.408466056776152
Cr 12.826423874041597 12.363349471032553 12.174731439771406
