35
Energy = -272.45224446 eV
Cr 11.005698248581881 7.879868971824389 9.131855679339527
Cr 7.388124794207745 9.118299284596864 12.013699924483415
Cr 13.163509516237948 7.663747890253198 11.5653677464294
Cr 10.917693026204534 11.628913247792838 10.644002753428104
Cr 12.966719549195599 11.653017644076451 6.687939970255592
Cr 11.750071539753458 9.5007549345623 10.672745355114893
Cr 9.778751263656556 9.399304952558454 11.784471729600345
Cr 14.420958388908636 10.129572635959615 7.303231652842718
Cr 5.812097580184043 11.350629437686548 11.90772148959154
Cr 10.651628295589996 11.388673662096275 12.870036938295069
Cr 13.368551806604737 10.929539915972759 11.82017545149467
Cr 8.411637057320913 11.509634054083946 7.750640884536154
Cr 12.270694450091415 8.760764086873943 6.357188072821841
Cr 9.77546391450473 13.326899673326908 12.14351033700429
Cr 13.425584471950465 8.822450306714435 8.972237124255242
Cr 9.06924627980168 8.6139181936899 7.518032462482676
Cr 9.237678905214615 13.065341553548265 9.476593082828193
Cr 10.155492087183935 11.078279606410339 6.15380348457525
Cr 8.670463820119576 7.09601022598428 12.705076846377983
Cr 10.980384025500516 7.191459974081813 11.39343855701946
Cr 8.376435739171562 11.349778791263047 11.242896708675582
Cr 11.488550136495348 10.000166592127627 8.053262713037492
Cr 8.384653940091273 11.244852946101227 13.520068386150005
Cr 6.615596734507654 12.075845863478683 9.39257294206175
Cr 11.891647066319257 8.844530120322556 13.32933442585941
Cr 11.175370227252431 6.778760668269423 13.669436742810255
Cr 9.442334168757865 10.213609520644948 9.323538092971708
Cr 11.01237771701854 12.607682705944766 8.026160492297876
Cr 6.992688436731629 9.637882930609752 9.628142267052972
Cr 11.75052842946815 14.021180622216558 10.136932336892906
Cr 8.798898066856347 7.594828695010782 9.98075850057312
Cr 13.11056919710975 11.694639047981129 9.50321992547373
Cr 6.890377406375746 13.338434385257873 11.698398133334559
Cr 12.647611351124207 13.099815490187943 11.93408655295608
Cr 9.479454305213363 8.749385562757753 13.925406528492353
