37
Energy = -287.56889692 eV
Cr 11.696934843961012 12.128457016805559 16.224323494603013
Cr 13.44565288363384 12.7488673265379 15.266646633887719
Cr 10.673974702853405 13.79691588325687 11.859813094366297
Cr 12.766846362569758 10.138227774177508 14.851138680565866
Cr 9.309036663235494 12.164248401088047 13.794712509480132
Cr 10.252264506945101 10.197304616276542 15.638698132144386
Cr 8.468269163023653 13.329340238285358 11.533714751775996
Cr 12.771673520769111 14.988578869332752 10.811603866142075
Cr 13.220152750452623 13.070544607391094 12.605041303511072
Cr 11.519251277180585 11.891942654370752 13.590012042200714
Cr 9.861710191766104 15.27116092261472 10.540126417858529
Cr 14.168509245383106 11.034458635246484 13.419750412732336
Cr 8.108499241904093 10.275580458873568 12.194282475719419
Cr 13.036061004559263 8.376123868081583 13.319104948436753
Cr 11.960026186322546 12.540608672379857 10.45422625843633
Cr 8.57552545600549 9.828985103125621 14.58271255642427
Cr 8.024143374939765 14.205986402367271 9.634746888444774
Cr 9.82826391102508 11.582473144382941 11.355837424725687
Cr 11.21402713764971 14.313897765112257 9.205887514946669
Cr 10.644133071353503 9.484721171648323 13.178785455999074
Cr 9.561944247463947 12.836688391674528 9.34445613659317
Cr 7.354891692081118 11.773372664298323 10.10849758411442
Cr 12.210441933427383 10.37511190310651 11.5079546309805
Cr 14.42994413035926 12.050254534736553 10.859661204688104
Cr 14.403941703737429 9.462997981261795 11.448087527696005
Cr 9.90892131629222 8.820182102464496 11.08967378576035
Cr 12.077055534068101 7.761877798389814 11.531026662474238
Cr 13.809265353554984 11.081093092504915 9.287699317396825
Cr 11.686751755564611 12.00214193454826 8.031864400465395
Cr 8.596731299995717 10.2848209211957 9.459465525172725
Cr 11.213304122187886 10.071234128786406 9.441274256974637
Cr 13.124997879432213 8.745526412411499 9.479230481159508
Cr 11.034061579046195 7.214977616551822 9.344331347798978
Cr 9.374090688469721 8.248325376197041 8.555972685313986
Cr 12.832932059938376 9.977431357513256 7.143335094051715
Cr 10.057404389431527 10.525263573730193 7.180788873911271
Cr 11.63411750208245 8.48795019572618 7.170375848642699
