31
Energy = -239.75314817 eV
Cr 14.882036256436983 11.024502988860476 12.310177110898485
Cr 10.362253061905546 9.046215528502021 10.168257102144054
Cr 13.536068833126677 11.611426643708374 14.791014345771325
Cr 14.689606548799317 8.470152431359384 12.256432403599373
Cr 14.42902498020602 13.31569231438071 11.181979345774334
Cr 7.834921810340801 13.697742816080703 8.800347487976154
Cr 10.964958662003214 15.253351367448385 9.00223222567394
Cr 12.811868461570906 12.3833391392475 12.400809650286428
Cr 12.691091832772418 9.895662770645945 13.246728263109501
Cr 11.201672705633847 11.113246287394748 8.852664758326826
Cr 10.9673081652329 11.321761835261313 11.617924993893231
Cr 10.442183334101554 13.537962148138938 12.562692658448352
Cr 10.341394937657867 9.00679535140023 12.255151438050907
Cr 11.636516834967985 7.756979237759775 14.066813669552687
Cr 8.69551473735825 15.676039789648831 7.918272867557502
Cr 10.270987988742286 13.415954189652147 7.795196397111999
Cr 8.97467820202068 11.11602366771538 8.64809763875355
Cr 15.20381637679797 9.811953155864522 14.441697678023193
Cr 13.92158944243169 7.385734410686825 14.086815138778858
Cr 9.344732937481185 15.320158369780236 10.694333461484273
Cr 15.193884334057184 12.662344922992508 13.83179992130444
Cr 12.635915092251894 9.964733397227011 10.90471595389285
Cr 10.975941664264244 11.300912818931158 13.961005429090005
Cr 12.01132001053168 14.809249171815164 11.539282828485511
Cr 12.179184545747816 7.598630013046955 11.920138970177444
Cr 14.12811192331676 14.647348760229042 12.828323546618545
Cr 13.38735199763299 9.198842427771302 15.669443336475348
Cr 9.895134556179524 13.107004065652266 10.230118638619626
Cr 12.470778577997528 13.656562941428772 14.153617795944657
Cr 8.920976695292387 10.62853471375487 10.660697607735473
Cr 12.148745278686295 13.00035571405923 10.057705209967935
