37
Energy = -291.64722083 eV
Cr 7.851127760671992 12.628316077565808 9.467109176523849
Cr 9.1863572896267 14.571200673452044 9.296599205052681
Cr 8.607638899591104 11.259078780943213 11.432011013165566
Cr 6.32955223013527 10.492902977731628 9.70825620816996
Cr 9.18813978099963 13.515704081685593 7.296383626800994
Cr 10.015586105749664 13.142414418328418 11.220408831476792
Cr 9.338349005265753 10.103371655374184 13.259423943767798
Cr 7.95697692514376 11.35523031254797 7.635492567937363
Cr 11.45179302025465 14.127500485406005 8.972313872189574
Cr 10.124848602056817 12.059577794268558 9.192562220317297
Cr 6.549910447778601 9.344518310460154 7.9463280194746035
Cr 7.2893911253938235 7.967756947009204 9.58670211913902
Cr 7.145442861268504 9.260221797028526 11.556221880648046
Cr 10.853459499457166 11.95963541263022 13.307578138360027
Cr 11.488872096127158 12.805317419678087 6.937471488617977
Cr 12.110197395575764 12.5129609022993 10.93967427363513
Cr 8.725139988426905 9.929938515430146 9.46505011618079
Cr 10.421059244812211 9.321294737208325 15.13604965693751
Cr 13.040630515066221 11.241086184736927 12.725370156243274
Cr 8.428772846989132 6.722354686522004 11.474121440102435
Cr 9.537008093568048 8.594151712751076 11.285576462967178
Cr 10.15427217354888 10.700131483788807 7.0365671043706755
Cr 8.928842895210597 8.70177821296546 7.3774310140842205
Cr 11.74969220717706 9.315341825716457 12.859959541982583
Cr 12.410222467513847 11.405254170578683 8.60614400205314
Cr 13.243691781727298 9.988494905352244 10.677992379942038
Cr 11.034195227968553 9.28347088311393 9.003170062076963
Cr 8.225987024634122 8.059197495845288 13.63784040575046
Cr 10.973227639735118 10.687390869208718 11.081269690945895
Cr 10.280646758528308 6.089566714508778 11.010172171889112
Cr 10.42061028331441 7.440332314958131 13.334875626856865
Cr 9.699049375575017 7.242746578575069 9.195805126609402
Cr 11.313289309720124 8.037738250645148 6.917457983088808
Cr 12.491720695750468 10.244865049500012 6.566204075469118
Cr 13.431857263677928 8.808966863585571 8.69184197383374
Cr 11.744116826557688 7.997632113892568 10.792238196092384
Cr 11.813150393396114 6.583789478913152 8.804518070974565
