30
Energy = -169.98446988 eV
Cr 12.735897425039068 9.245634497084126 11.190967642578926
Cr 13.337153670143893 8.46214613208366 8.878043131901697
Cr 12.066197335424825 11.590979609177799 11.320825297319036
Cr 12.354019028022401 10.4680168781038 9.285493787895287
Cr 11.753242415009641 12.639425007805128 9.049743550005184
Cr 12.370657097754913 6.9809357388501745 10.241274123014895
Cr 10.624788622868797 9.87617275084261 12.07164665970816
Cr 10.469168542359558 13.590987379900927 10.687881477270759
Cr 11.161375253095379 7.557166532101519 12.08751698755315
Cr 11.503317882982847 6.570546676853467 8.210154689474171
Cr 11.36659523190903 8.88598761028101 7.7272140674059
Cr 10.475707790721959 11.072971207748349 7.805205324305815
Cr 10.747871789221984 8.708218330622342 9.982468473158926
Cr 9.907725007404101 12.133230015483322 12.310571138041333
Cr 10.058051584783579 11.155409592472566 10.114918563649129
Cr 8.235290914898432 12.657769438632188 10.539591616183161
Cr 9.628349490370953 13.354358201255872 8.533346410556065
Cr 9.433856623979965 7.550396651291582 8.179998819175422
Cr 8.839908901823142 9.621461034670924 7.172414035428621
Cr 8.964088916686391 8.171852759551898 11.459028375863415
Cr 9.989939391954044 6.429640190539546 10.151361023663839
Cr 8.189811327561678 11.595286832484803 8.453246657348034
Cr 8.2971706851164 10.519021542709647 11.620046308817617
Cr 8.344315731359723 9.409995715186438 9.484390566842418
Cr 7.258986863625551 7.753091329693493 7.480137178749234
Cr 7.742116203216928 7.123057297161451 9.742460576481138
Cr 6.712869088187011 8.80630939245269 11.125239442209521
Cr 6.594641675632128 10.182563286123573 7.6972625982237
Cr 6.610132926550693 10.967557799728374 10.048456418293487
Cr 5.819380285953212 8.575579688408709 9.029359243587233
