39
Energy = -309.13173715 eV
Cr 13.363205526785025 9.003079619918333 10.153298900522737
Cr 13.29770923396569 11.534971149149321 9.188024496143125
Cr 12.671707182695794 6.918911535403087 11.137950126513925
Cr 12.25027131525822 11.04788745880338 11.392422372237762
Cr 12.37586871434634 9.117562812860749 8.04926780791999
Cr 11.987740218721429 6.982525612234987 8.825041528240808
Cr 12.340025433025907 9.179297924290283 12.737205091975152
Cr 12.508410041059978 11.33034670119559 6.755582696491132
Cr 11.140915825458148 12.98248392112883 10.677751632103872
Cr 11.976737954720857 13.47144706138654 8.60764099013824
Cr 10.935882627352868 10.948178606399233 8.921223266348232
Cr 10.037954359011199 6.434470567245221 10.144421813845309
Cr 10.858196628197378 9.064708030356808 10.457775995014606
Cr 10.590480258901094 7.459242470578472 12.295883343103927
Cr 10.818146719197498 7.26126401401895 6.546098067539856
Cr 9.635926598324055 11.017122744854557 11.233369118150014
Cr 10.39229704756829 10.158556472659251 6.708181271139032
Cr 10.34700029691177 12.803692698208426 7.2182180005374805
Cr 9.865333260085874 5.530675042502292 7.98668800583264
Cr 10.768434477502002 11.707842991154378 13.245468031626375
Cr 8.162855875964253 8.721254850761401 10.691431375892439
Cr 9.094853011195257 12.926380663162282 9.279021361418575
Cr 9.608336770357022 8.278315455791704 8.32248441188553
Cr 8.360330006543661 11.437004969373328 6.623583800139405
Cr 8.090331905228847 8.964612755820772 6.390499676805987
Cr 9.373672699760304 9.391712224725548 12.780046566631965
Cr 7.723050861556432 6.284636253194814 9.56700124921626
Cr 8.566162798999331 10.3349905021482 8.891350337217597
Cr 8.141136274366216 6.353271492910655 7.106257189835454
Cr 8.0736594252559 6.881005162233293 12.11667995780986
Cr 8.581260963690132 13.15178011216781 11.752303018041719
Cr 8.199404947602474 11.425719269276884 13.466586016177407
Cr 7.1480384131630625 11.536847677771457 10.722229604534098
Cr 7.026327453762477 8.145220838348097 8.495884566015304
Cr 6.846711661009968 12.315852201185256 8.410752865439576
Cr 6.746546135842578 9.727955697750321 12.35867489760127
Cr 6.168977254288548 10.00370874291273 7.460566038304781
Cr 5.743501890669411 7.438530766469699 10.619937394858786
Cr 5.878220920774223 10.033499592242206 9.756383109261225
