33
Energy = -256.79294207 eV
Cr 14.259816101960313 8.58531203695754 9.227169580368228
Cr 14.418730297908784 11.56375668952797 8.661654170560604
Cr 15.575444370821645 10.462190571890172 10.347066407993717
Cr 12.37406213108729 10.20849243613245 10.030986840972004
Cr 11.688459916060683 7.984068299559602 9.814666854539771
Cr 14.063693567749768 8.329675090783002 11.35302347226339
Cr 13.123965194155454 14.004580703296803 9.624107612195624
Cr 12.271032795129644 12.17522055851885 8.407933489867087
Cr 15.60662841824159 12.945601550225609 10.88170979238823
Cr 13.340092566209913 12.080030468273597 11.014496416568447
Cr 14.950424475369784 10.511247504971765 12.366453149019057
Cr 9.82063656881593 9.275847463267946 10.932536235525296
Cr 10.078705324717392 11.00708742608551 9.569170965184416
Cr 11.44504431609667 7.4389932694349366 12.320688987924878
Cr 14.38088321024896 15.48822802279579 11.774253976659407
Cr 12.006497586581318 15.7974396885953 11.166332183714431
Cr 14.685644785881143 13.21885004592058 13.060093368513556
Cr 10.826203613984418 13.438600333382201 10.419658454501805
Cr 8.37543980064509 13.039398210576351 9.92934229028784
Cr 12.229452230279717 9.737206815785209 12.424728819832893
Cr 10.829044056823655 11.561578336421082 12.005488023422021
Cr 11.818675571603181 8.049429698887034 14.509999323414414
Cr 12.380344021201456 13.798332010044119 12.314465337802382
Cr 9.673879185160729 9.332826877380096 13.273629898685037
Cr 13.055186952662009 11.605420574853362 13.67779826846288
Cr 8.44564178135068 11.403259370058374 11.756819348780793
Cr 11.04711448140373 10.2995094090804 14.721599976343196
Cr 9.592801502111143 13.862472339355529 12.315127758791153
Cr 7.888716814631192 15.029526967830545 11.359321685122397
Cr 11.001455394180883 12.905703082846134 14.112047391066207
Cr 8.824168785621781 11.770834269580885 14.012076318725724
Cr 6.924245497310498 13.193891773728222 12.53299187069088
Cr 8.366630334007239 14.232952049642634 14.261665044147382
