34
Energy = -267.1942667 eV
Cr 11.523670996176863 8.512622352679784 11.058900779528166
Cr 14.882937328396483 14.746717258052325 12.82915429140171
Cr 15.065681302948127 10.640448140961098 11.25085146348836
Cr 13.935063938610298 13.789876828825468 9.11685032623908
Cr 10.557665452303107 15.396558719170262 11.991866337079339
Cr 8.815081149571323 11.195648956113706 13.080235005256332
Cr 9.700485955154967 12.724447447889837 9.140943213109175
Cr 13.919466608053643 14.340440322478509 15.5174959096051
Cr 12.7372785870851 12.254360685436193 16.17860722204641
Cr 10.878518067376907 9.398761438055228 13.082948700112112
Cr 15.296228275076285 11.82360334705697 15.717424512298757
Cr 15.203945211850993 10.178150335328969 13.713458777743165
Cr 11.7416024726495 14.326285121473399 14.286277839169138
Cr 13.506370227283726 8.578412548614176 12.38649718040049
Cr 13.9437329784859 12.620934596148643 13.836198315643104
Cr 10.546323163328683 10.670603403289673 10.611139367337854
Cr 8.026641086189482 11.670346910751595 10.481878496459622
Cr 11.294618548464006 14.429139336270088 9.921880456582201
Cr 16.192156438692702 13.857009022569654 14.764496489762092
Cr 13.358573739484964 15.472433926961253 11.007103176645394
Cr 12.486055174792943 13.511204913317991 12.118942584343031
Cr 8.679367308677897 14.393167990104523 10.72843269835248
Cr 11.263422943731804 12.116416932813445 14.124397762287638
Cr 8.75213074139047 9.38505138436217 11.561663319825934
Cr 9.299351957186873 14.070746563940332 13.552870834356149
Cr 10.222287906975176 12.635826858019689 11.821373492772828
Cr 12.309126867790802 12.25866686303265 9.927933077620764
Cr 13.177401023563522 10.28763709865305 14.67791368634611
Cr 12.999343104281294 9.967457455976186 9.71910787203449
Cr 14.741080357199955 12.927526533241572 11.23424227560391
Cr 16.287511779726106 12.2889445225781 13.036842439417681
Cr 14.761366913408235 11.4111562896535 8.918196644035488
Cr 7.5059431569651816 13.045957819093806 12.210294875299144
Cr 12.643378567963858 10.849570696841223 12.195686751778466
