39
Energy = -307.32848477 eV
Cr 8.723201302978753 13.628924502450179 12.879180515869317
Cr 8.235731195788635 11.083919191559835 13.24090849269534
Cr 8.188498470290494 14.133145137965364 10.75725109060536
Cr 6.929868664670396 12.115922650605278 11.395785972751325
Cr 10.943748053183274 13.971221670110019 11.191836363177167
Cr 10.66721237918917 11.704916693661296 13.601400937799493
Cr 6.000742155540735 9.920717978564738 12.759352872194201
Cr 9.489380021186555 13.59186329363877 8.966988462468224
Cr 8.269687750453734 9.732551117553761 11.248536366634724
Cr 12.1931636252136 12.001258139455135 11.870197062388787
Cr 8.0770083744865 11.739605810666434 9.279064532127336
Cr 7.202322039581325 8.408591321298713 13.382531656070595
Cr 9.612402569454456 11.946825306348867 11.180971937203031
Cr 6.013302293768749 10.07475791723918 10.314252174438646
Cr 12.03211719933032 14.289186746475364 8.653077715920217
Cr 13.443503146284407 12.821599982162239 10.361685013190076
Cr 12.219531065392358 9.687475224604707 13.373979830495617
Cr 10.905555584682 9.778659875773155 11.493217638198008
Cr 9.579792585171589 9.103007679097807 13.772981664318632
Cr 11.373165167341156 7.2292512014257175 12.906967301292031
Cr 10.062318166925357 9.907077439754179 9.31727515720329
Cr 6.59968801786639 7.765961411383595 10.97928392655712
Cr 7.600080600675927 9.568918890026156 8.654321655406687
Cr 9.193678005901063 7.566822257877894 11.884111440748898
Cr 11.188382115656232 12.018042635048321 9.498252632686276
Cr 14.175988328568291 10.778410464156126 11.905404417545544
Cr 11.460932517984423 7.724405454070385 10.3442317969701
Cr 11.102226959970414 13.176220173968535 7.139601805257695
Cr 13.29247855720893 12.038496654626215 8.066987018429346
Cr 13.310755019799563 8.391025946857116 11.547600545539659
Cr 9.514065060607468 11.244888151944924 7.422186664543022
Cr 12.801256585275834 10.126460413045217 9.886774028922003
Cr 9.1914278352168 7.672865039306261 9.663120414913482
Cr 15.093253682045646 10.98396057860865 9.403937658442647
Cr 11.537532914778197 8.3456233522093 8.105472077992085
Cr 11.911656116052585 10.67221524221859 7.402351101807941
Cr 15.253831737678935 9.19545428433872 10.225480770773427
Cr 13.896363257999782 7.801482877926742 9.1715307190915
Cr 14.021780019898978 9.458196528559734 7.948522271763731
