34
Energy = -260.93150644 eV
Cr 7.727410848024149 10.550483759718142 9.850430873138325
Cr 11.34872417478765 9.456770260513364 10.472373608401378
Cr 8.122107367174843 13.944920125963794 13.456598859811352
Cr 13.185382101826866 14.422442426757902 13.367399703225928
Cr 13.437900366263595 13.614839363502401 9.6398255817715
Cr 9.160764753238675 10.220587039763123 8.960710465446466
Cr 13.228842314768013 8.917068776056055 14.039262048243009
Cr 13.815083137580888 8.837723663397265 11.400589797192621
Cr 12.225532530983966 12.438379753069011 14.266241736195886
Cr 14.869531343102764 9.882147108182485 12.0571956905956
Cr 10.286020993254569 12.35096689503871 13.369887144446967
Cr 14.425023063265549 12.342501280350207 12.592431867789967
Cr 8.838857685964916 12.884867220291731 9.056679196039987
Cr 12.095688425928065 13.139690194022089 11.572635550298132
Cr 12.005403130512205 15.694632843720253 11.134636879263985
Cr 7.951812407988999 11.16815258635945 12.42518537356777
Cr 11.422079083876918 10.184136588647336 14.822309876815163
Cr 11.515525191172225 8.130482701042276 12.590168028467682
Cr 15.628627353503436 12.538565701340708 10.835055655022357
Cr 10.696717327415259 14.673801859929185 13.278900799603523
Cr 9.157428256420731 8.79072850533555 11.208390514924721
Cr 12.279633878261745 10.815067784640872 12.268472982779947
Cr 9.87472487846716 13.998185577758504 11.282460741196532
Cr 14.32555308616365 14.796073412220018 11.383172420487396
Cr 13.991956606661113 10.944870768012665 14.549037951424141
Cr 13.620715047309536 11.290815156001566 10.20373600357031
Cr 16.413986347610454 11.663242273860329 13.69829570551131
Cr 7.664749636815179 13.13340201540858 11.206821794093536
Cr 14.866522361521707 13.370565967499756 14.978436403785967
Cr 11.072646427474545 14.290792156308232 9.338486436204192
Cr 9.964713178189402 9.848764814282552 13.096703946794555
Cr 15.97635189134618 14.346195318626764 13.220042081815919
Cr 11.420082243848505 11.752011414355849 9.441978863271524
Cr 9.828820831239383 11.578713607762918 11.067450682718274
