30
Energy = -231.99043781 eV
Cr 8.906131542930144 9.349850111301997 6.877658943369149
Cr 8.681839567227971 11.683642992301355 7.614774012152028
Cr 10.87733995202117 10.145866675749998 7.8535621571289544
Cr 11.243819509549951 12.456953248036582 6.856265735445262
Cr 13.142519717345825 8.888787040967834 8.636874633966322
Cr 11.59032293012207 7.613442227719917 8.113017733159557
Cr 10.367117226808624 14.037189253270641 7.812148367522489
Cr 9.427415145530205 8.16079854527327 8.790407595854147
Cr 8.407717892014174 10.151855665033146 9.430996984886328
Cr 6.970585752866092 7.795820679975871 9.699974097014001
Cr 12.858455447665023 11.408326494688819 8.896025191980222
Cr 10.350663602241447 11.975440684261212 9.262496963879915
Cr 10.962217827700464 9.476094542526917 9.915910158770641
Cr 12.583841576015496 13.30192478303521 9.228691189671034
Cr 8.243658787056454 6.468025913757727 10.394022514555063
Cr 10.692377452717066 6.997668894802393 10.713778791660745
Cr 11.700999907641684 11.81135418369089 11.285194053255811
Cr 12.588661534135124 7.47364524123641 10.743569451517867
Cr 10.45352652980257 14.191617049699621 10.484081655464932
Cr 9.680033799647006 10.870133662512997 11.635179367983032
Cr 6.468004432738856 10.1473498365221 10.841808082692069
Cr 8.548535297122038 8.691457535525304 11.446292872171155
Cr 13.364716133249505 9.999152085805123 11.088389125909348
Cr 8.259927628145956 12.262633380654833 10.582091534184773
Cr 11.222839892053397 9.061209783277187 12.243056193628057
Cr 9.447061998266848 7.307190060078183 12.989266070310133
Cr 11.922296093922272 10.846811326570815 13.413753190692116
Cr 9.929154097294107 13.354405567467222 12.405721620066446
Cr 7.341492656817821 10.614635300635475 12.58692556882576
Cr 9.351601481220367 9.041592645490823 13.742941554152354
