35
Energy = -271.96585319 eV
Cr 15.631464466799347 12.041818682472664 9.292510544260839
Cr 12.000068641531948 11.318082213970577 10.487946604043339
Cr 7.427537098859209 11.953676141752037 12.105929078359294
Cr 11.334057816765096 7.592510126078617 9.799882802810567
Cr 15.41991266667806 8.560325350779753 11.284247825996014
Cr 11.662924268557617 12.146759344689295 14.549960687105408
Cr 10.91911266668039 14.53674479993421 13.867570365019038
Cr 13.510947547332044 13.15174945774956 13.260567897509315
Cr 8.441336370288822 9.846690387734645 13.537728040441166
Cr 10.114358926561042 11.161475201196621 12.594106524419834
Cr 6.963684649631173 13.650746559798884 13.205497444889692
Cr 11.112359444351108 13.326652578365355 9.340422976335354
Cr 11.979783756700995 14.858172020111624 10.505424295162548
Cr 8.391864578904983 9.768718594965412 10.846637628797877
Cr 11.637128883089837 15.168589858383744 7.712884025471005
Cr 13.6867464805891 13.772180128312831 8.516938208668321
Cr 10.021318121444263 10.69748338878204 15.322505435156241
Cr 13.089649575978774 11.912093656393255 8.32516759898096
Cr 9.213321234858165 12.813388218525999 14.002382517363293
Cr 13.124177209672197 8.936569800825028 11.512520461695656
Cr 7.363345950879098 11.41876343350906 14.84827372858242
Cr 11.247989130092458 9.3786367430628 13.725081058001482
Cr 13.58767012776715 13.044096053845402 10.86431875881026
Cr 13.83949166536577 8.642787964034499 13.656358888670567
Cr 10.470469681460944 10.197859463726083 8.633333927944872
Cr 13.039644001886812 10.332401884294265 14.976360330252238
Cr 10.720504858327722 9.350164463144415 11.09299833188361
Cr 12.926241486619361 10.92431456325285 12.63008152352844
Cr 9.406254291377046 11.686226778679515 10.279813503922997
Cr 14.527145905474514 10.667038171410027 10.449763227681848
Cr 15.026449594993698 10.251463451630112 12.906100743696463
Cr 12.764411239276006 9.325379235817337 9.137530545243234
Cr 9.227508044788355 13.820062126816431 11.47385759453664
Cr 11.354282563830896 13.19244036307703 12.101423875357291
Cr 11.72932862165528 13.659103868508963 6.815509644332597
