30
Energy = -228.4298195 eV
Cr 10.215807665482403 10.0664430585827 5.981539017691197
Cr 9.288358613486098 7.591259999302861 5.68557914599278
Cr 7.961550780254957 9.729027739294448 6.876770285993946
Cr 11.628179459364626 11.612338402609863 7.473283437737447
Cr 11.542619108623505 8.907674883690675 6.918690992429998
Cr 10.49926867626003 6.460876815631713 6.782612176160644
Cr 9.316914298012932 11.36047614934402 8.103761886733404
Cr 9.276130987494653 8.531258274872004 8.115535191152466
Cr 12.769564956599362 10.053307942948521 8.78439113632746
Cr 11.460028018632322 12.364382176366833 9.776590528528166
Cr 10.711096244463073 10.019236987641145 9.343343858720091
Cr 10.118579503134745 13.743428519973916 8.364135515142904
Cr 9.510143238955889 6.058369873680681 9.564484293182762
Cr 7.943911219435284 9.98433779778304 9.693380772767666
Cr 11.31594434402231 7.2645097612621345 8.981257951599588
Cr 9.362246332337744 7.981643927874126 10.653391312153644
Cr 9.232046894469722 12.230097501451052 10.381231089861446
Cr 10.969933693250432 6.1907673863902835 11.506256354853827
Cr 10.56523920223348 14.46710466874126 11.018922222477745
Cr 9.644423430257023 10.249741776685395 11.603624139572956
Cr 11.771052204677671 8.396923676101727 10.976744938987883
Cr 8.728423163796831 14.274444517702953 11.643812724449116
Cr 8.95948743131586 6.844379212875556 12.486817928791929
Cr 7.18802171991685 11.451355353760754 11.236281699998312
Cr 10.646161014645655 12.508101951375108 12.587281316024107
Cr 7.8807756736901435 9.331174855109586 12.618598938712898
Cr 12.02049756949332 10.719175648909568 11.771781587804886
Cr 10.546326624380642 8.441415289637504 13.053125125130752
Cr 8.51854432656727 12.033664812920328 13.016456549834755
Cr 9.561952399746803 10.286309832481718 14.153546676187949
