30
Energy = -231.96617319 eV
Cr 8.891196301061248 11.69210445372498 6.4302831135389
Cr 10.512254336957248 9.404136569054808 6.842979711164418
Cr 9.241844291974845 7.851816527618093 7.658369993893708
Cr 8.332248177352286 10.467407587574057 7.982336597463619
Cr 10.127244369624988 13.677196535016776 7.769283830143244
Cr 12.839157546308895 9.666672871562888 8.241470613864319
Cr 12.125264908451264 7.695071324946752 8.220474226184056
Cr 8.379104926054282 13.032310716292216 8.609325144209729
Cr 10.700907235789542 11.430673150357938 8.179662750987173
Cr 12.662364414026948 13.024515503971786 9.31813063622492
Cr 10.60307530768405 9.122259951174955 9.450590512810123
Cr 11.785700507565185 10.880932214290906 10.238584212652437
Cr 7.929417215169919 8.99351451236677 10.032056349233299
Cr 9.137161222627327 7.038302607529597 10.07709509784169
Cr 9.183349170409482 11.198519629462716 10.432890494260603
Cr 10.190887598842298 13.099143470199223 10.29975426239982
Cr 14.255661929026132 10.939482064115039 10.390250837649939
Cr 7.680082202114782 12.832373087642031 11.14065612185208
Cr 12.766008417490168 8.565515332132522 10.762665039480007
Cr 12.557127801889244 13.162352773702837 11.346688885328522
Cr 10.204655539885637 9.05814661292019 11.918426043380473
Cr 7.640165934656538 8.060700833548808 12.353860871971373
Cr 13.48052984435744 10.750288952419872 12.393521777100013
Cr 11.453170882978146 7.0490385152053605 10.753064247236535
Cr 8.244049858190332 10.480027139565243 12.482589123774074
Cr 9.468690147008294 6.784210192891093 12.461724037750168
Cr 11.026738238909354 11.385077131107355 12.3510737196123
Cr 9.139190738292788 12.819760078315316 12.585328322546404
Cr 9.014964140160812 8.699225768263403 14.391983461508916
Cr 9.861388375178539 10.572825473064636 14.31848154397439
