32
Energy = -249.29867271 eV
Cr 11.36137362480986 7.8627420626008515 11.724126996069328
Cr 9.119718399805649 10.75581905373169 13.985938529992069
Cr 9.415803314510393 7.767689697705186 13.211084498953882
Cr 8.78440117297368 12.551171010334041 12.289624328681084
Cr 8.815882662238039 14.097979856181563 10.069595156875376
Cr 11.260719176479878 11.67323025120403 12.430761419272864
Cr 14.417176127458438 10.80128695536969 10.071952474214072
Cr 15.362213540274391 12.930108587354818 10.645779447649131
Cr 11.465176486661392 6.789513192092545 14.300457389091523
Cr 13.502212858662237 14.538942005838548 10.75388050380317
Cr 9.922051113923663 8.875658846530953 15.341403975141937
Cr 10.07149274868713 13.382691668688382 14.002056645956433
Cr 9.718702003807229 11.913555784145203 10.169228346111943
Cr 12.3556633503651 13.909493796342549 13.488925910685856
Cr 14.533122648441468 12.947586274368751 8.321525834888048
Cr 13.469529878238847 12.236188164931447 12.040431682192768
Cr 12.881269678182262 14.835454188626189 8.421273440564388
Cr 11.465660166763595 9.417294342852545 13.612655744132764
Cr 13.417700050990563 7.43400723412475 13.164003994202934
Cr 11.09578759655643 13.947606837530222 11.287897332514484
Cr 15.741477179122477 11.343382347548557 12.848834145802158
Cr 13.518534833175783 9.761638408338797 12.436954247770492
Cr 11.770795429274102 10.10063880825522 10.796672093894887
Cr 13.406362301479636 11.513596255354987 14.099153671877938
Cr 11.147132417730758 11.404624628061425 15.134310863426002
Cr 15.300082193353663 9.373682305265104 13.969867610549603
Cr 9.791769998047636 15.324786187369565 12.653824096027302
Cr 13.163004368664788 9.071458186382726 15.126938865537975
Cr 9.446062236083367 9.905656016285882 11.750024877127792
Cr 10.983364123521282 13.320551538865244 8.626681290491227
Cr 12.6801517567689 12.385221284471397 9.736537697909617
Cr 11.214692610361721 15.981291050787112 10.009392106104029
