34
Energy = -265.1408187 eV
Cr 15.518062076178477 7.702239934438822 12.266672223776967
Cr 9.200215732611293 15.29806769508665 12.12629546529944
Cr 9.207537332134986 10.47699411456085 13.555586339936385
Cr 13.65684656914357 13.583370570653175 14.623434458412891
Cr 11.65113400983408 14.107171204492293 12.793544274282873
Cr 13.326298866072316 7.995339385987722 11.320900277072814
Cr 11.269968076402836 11.392033200853891 14.134782557128988
Cr 16.02317764302673 13.900337565969087 13.89625404335727
Cr 9.355228875456184 12.971719722878134 12.740518520997789
Cr 13.67268027383232 15.749231649101679 13.648628380721124
Cr 10.929243315176091 16.249379645992978 9.971950662435885
Cr 9.080088547353032 12.688243808359765 15.084394946224494
Cr 13.175607391733532 9.81280817365033 13.20797119932
Cr 14.506372078782132 14.14453946055815 12.094706295388454
Cr 15.161019919399298 8.758688595898597 14.358424507577942
Cr 14.817212937646682 11.536937569517265 9.216961308501498
Cr 10.549619070879402 13.931420674630829 10.533490436706956
Cr 11.202089188819953 9.147964355807783 12.240043656926277
Cr 13.067908159973864 12.133917785163817 12.70287474093368
Cr 13.138522753672031 7.507235949026679 13.733876425395923
Cr 13.16386359632521 10.484670702229897 10.62666394539603
Cr 13.407670826432623 11.075713186436856 15.340980186399104
Cr 11.073283229288402 16.491969376699775 12.622814555943005
Cr 12.172633069488397 14.569244922225046 8.440764228168765
Cr 12.838253590283566 13.046469832232015 10.298461747156981
Cr 12.940303042683395 15.450608390083135 10.933067515942874
Cr 10.937404666852688 11.470589138886064 11.46174042177529
Cr 15.104788842734402 11.562911726003293 13.806788527588278
Cr 11.80566657527904 15.731306076572375 14.987956350755704
Cr 15.505450239862604 12.12162865625044 11.452872523745366
Cr 11.431071984972426 13.322770722824442 15.462668686553712
Cr 15.19550607259241 9.945827032974249 11.778270103545147
Cr 14.860762164882402 13.949214130008501 9.50727802108304
Cr 9.598568873203057 15.073825601007018 14.458843244090085
