31
Energy = -230.27550752 eV
Cr 7.455449902344513 8.127804289739506 10.046431029062271
Cr 8.545285165375528 7.840361550205032 7.5904852382515955
Cr 11.381826919298561 10.611100962597467 11.926124683654333
Cr 12.021391769672615 10.75743885890117 7.90771299146564
Cr 13.667024595974492 13.824322245711816 13.39857884457456
Cr 11.945071757305675 10.328808243829556 14.5242334620316
Cr 10.629330886033053 13.083146336276696 7.944413093393499
Cr 11.377598296146642 12.289971386379621 13.710446281223687
Cr 12.316850977347151 8.66590275561761 12.428925037647943
Cr 9.627986849536967 10.170446011488409 13.248995057969047
Cr 12.470723735082112 12.966678652082027 11.3059008386994
Cr 8.518238615492725 12.247464700443164 9.52309333565356
Cr 10.36590892420846 7.81619073752109 13.824901993614473
Cr 9.640176274276593 10.092714065438116 8.24823509531439
Cr 9.712300560448112 12.579589731054195 11.81420225876394
Cr 11.0925400660024 11.502060337835406 9.884364888272545
Cr 10.583190565666387 13.985501986629274 9.51508526341408
Cr 9.796871461345997 7.384933340310694 8.781867062747516
Cr 11.101760016565766 14.621583878271908 12.142803005008467
Cr 13.539860572942418 12.835813277028254 14.87523430993678
Cr 13.191117690884123 12.856747328497718 8.83173659452321
Cr 14.220992494263049 9.97701145192927 8.874058695689751
Cr 6.464412485907946 10.693887994260223 9.931483186960946
Cr 11.455362296995721 8.915257974554523 9.848663272783932
Cr 13.524750881336109 10.736772420048878 10.354641040899454
Cr 13.724261009372773 11.057473338564895 12.904907524030413
Cr 8.980368345307374 9.993319046971987 10.888582470375013
Cr 9.821615892697494 8.005770801138837 11.543608079567843
Cr 12.120566463906112 8.421269159190915 7.7739095254728765
Cr 7.729566565946368 11.748221209698468 11.934376888536011
Cr 7.230615250187008 10.143141335647309 8.387008595798962
