37
Energy = -283.56899415 eV
Cr 9.218207049329884 10.415128845177287 5.592503446425269
Cr 8.917633747233413 7.264813531336296 5.584532774973954
Cr 11.052419418567476 6.188443797919435 5.367210885253569
Cr 7.067047471611194 9.09762123982129 6.712281877769215
Cr 6.876703858090505 11.524286276020725 5.937723535588752
Cr 11.561535044137308 8.425610148116828 6.27492508757316
Cr 9.110936316323603 4.927161209028174 6.888929037529927
Cr 11.048743042593259 10.975008472152277 7.729985751982816
Cr 6.016935797522846 10.927028778492746 8.521998107671465
Cr 9.449243764175165 8.884608610804777 7.360169604593939
Cr 7.6304294246713456 6.960742094029229 7.909194556004169
Cr 10.264479486153565 6.7064329236504285 7.724282620642903
Cr 7.510038701696388 13.234298075103906 8.784583092999203
Cr 9.393209351074582 13.07839794306833 6.8247017196264155
Cr 12.551777407849345 6.47245800197159 7.7048702641400855
Cr 8.348062973675043 11.221906027558022 7.813202528466255
Cr 11.356585144013113 4.459256681180812 7.291971353054773
Cr 7.561981347069533 9.11621776070433 9.202329638989106
Cr 9.5268835958923 10.083754488253582 9.56381645223042
Cr 5.661954070352093 7.804504447127319 8.755437348712698
Cr 11.701137507135448 8.776567287981315 8.91903006013639
Cr 11.645710993198623 6.326188875566563 9.884142711923394
Cr 6.991670582125681 7.0986130113019845 10.688822164562957
Cr 8.401019426093418 13.339352756483713 11.36445841804059
Cr 11.570166751270767 11.075994458142757 10.501258967820618
Cr 9.479046732250769 7.519688148671691 9.789756598502448
Cr 9.710112316368072 12.766984424684312 9.443571719652738
Cr 7.542553843485456 11.416831247185556 10.481688495155433
Cr 8.526331195630258 9.135313142903975 11.721283750813207
Cr 8.59464344355847 5.356097972672192 9.373066874131634
Cr 11.093055215305103 8.731754180234356 11.201172127089094
Cr 10.155358105720568 11.336437767186219 11.691499098978579
Cr 6.012316624517589 9.538109429370328 11.038288161959805
Cr 9.735070699140893 9.184771487400626 13.62709503023436
Cr 7.034161863850074 8.025738669076755 13.067787855559654
Cr 9.188736694666146 6.728091509944114 11.912682173463711
Cr 7.628420632855944 11.01010591887897 12.884065746949537
