34
Energy = -266.17081703 eV
Cr 15.878020479959458 13.62742128306122 12.131841247229325
Cr 12.245307286406259 10.60849318487352 7.583457504364198
Cr 13.06502400511684 13.17905934749157 11.572730593496374
Cr 8.88956256972927 13.576518561416439 14.051131544511485
Cr 12.122304785033144 8.355550339442582 11.291269777539249
Cr 11.846930881400215 9.766532349171984 14.27680803839778
Cr 12.8198802831551 15.681012572610632 12.732366218800166
Cr 9.077550361955915 11.569052853751447 11.132869636762926
Cr 11.51698867990334 10.793525922667051 10.162161008515199
Cr 8.553049502393861 11.088715986757753 13.540648449346778
Cr 14.133810362123015 14.151710602717214 13.802290130436749
Cr 15.013384634776633 9.273367311158509 11.17533615416175
Cr 10.968387448328945 11.927708286542481 12.57905026886596
Cr 12.296763730270436 12.976419324755392 8.829702647292498
Cr 9.361295303072882 9.127989896165303 14.83919936607602
Cr 13.810242158830409 10.78719340501209 9.669921313602742
Cr 13.90310013235417 8.609470450303345 8.673304066801709
Cr 12.975703870580274 12.118453661489498 14.15623459025201
Cr 7.645230736402958 9.194794981178152 12.295380409918756
Cr 8.050712337638126 13.574031050034248 11.895242043621185
Cr 10.2535180692743 13.20671236656231 9.847453481765411
Cr 10.403553489122917 14.262776094815186 12.015087333046887
Cr 13.018791213200057 10.364579731611684 11.951012935981113
Cr 11.412214131569897 14.00720387533303 14.243146680993364
Cr 16.390975533061628 11.309159920415535 10.68931620660552
Cr 10.418306151151535 9.615567268997184 12.421729645274397
Cr 14.880242485927505 11.591997986004314 12.686954593467892
Cr 10.035802746375419 11.097445112685236 8.379490923682862
Cr 14.757717911877538 15.451268531550133 11.425859154383703
Cr 12.176146554028897 14.984453265738875 10.338099617079942
Cr 9.2908103321163 9.298475466872855 10.273977527839323
Cr 10.486612443111163 11.608915866053643 15.059356055665626
Cr 11.416016207692607 8.651392969957037 9.081044885309963
Cr 14.709878832974479 13.160353845856436 9.835573492992763
