36
Energy = -281.44730535 eV
Cr 7.153044466256833 10.783539449530277 8.915145564105892
Cr 11.267598849912853 6.66712720386917 7.578496262732867
Cr 11.47214843269306 10.204512213976765 9.623261941155056
Cr 6.343642949604611 9.766436862521514 10.38768637720101
Cr 10.953399216993736 13.962878482101097 12.85643281156145
Cr 9.009845013375598 9.99551173880597 10.45363874352115
Cr 12.765302367751856 9.764863802713144 11.777428716187018
Cr 10.536168465441664 11.47148946010016 11.744823886694991
Cr 14.292376242464023 9.776107738786541 9.93124569828972
Cr 7.892670966973283 8.346829924857985 11.654390408404643
Cr 11.077958863834388 13.504373398419444 10.504356371532888
Cr 13.409212814357515 14.082379619628897 11.340089576881196
Cr 11.71595655681361 10.211139778150098 13.93376849479636
Cr 10.281911883931373 8.012634318918106 9.354545233484505
Cr 12.733317812080328 13.664828720850988 8.643354698223657
Cr 7.966553881926737 8.298625280002598 8.819053975759305
Cr 13.219528963640178 11.022516947911226 7.7098529284766775
Cr 9.358660678682364 7.567019439028362 6.812467230816154
Cr 7.822208159067052 11.230157079872846 11.871524806526248
Cr 9.248192256097314 10.207915952439283 7.932988263632604
Cr 11.155200002494976 12.006645507053886 8.16492667894106
Cr 12.677613462098346 12.701406572514607 14.88600120115422
Cr 6.590361560028829 9.408908125971177 13.037534735285139
Cr 11.050507145612482 9.43392867829208 6.979155944672631
Cr 10.635752992035929 8.711880118566956 11.819276406126324
Cr 14.228580904048318 10.63647457846886 13.941805731590529
Cr 14.800948062664936 11.501762752916344 12.053511101952767
Cr 9.445215623811029 9.751102442757775 13.31040551594432
Cr 12.451747493415574 7.662179157366573 10.29136509635628
Cr 8.861580970355632 13.227790621242093 11.82272347324511
Cr 9.130254989956754 12.125176712577572 9.81385173123227
Cr 10.314942308413656 12.160785411689416 14.0958061795648
Cr 6.8106215868717115 12.692764779289769 10.479737404753472
Cr 12.910169213849683 8.60224788282249 8.215072993745224
Cr 12.604268450279951 12.346905729405302 12.61086521260244
Cr 13.08577920482581 11.851813502136553 10.114693568941385
