35
Energy = -274.57054844 eV
Cr 6.622086152647683 8.274031962279217 10.867067737762342
Cr 13.037541447639272 14.853861045717458 15.269452531151607
Cr 7.550515148728732 11.887621447612759 12.059658207361542
Cr 12.236698277143878 10.687377027529452 10.190678872211292
Cr 15.319821846452996 11.430628528049 14.45066010474458
Cr 13.007177018804809 12.201232247723151 14.61781382693201
Cr 11.362651552641633 8.526162200740732 9.97355312935202
Cr 9.132750071245491 8.188053224169193 11.312411547156165
Cr 15.37473499404252 12.121535955481272 12.08733275621045
Cr 9.156388807718598 13.8261599329282 12.931337726647431
Cr 10.69222838588434 14.367070804491933 11.230246514384113
Cr 13.913756919127858 8.850717206625754 11.162317390556662
Cr 15.735728675699528 9.68714978358718 12.25966736676831
Cr 7.431790192180668 10.395444336375537 10.015403725903129
Cr 11.423697256443875 9.382954790855662 12.41529252741354
Cr 11.203710431384065 12.44629653306233 9.395839498891965
Cr 11.182740712635894 12.196852772107384 12.190740085117705
Cr 9.259420736373908 11.009745181857369 13.531571399642662
Cr 9.050938614753392 12.758141652691714 10.31728630566186
Cr 13.978203857758723 16.211722404569446 13.270292878844401
Cr 9.992680716338976 10.420657252348168 8.564273628116169
Cr 12.857149753180265 16.01658470962563 11.361660329300406
Cr 8.724096041652592 8.546479475436652 9.081292971540835
Cr 11.32223812041353 15.453303275705835 13.3795074515734
Cr 13.853895343251573 9.464746020794362 14.055109854901396
Cr 9.682260354918004 10.501943463887875 11.043502877123947
Cr 15.25531015821203 14.571305160612313 11.78782272918195
Cr 14.568621415116494 11.118962272986282 9.994428667833981
Cr 13.22311147478062 13.343524221767082 10.653108860934724
Cr 11.451658100549723 10.412789010550917 14.456170763728547
Cr 13.262413094669478 11.007188922314732 12.386935361665788
Cr 12.968186497314013 13.756555698843325 12.879422929417068
Cr 10.697131893981641 13.107724389592715 14.445666809842608
Cr 15.133676400515991 13.946568951370072 14.196203344101539
Cr 7.082744000874435 9.569342810021672 12.660874425041742
