34
Energy = -265.96921788 eV
Cr 13.6202195570795 8.889335418404732 10.375900257264988
Cr 12.110641938486706 11.117930081774587 16.091747967822943
Cr 13.567685869123874 11.361572401898929 10.948021576228998
Cr 13.353304955311563 15.227002711641275 9.778649373075936
Cr 14.700144213975745 10.483428740025536 12.796673591067071
Cr 9.741855063288961 14.007395170284816 9.574015603285996
Cr 9.683416840836022 11.279779463875943 12.641566470787874
Cr 10.148156572427087 8.392754702991217 12.614979293398731
Cr 12.508597909050664 15.180356594560182 7.409847720027433
Cr 12.308718272804496 13.041105714565425 8.965540651416616
Cr 11.940584925905963 10.683258543320825 9.567085343956398
Cr 10.006179006572719 11.459050280322849 8.574531703072916
Cr 11.937224581267364 7.058540745332418 11.826643958131807
Cr 8.773452019031351 13.442528871922946 12.153771898632149
Cr 13.569268173055098 9.926706625678168 14.701443871685163
Cr 12.978357403741237 13.41811315662205 11.419614414185402
Cr 12.16076914787251 13.49473190234568 15.507176015442413
Cr 10.5565061805749 13.552804846600928 7.444437263457259
Cr 10.828188480019481 15.982496954969285 8.776110561284945
Cr 12.413007074882255 11.91933650251461 13.34978271088966
Cr 14.258099136973001 12.320740365298771 14.914401925426867
Cr 10.12336581589895 12.458325727915126 14.664264644591395
Cr 13.867428967082962 8.129735758169945 12.643610609904128
Cr 11.423652715562703 15.416161045703095 11.142142776667917
Cr 8.459444469550283 12.082145189112394 10.23286954235777
Cr 12.021485625348813 9.897571151447545 12.287315691185775
Cr 14.895288115487489 12.992702004693326 12.806200871476511
Cr 11.995168136495378 8.042222564970098 14.396712138239067
Cr 10.793352303807865 10.090312559105364 14.63289869361462
Cr 10.823550353343661 13.942065862515632 12.976414168669507
Cr 11.059781824236865 12.231330632173758 10.97058928633651
Cr 13.040723525960718 14.603838358823861 13.554321417966259
Cr 9.741232794761789 9.945867666057495 10.74605332208562
Cr 11.355195617541229 8.263241983301974 10.012923093820575
