35
Energy = -271.98343404 eV
Cr 10.539446319342682 15.059110326380567 10.335951619470272
Cr 13.517635789021 8.846082051467429 8.988652260261198
Cr 9.309556162322671 7.106204804134625 9.42342410789573
Cr 9.653520084229806 12.820566129098339 11.129098937893604
Cr 10.963393525494043 9.154022996792513 10.100456372370063
Cr 11.384256606394374 7.31827740417368 8.623573503215715
Cr 6.789305051064839 13.740225622872712 7.851504230999834
Cr 11.16220523136625 6.948709687399686 11.249564284016438
Cr 9.446998984754918 9.288610547977726 8.1792077437006
Cr 14.412516384357708 11.468778369541011 8.902596577181747
Cr 7.824663878040822 11.096271537815285 11.929952228871581
Cr 14.285796487033949 11.659065321874394 11.943542031093209
Cr 7.976019676350733 15.57746166137535 8.885278920366968
Cr 15.108160889774696 9.6112920115938 10.709886229154305
Cr 10.830808575674233 8.757929324820498 12.99907726794987
Cr 8.293457721722127 11.840605888893666 7.684935088640659
Cr 10.486325099005118 11.5141965705985 9.135717196133738
Cr 8.014158473460604 13.399295594128594 12.934132574054157
Cr 8.849621597413746 8.72361659410976 11.102843193886317
Cr 7.317787941276806 13.05818247558842 10.071223782213668
Cr 9.297590452679376 6.972089924359903 13.03218942471464
Cr 8.782569424184773 9.955855356424586 13.218243332880494
Cr 12.215853011245116 10.320237504546022 7.8807361293326466
Cr 8.195948244929797 15.044514382219988 11.26741444699486
Cr 13.29818565975238 6.987915759355433 10.501982517902094
Cr 12.729387540192196 11.007784838625573 10.398071529846938
Cr 12.834075718924382 7.51586639137102 13.353503363475312
Cr 10.45041892598264 10.767825827004236 11.665874418559783
Cr 8.39977200147196 10.702174348885693 9.785264900180792
Cr 13.027523726098131 9.039678401513198 11.678380553023105
Cr 9.387454317591757 13.730162028555347 8.759475302901448
Cr 11.809792549855104 12.914607069059018 11.672616753949741
Cr 10.880186793595374 6.221086361801109 13.86253077971564
Cr 12.007506772679344 13.070876823555695 9.374641710808124
Cr 12.413347572893125 10.65606725226274 13.263703876520797
