30
Energy = -228.08477516 eV
Cr 9.105275859142985 10.305949664083629 5.936091956337122
Cr 11.631413381741154 9.01752071498927 6.423872895872996
Cr 9.076667306816915 12.451518240014455 5.641926557285246
Cr 6.97875434304083 9.107724335656 6.1789093945974845
Cr 11.367073958270135 11.320793550955207 6.146553051285654
Cr 6.059961133827928 7.418087135996563 8.457406330931839
Cr 7.840452148033352 8.957211913490148 7.9386375675111
Cr 7.983386333524463 11.327539403480065 7.709150988409315
Cr 9.414134392950878 7.781364111916738 6.65449495843984
Cr 10.331809912083672 9.871023559166936 8.022812086605413
Cr 8.251483170835622 6.150780236197796 8.2594279672074
Cr 12.726493783366793 8.710240494872359 8.404508557922648
Cr 10.040176607331208 12.187587896939197 7.748365664008416
Cr 12.473510809618167 11.002242857864283 8.280762090559987
Cr 11.067804154076844 6.989802429323143 8.288808879029268
Cr 9.421487632169358 7.764428174633968 9.512194786736183
Cr 7.458078612054048 6.075736543111775 10.424925763867588
Cr 10.856912150349999 11.561397322509865 10.071245893857894
Cr 9.8515971695644 5.301532533768804 9.680870386992236
Cr 4.978541899055982 7.628593781326423 10.406746039171558
Cr 7.4630119826095696 8.477897642303219 10.765253074539947
Cr 11.28154707653987 9.231809191648622 10.085426936448785
Cr 6.202291835720668 10.033288522936369 9.397173269438845
Cr 11.692384178965577 6.9933400280054006 10.55303362257021
Cr 8.821610598081026 10.642492232362152 9.884456937223163
Cr 9.403465887504657 6.581216565223282 11.517850583823867
Cr 6.652103248857489 7.798583485413534 12.61270854641225
Cr 5.371835425426434 9.878106910418587 11.730435230665408
Cr 7.193578199139254 10.717249926679049 11.958488983015332
Cr 9.510449569118723 9.222233354531637 11.814753759050532
