33
Energy = -254.68373768 eV
Cr 10.755017864465193 9.610279407327786 8.056452141701808
Cr 11.357753208911975 11.0284533862481 13.744730658849358
Cr 8.38504119553718 11.616333857676237 10.535284365445055
Cr 10.477886001541833 7.960696526279506 12.644431517379786
Cr 14.582893028490105 10.28495617594209 11.481806156610794
Cr 14.384325475828273 11.8068521731801 9.377688101866246
Cr 9.108823564801355 10.459048803614117 12.270794216316352
Cr 11.595063734248086 8.166904496144783 10.085232040081358
Cr 14.38528165216332 13.522331935330678 11.78449083552034
Cr 14.079872658675228 8.306929748417694 10.756324715127764
Cr 11.909204771822466 12.715096461937092 9.279415910183333
Cr 10.404490195753247 12.358797946495175 11.950051825525074
Cr 9.64540559174606 14.226711711638037 12.794305224104509
Cr 12.854930881724128 10.255059347005242 9.489631615827301
Cr 7.592419288892621 14.143459025595368 11.320081883045749
Cr 13.646109644427543 13.813186889022848 9.614132655824983
Cr 13.151745715251622 8.73991283672712 13.390345665238813
Cr 10.401748155687503 10.810525806901905 9.986416683569455
Cr 7.618148673652424 12.663864837072172 12.501263617555546
Cr 9.76942041878408 15.820903447088526 11.189703603126594
Cr 9.586792041534135 13.483991963615592 10.207450303881883
Cr 10.07798222780075 6.3894700200876215 10.7463695273897
Cr 12.680106529177108 12.059036673583767 11.354149006921388
Cr 9.218447868844423 12.118312561799057 14.465205873957105
Cr 11.441469065526721 15.272595699845814 9.188928357995103
Cr 13.532436979924512 8.424328575016496 8.325340870587494
Cr 12.24505334173588 13.64896298158678 13.425307706812847
Cr 11.760094828441154 9.766529640599666 11.857652526970666
Cr 13.57075267997136 11.238612947882675 13.535885539953252
Cr 11.901611312427477 14.439099809504864 11.26852652421196
Cr 10.737415910313132 13.184004690107095 15.271571147473162
Cr 9.313110759935872 9.079344607863884 10.582917168714946
Cr 12.282279853931307 7.03854013082954 11.971247134198201
