32
Energy = -242.38081622 eV
Cr 15.804754966685897 9.684756619996616 10.505346291272211
Cr 15.797794873362196 11.5533640296402 10.63287750580229
Cr 14.197269219778805 10.477039025873438 12.613912728202063
Cr 14.559472818107318 12.765958978384349 8.705547413375335
Cr 13.557609766895782 8.790966273053233 11.919918764400274
Cr 13.395621359784409 12.76421029219806 11.155849700721864
Cr 13.390362189796075 10.68599329242426 10.01003108201821
Cr 11.442254610078951 7.154231427006766 11.772064330405389
Cr 12.737024367798476 12.514350427486143 8.279686441950215
Cr 12.009719934560785 12.054767873898907 13.171529910192593
Cr 11.713846527471174 10.374581973404643 11.712891027366856
Cr 11.659880687997981 8.554085362898633 9.82708247062034
Cr 10.427897827971796 13.678598383810977 12.34435110155125
Cr 11.300807685138643 12.532322429481047 10.486029156608554
Cr 10.046531401058802 13.429149133487211 14.54985289639074
Cr 10.840482675182027 8.885129298754919 13.270149530744911
Cr 12.142172646002043 14.986241194574992 7.743807803790775
Cr 9.638260491791847 11.192856318351692 13.41516369096634
Cr 10.84815130665432 10.67765786198204 9.123964701578478
Cr 9.237221760482653 11.18534071579156 11.045506565893232
Cr 10.244399319960536 12.758264941804335 7.919436183797861
Cr 9.669370487614527 8.934711012638664 11.181321697978788
Cr 8.969023211650166 13.28879154760848 10.038576697618302
Cr 8.857254417060428 7.1779462417866196 12.980392293859875
Cr 11.526519967381624 14.691551670871148 9.476289401070387
Cr 7.950669343617199 9.36215296856169 12.987537438699036
Cr 7.9948215736232555 12.945791019169869 12.610255227278971
Cr 8.211342003010234 11.256513673275213 8.472652539829237
Cr 8.44782249990786 9.457552312523731 9.125647651989786
Cr 8.690476954848391 6.93779207203676 10.455751700218132
Cr 7.213458011164617 7.999744986258026 10.890462435458431
Cr 7.062152988959838 10.832034536365244 11.160561513747425
