38
Energy = -301.59644583 eV
Cr 8.63483083399956 8.321665845415302 4.408163839945675
Cr 7.3303859006844 10.801356413332273 4.420014751152113
Cr 6.0504051530264045 8.747078068163571 4.656663360784787
Cr 10.089972168823257 10.237376883901153 5.974301404884266
Cr 9.345625045250655 5.79319490656804 5.686293770927119
Cr 7.030305207618253 7.191425487782854 6.322856657318216
Cr 7.799672732827645 9.757241470295943 6.44595336410208
Cr 5.543058088873327 10.705201313115477 6.635945065275379
Cr 9.654308622132653 7.948411935337192 6.598212530483272
Cr 8.154040368775206 11.95709747565395 7.329707850677151
Cr 7.033606604523183 4.535767979055382 7.0373384453375145
Cr 5.521639096905511 8.58191653767538 7.538883409573755
Cr 11.766117995571756 9.28093335717695 7.820120617157419
Cr 11.276339046069893 6.559042685711164 7.584337688119291
Cr 10.81920891110955 11.603499748091103 8.321879528129855
Cr 8.738189568958147 5.996346674724994 8.09467346277363
Cr 9.905508825080908 3.7213616057862953 7.8168612624491285
Cr 9.342642876998573 9.94983817031094 8.347764389954035
Cr 7.833337516739454 8.16116428749082 8.540954299846154
Cr 10.988827854786845 10.011911449423467 10.410106574508898
Cr 4.555374662321854 10.195400524039389 9.17776175598553
Cr 6.236272031295371 6.1902504440240955 8.63311201491296
Cr 7.6784622588869516 4.490796215919792 9.732395680894983
Cr 6.863836412910826 10.616141300272671 8.77434424739446
Cr 11.199840913425335 12.332870433729154 10.946791995588173
Cr 12.316597199695291 7.948767004278049 9.851177789360758
Cr 8.104908669925768 6.676254791900544 10.64275626716409
Cr 8.97437001779619 11.891506340614672 9.963882570662449
Cr 13.109084936371232 10.563790515581045 9.41812697352067
Cr 8.449103182779751 9.354733157387221 10.591052238319183
Cr 10.161776589607891 7.762294055987963 9.301308206891411
Cr 5.9822146701194825 8.454402494651877 10.263167539661755
Cr 10.247375326469658 5.526060145044733 10.12193545835617
Cr 9.31362041511219 10.728693417932806 12.188437157569796
Cr 5.802123931533913 6.144931844885675 11.091041392699344
Cr 6.628159004300345 10.83505899297402 11.060875498086135
Cr 7.242495234268361 8.25423256603072 12.324888094629928
Cr 10.061561439980478 7.957182775289209 11.711112160457285
