32
Energy = -246.44834453 eV
Cr 8.437373078515398 14.375658240532932 15.292246732265632
Cr 12.626744786924133 13.743129081710947 10.999789358641992
Cr 13.752221068135649 11.803503797413487 9.7841973669549
Cr 10.747496036910677 15.010802123992343 11.764340774713743
Cr 14.957640864968377 12.527244617840699 11.761793191027166
Cr 13.765866711927314 8.323831384435826 11.172617423109907
Cr 10.542052360509942 14.107861593673185 14.134438503650445
Cr 12.949902067657339 10.76125443784939 12.094933407225108
Cr 10.790772025811526 12.419105898742325 12.279342523811868
Cr 9.838211935682683 13.751419194110037 10.187427196839593
Cr 14.242239322371145 9.822690268725493 8.945197727844254
Cr 9.107431053762097 11.850571674599674 10.751792185383083
Cr 10.965629055430357 10.272193644181478 13.726398436723013
Cr 12.0409293002113 11.857607990808567 14.49018572456567
Cr 11.4905776555229 11.720745855520397 9.977807295618694
Cr 12.293402584116011 10.987225783214205 7.720361570205927
Cr 11.776915540602197 13.766277905889769 8.694454369126968
Cr 14.593306995927984 8.93007470395121 13.457798732582004
Cr 8.510866050226893 11.234652391840141 13.039788463288591
Cr 13.161366748482443 9.46537955465075 14.561619681303856
Cr 8.667636175066146 13.972548673625449 12.69224077756197
Cr 15.154731398684895 10.176932398826201 11.255467065030503
Cr 14.532182096183726 11.546773705864204 13.592357353978603
Cr 10.341375606991596 9.85982486022733 11.47056944091002
Cr 9.842815651350556 10.25219433756642 8.721144583024646
Cr 12.198769716003792 8.376033346309558 12.39915918778802
Cr 7.074980110255158 13.389721075365028 14.18983818118032
Cr 8.476134440426282 15.717283098771714 13.699092464250219
Cr 12.188586747302798 9.461732486057892 9.866203920986406
Cr 12.938425904338969 13.582248946431815 13.00883019943595
Cr 9.661489730234695 12.00705531383812 8.167873540666521
Cr 9.397233123610762 12.121820795137372 14.701249061019979
