30
Energy = -229.98233161 eV
Cr 11.093147189592283 12.625819927118537 7.052117972484017
Cr 9.74818622110303 10.478138210776889 7.37024758516237
Cr 8.871238936630245 8.003806980116021 8.554550027431619
Cr 11.507940155665157 8.650235673820156 8.78821991317823
Cr 11.914822321690549 11.322992128157493 8.785278592118193
Cr 8.270697211389574 12.546634046742128 7.29941404021856
Cr 13.67552540967439 9.935597863251006 8.969360899344476
Cr 9.106059069734801 14.165204280139514 7.8312108218837695
Cr 13.358474981554505 13.100926482215607 8.695346664998965
Cr 11.082659841170402 7.759798624886434 10.439825291605421
Cr 11.51411592382324 13.949752068577537 9.065556945918425
Cr 7.611902155058695 10.545103303813008 8.891838417179395
Cr 8.221191883793782 7.978148041077012 10.351237144754563
Cr 9.823425324791593 12.268173133598351 9.448638448896256
Cr 9.782529509385963 10.003863629099275 9.828963858492445
Cr 11.701707401202954 10.366750392388495 11.084233411825128
Cr 7.550745167375576 10.358819103111617 11.220034465876125
Cr 14.008973747627614 11.508922388994666 10.527419138871986
Cr 7.681452791053378 12.707358326053788 9.938604520901533
Cr 9.280379926905805 11.694489326422845 11.8287115707358
Cr 12.002253426647737 12.560447752164974 11.039184866624625
Cr 9.644231767387302 9.105090687623226 12.033376572583768
Cr 13.485562728875667 8.572633003664441 10.93073988990882
Cr 11.944372874155013 8.446068254685157 12.912325887491162
Cr 7.534451303625074 8.666973056980545 13.145280199999469
Cr 11.067953000739681 10.224678386688222 13.301838689967784
Cr 8.273369159803668 10.253917781804152 13.825741328600296
Cr 13.662578640325673 10.419160692138204 12.659418948359315
Cr 9.76373190105924 6.8512240995979 12.874707832206376
Cr 9.878524200509265 7.9914765266440675 14.368780224733442
