32
Energy = -246.06962669 eV
Cr 11.503217660520072 7.139658248461899 9.14796783102222
Cr 9.3553777382448 7.326575386297513 9.246998659742527
Cr 13.66973920564682 7.751539035154532 10.609688993292135
Cr 8.705218128840796 8.454889875957043 6.976613107237296
Cr 11.464399874427144 8.239512975870836 11.23895028276505
Cr 12.834609591964162 8.510681289088643 13.056718740451208
Cr 10.806975155371514 8.009135420458882 6.977392939101435
Cr 7.461220411872812 8.89999159634795 9.502986655012776
Cr 8.886626013113942 8.910304626591788 11.405656937860654
Cr 10.412187549034721 9.768570176587755 13.088728067045103
Cr 12.571265716018459 9.190781324236537 9.073618033362338
Cr 6.837437309303518 9.74747252419832 12.057991095266004
Cr 10.079164367826417 9.537838531675153 8.997352021932791
Cr 13.62109125817937 9.976240179315655 11.479285737805458
Cr 7.922609780417108 10.516572883675972 7.990529841258991
Cr 8.51451364885348 10.478864165386158 13.549276555882946
Cr 11.49059567311017 10.69949535659356 10.939554292580175
Cr 14.87476940757558 11.915597661780733 11.552667685643451
Cr 10.052254093681904 10.837314460936417 6.59015616076273
Cr 12.097116483867618 10.354564161867463 7.049854228471756
Cr 8.835382777911269 11.03327483303341 11.008464438732812
Cr 6.629263046562828 11.5456764880226 9.905657431129926
Cr 11.276817469173803 11.760929183064471 8.997207992114912
Cr 6.528182262353878 12.052325351662773 12.49472656183934
Cr 13.555827568045755 11.330166446406928 9.301632839009955
Cr 12.787801947706962 11.38961910842147 13.154328281842448
Cr 10.558442448771494 12.067417961740418 12.627537232916671
Cr 8.953586232114654 12.150319782374911 8.453694404294545
Cr 8.359604884170672 13.007694814334023 12.871911606633113
Cr 12.957217253524124 12.583739096292168 11.19706209068512
Cr 10.313658181553373 13.192420000630532 10.67469926217183
Cr 7.7111381295097425 13.31328751373151 10.323059696140065
