35
Energy = -274.51985269 eV
Cr 10.73520548175629 8.075694670376103 5.769971535397398
Cr 11.94205554960305 9.799243306711622 5.936842510923218
Cr 13.006708647923974 8.118946900078361 7.382897918709171
Cr 9.21467647819962 9.84776840896903 6.122876752869457
Cr 12.960559582075451 10.818890318100339 8.078675667958137
Cr 10.737110925201472 11.746796469669599 7.318884937685801
Cr 10.779296567979433 7.021297194576006 7.92075454715266
Cr 8.627370915465026 8.217472814239335 7.6075914955949075
Cr 11.002398727392958 9.243331715165906 8.588556485139819
Cr 11.477360499205892 7.107212031851984 10.32837716302763
Cr 9.022869009838551 10.389513523181874 8.598488166426575
Cr 11.455875975908544 11.495921288831596 10.04064428274444
Cr 14.153532174997727 11.83910952920276 10.243193732855492
Cr 11.932808872721727 13.427504183920714 8.85778777857325
Cr 9.14723377990863 7.947270851707955 9.964878194714199
Cr 13.485041379826221 9.54608109857207 9.787313625637443
Cr 9.312973192428178 12.670446372922628 9.419211148325017
Cr 11.592722731667317 9.32950384358232 11.063930037327538
Cr 10.315834616420227 13.872821264358945 10.75550654935093
Cr 6.926192092480954 9.291449437413052 9.581838116468646
Cr 13.235834875759332 10.914979807356524 12.158792512585638
Cr 12.232522279012697 13.084103442663276 11.693090431945599
Cr 10.248861973186802 11.255846351779578 12.607706336788318
Cr 7.021792870083766 11.314020266766489 9.76302305958807
Cr 9.178563430893922 10.102321369390125 10.876417461767549
Cr 7.636753765964488 8.001000894232039 11.862930334286979
Cr 9.943497059366168 8.16728017610462 12.57682819987479
Cr 8.182048433345097 12.405727118848898 11.817496186074818
Cr 11.5681716764864 9.546167770885386 13.696609550696841
Cr 10.382859437431037 13.42977262524743 13.516614256309198
Cr 6.91064945346677 10.208017439175533 12.16157610910089
Cr 12.215656117039552 12.12994634962828 14.303918080636313
Cr 8.24323620276603 12.177450730772883 14.176762226470403
Cr 8.668437943258938 9.760977391784051 13.683562199850137
Cr 10.283298870929993 11.433944899212618 15.338954011844043
