37
Energy = -288.79595255 eV
Cr 9.664171785617734 12.974163041046284 13.406734534723189
Cr 9.444261966405362 11.644293776580575 8.949996103217922
Cr 9.07209699180984 13.778194486977032 9.65400025931304
Cr 10.400296215955494 12.007825982385864 11.005386049692405
Cr 9.67986924763461 13.571845872043873 7.071955970239535
Cr 7.492336711036381 12.570556684141607 7.322917264167131
Cr 7.9067118934703755 8.434525743966223 9.791261904084863
Cr 11.506103195191583 13.583059451096368 9.1845356914805
Cr 11.403103018984147 7.396266351759669 11.338970728216998
Cr 12.17215061340561 11.256599826817226 9.56409228164784
Cr 12.075084294146814 9.432430746029786 7.553022259587013
Cr 9.612734585359105 10.893230172065042 6.3623188697801805
Cr 11.925615812005093 9.702629706835161 12.329700283911148
Cr 12.904940793248892 9.212234618727571 9.967504709592134
Cr 11.59983700854769 7.479204734672586 8.622861373451334
Cr 7.366749955652333 10.31698874833763 7.999280540560136
Cr 13.570272599875432 6.907728166450329 10.334675978044128
Cr 8.42983743477209 12.730633556161148 11.787915798571884
Cr 11.107860403149015 10.989557566655959 14.63087376448446
Cr 12.965809161014015 9.149323507445025 14.858240003784571
Cr 13.826972497192651 10.769051769014307 13.975863866521923
Cr 10.42445828097016 9.55603979836117 10.316008142778237
Cr 12.681939410140773 7.220218424988958 13.141533593510761
Cr 9.556356841480168 7.066640574282118 9.650163279677232
Cr 11.409360905229878 11.50563298423075 7.401636176591451
Cr 13.811266244293387 11.32619314141556 11.428171436515195
Cr 10.752983067456128 8.33487214059507 13.89152751647074
Cr 6.909445379805027 12.72569610314595 9.60378052372356
Cr 8.090088844917414 10.660653857649821 10.595404394410254
Cr 12.064860691602567 12.157581987858645 12.90303112809647
Cr 9.345305523410028 8.508048918576756 11.910766159920858
Cr 9.767015472826312 9.295550223993278 8.147095625665296
Cr 10.623182012285602 14.261705123002312 11.792042458972922
Cr 13.951136702734743 8.64898762608401 12.395287876529771
Cr 9.504979035767652 10.63571924057957 12.620489420425764
Cr 12.7137317908946 13.50936882400038 10.802030102350615
Cr 5.645371510749135 11.165044421063902 9.06722182832653
