36
Energy = -282.42652549 eV
Cr 7.645263918917016 11.601131916627844 8.488707939702824
Cr 12.682792188485397 10.402959707674233 7.946551804372832
Cr 9.687128827165218 12.48618213257707 13.799441830475232
Cr 8.747416387857745 13.750181440124848 11.979315892182813
Cr 9.556761808943484 11.113099299995943 11.758899201615334
Cr 13.238356723457729 12.5905189210017 10.726968746251996
Cr 10.1285037602934 7.52959945369452 13.599834390160092
Cr 14.123500750805174 10.848917405202666 9.482026450649489
Cr 6.469575766663806 9.897482100989757 10.593573289563704
Cr 8.606599703395679 9.587475587639942 6.826437081853106
Cr 11.7670523488619 7.002416322347733 11.734333463117228
Cr 10.784358346790539 9.028092346382582 8.24134838030338
Cr 11.337319541390174 9.433232294902933 12.384472716025442
Cr 11.83885507016772 11.6924642627963 13.031258179122021
Cr 12.154805979864745 12.773561166245345 8.878019021409921
Cr 8.648915235976638 6.57864893123271 12.130500584020444
Cr 11.495763479972766 6.855427626447239 8.887824756013163
Cr 10.98459031426545 13.177005948814312 11.479550639845225
Cr 10.043272613609743 8.457724663451502 10.673078239961365
Cr 9.706614504942307 9.958071693854109 14.122976447039738
Cr 6.799705463564514 9.219046093146538 8.016475027062745
Cr 8.649832889297556 12.217959467994284 6.017656115170976
Cr 9.4975952017966 12.704654020928304 9.645930601382986
Cr 8.332845173906595 9.217807842278756 12.238852281034871
Cr 11.373309929668563 10.799832804248718 10.179868091442899
Cr 9.924914251335895 5.922992672549119 10.195072260906597
Cr 8.762125934875801 9.99507545690522 9.60697684962151
Cr 7.526008301330653 11.89180731719633 11.15905915647679
Cr 8.842803903687638 7.475139936608117 8.52120270266924
Cr 10.72548461183584 10.376269802820781 5.999878995549019
Cr 10.334084713678918 7.6542133455775945 6.295488347692775
Cr 10.208552169795055 11.37716084201609 7.902950669474949
Cr 13.425314908409874 9.869971733786013 11.526198301858866
Cr 6.698638641845778 11.296435123941624 6.226262366729259
Cr 12.673077650844935 8.589074159642601 10.02871536955803
Cr 7.512565246217577 7.654864552471002 10.117801553367855
