38
Energy = -298.94645527 eV
Cr 11.146232120373595 14.558023134835858 10.19138201862446
Cr 8.237817742404372 15.299508977020988 10.323294535468154
Cr 9.552823379858392 13.806308551497875 12.756424342419773
Cr 11.783360172329893 12.854915769143055 11.944503948942188
Cr 9.173073691684865 14.713139610957175 8.401547145509445
Cr 6.855062571292263 13.170373293704476 11.587972486642407
Cr 12.671770897312989 10.940771294749423 13.421799927969333
Cr 11.315071734743244 12.948158670920783 8.286169984371059
Cr 9.31653291203544 13.197660149416503 10.621937266136635
Cr 6.974665035353483 13.093318506771901 9.179545935059778
Cr 10.397827400570703 11.240298588022693 12.380473748920195
Cr 14.279346437992897 11.86071115698144 12.081670563300419
Cr 13.109941961760754 12.57666584571179 9.982623077109118
Cr 12.457947691004104 10.216631470573525 11.076342453710808
Cr 10.787641667772817 11.285183364928779 9.820738362723059
Cr 13.152028552043722 10.807830521236518 8.725529202892206
Cr 14.243030667594713 8.95064987200752 12.501383381278126
Cr 8.13261459926893 11.601166798505488 12.818828799285379
Cr 14.87938083615402 10.597775103763654 10.326079151395419
Cr 6.715203591392515 9.865382976609533 12.184453966339959
Cr 9.006942639587884 12.330611489600523 8.112795661576774
Cr 8.103749825481053 11.19614136835912 10.317052199069717
Cr 11.441787704809766 8.86363075578609 12.838716725724838
Cr 9.102552658008149 9.175992854417808 13.589145551153958
Cr 9.37715000367957 9.440215616661918 11.094580029344096
Cr 13.823618710030807 8.340144286565021 10.030356284005519
Cr 11.006396601146157 10.306049603053326 7.577571895269174
Cr 11.323200677023996 8.654706987033167 9.866904994152492
Cr 6.982403877845423 9.247238654560332 9.871175432745856
Cr 9.171329905646735 9.653757699306933 8.471558839847614
Cr 12.671584719796462 7.075041401761426 11.219355953463914
Cr 12.6819177367726 8.32581465909762 7.652471582672027
Cr 7.8964708266968024 7.6338755422743585 12.283571799012474
Cr 10.322871539966105 7.329649368131055 11.977091356829117
Cr 8.594128389765181 7.569553965934755 9.975901629825119
Cr 12.593187691738022 6.317495807738543 8.854593948477289
Cr 10.268673790132679 7.558441504886309 7.9206430884319
Cr 10.696286889134939 6.0445330528573935 9.591939494043178
