30
Energy = -228.41795268 eV
Cr 10.302037393487115 11.562100540983678 7.499815450263209
Cr 10.529697074714575 9.398990256896376 8.926973490611342
Cr 9.572657574674324 13.021248791901261 8.262918500382959
Cr 13.687837856813749 12.805661270491834 9.076645560182628
Cr 11.956158810896097 14.527402089038661 8.708882723695128
Cr 13.095992615416378 9.92179213903551 9.176912560013529
Cr 11.745230519749857 7.5245510634416926 9.559199265306274
Cr 11.713643696782801 11.901430713343812 9.485082345636561
Cr 9.499840534702988 11.160801729666716 10.227759680307933
Cr 11.133505410810658 15.742581497788208 11.528773280150848
Cr 9.516861533153685 8.388216740792428 10.862884013351948
Cr 13.914749821786996 8.859996800553455 10.418152715790706
Cr 11.558131670830468 9.690721941517342 11.275468033257214
Cr 7.9095065206145865 13.19655597693765 10.300166614747626
Cr 10.548339239076963 13.825488865464303 10.43669964151772
Cr 10.691240311333049 6.360345822894554 11.09726845768357
Cr 12.9621980093306 13.772573462693876 11.141581656262293
Cr 11.718835492163963 14.138333855180402 13.096618036328618
Cr 12.441992525694333 7.6413280665592245 12.072542620763882
Cr 7.495141823269236 12.181808875568226 11.709075862188339
Cr 9.117969337887354 10.296979665419876 12.319466585029266
Cr 9.21993428441526 13.991710771321536 12.616273292279514
Cr 13.465519679147713 11.379068503025515 11.321969763803354
Cr 11.080020197768533 12.063650719518183 12.066520429000212
Cr 11.168100294774478 10.541901245919442 13.667226097491039
Cr 10.542348503355623 8.13520162437006 13.124696433378086
Cr 13.29064339268845 9.590433750870352 13.07776651137985
Cr 9.30136662944183 12.531722562136078 13.719663599223848
Cr 13.224011237284566 11.94082956462585 13.183753234188403
Cr 12.07600468354096 8.386087767651091 14.518760221391966
