39
Energy = -304.90242017 eV
Cr 12.570303495605181 7.377742921664045 7.270600382489501
Cr 11.218331553103008 7.942290190943362 5.787583575605145
Cr 14.021606371080727 6.62213167752149 9.19937767871911
Cr 12.050874322061963 6.983888545036596 9.996285523529206
Cr 9.119247783058679 9.262375816827667 6.484019220610338
Cr 10.464543828366939 8.185908105088108 8.507374843050348
Cr 13.255447580732966 9.301911099313076 8.993491646244735
Cr 11.7115691238195 9.941932407801232 7.389824917650767
Cr 13.89232979314073 8.436171978875068 11.238560060682296
Cr 10.975779416895614 12.692958265466519 7.634349152016262
Cr 13.168074335446686 10.761434607766331 11.334064744695132
Cr 11.61545001600935 8.566107008855035 12.177785673575633
Cr 9.797422417887478 7.524380439146416 10.774331645556243
Cr 7.3286787388075005 11.110653186300151 7.662936661095879
Cr 8.406729896810301 9.190788849466484 9.29314504778419
Cr 12.911847103160305 11.683431734652414 9.199979049229087
Cr 13.268285049676175 9.691045468063244 13.506782296746149
Cr 11.124893805460728 9.638030498963266 9.92506786288487
Cr 9.731246671623808 11.009484123980894 8.466018482778455
Cr 10.86808947279919 12.1323901923332 10.25017713042869
Cr 9.047389968720605 10.237554743913506 11.488832606667565
Cr 12.151966817084837 14.16727638403831 9.366552494164157
Cr 7.593931274898069 7.9575588375559825 11.223932345211889
Cr 12.711968275343345 13.172487656766469 11.658854387293644
Cr 11.056936019237602 10.935097261955002 12.424216474740657
Cr 6.240102556261446 9.970333160470402 10.452140863853979
Cr 9.584940216960531 8.64060016506976 13.214410152967003
Cr 12.563926822704437 12.197430882600676 14.213373915506887
Cr 7.465938265332432 11.506649484659533 9.931052185487987
Cr 11.140848799275972 9.976498810544353 14.550610306071773
Cr 8.789381335942858 13.315623414146998 8.876576486559586
Cr 9.830815942263458 14.864069528554012 7.924839657737171
Cr 8.890957985273799 12.588059945821442 11.475334314275358
Cr 10.586393009172848 14.467290270115077 10.393716554319811
Cr 6.955399712813498 11.664119781855048 12.385543672265015
Cr 7.052267388189347 9.67961323613386 12.962820538057528
Cr 10.709026006925468 13.311251784287721 12.91179532516415
Cr 9.116683921566905 11.495018574576592 14.00754143273467
Cr 10.831225642095188 12.532992888414427 15.475136252448515
