38
Energy = -296.41455597 eV
Cr 15.21186813862167 10.537502930496997 8.543424950480889
Cr 14.646610303907895 12.703774518719923 8.552652657492944
Cr 15.772547214982753 12.287997991130778 10.6886069593032
Cr 15.538884941218019 9.60617752122545 11.05821278728668
Cr 12.680019400351364 10.901800779932177 7.826728667769626
Cr 13.593619842164044 8.672334149774764 8.777341956795286
Cr 14.033990250345719 13.814022490534832 10.983070597769192
Cr 13.566475185445226 11.08930084875301 10.442595246834774
Cr 12.347794433134048 12.673413000949273 9.318372475740851
Cr 11.34562194525838 8.78134005740022 7.575230159068178
Cr 13.38533582477606 8.130929162289743 10.748795932036575
Cr 13.260673509597146 9.861503001635478 12.528081873471935
Cr 11.575976709147731 10.05584158856189 9.712741752842835
Cr 10.371483643947453 11.387246905024373 7.906062691628695
Cr 14.537308008456263 11.791249346702495 12.960791051165197
Cr 11.13250604971592 7.706573354396164 9.55362218096162
Cr 11.199367608408577 14.185624111654445 11.01167510655168
Cr 11.366481255037453 8.029994722575015 12.413554766091778
Cr 10.152677530883393 13.654341545121943 8.553876375357442
Cr 10.93727664934748 10.629789005132684 12.208455103625745
Cr 12.318015324813224 12.497686417120361 12.078792499909289
Cr 12.312636706806286 11.490784064174852 14.348056915352673
Cr 8.144698650580146 11.882490180024972 9.07533250862548
Cr 10.10287097396172 12.096815974713781 10.447838225308486
Cr 11.368217432130237 9.683377884146381 14.510527232681607
Cr 9.394293282399573 9.581945715279339 8.722888639069696
Cr 8.397646676986584 13.666951350309365 11.097213588426524
Cr 9.627661982371995 8.901815939052744 10.828437929110475
Cr 10.022509003361863 13.00761409106216 12.995655317294435
Cr 9.0259075866044 9.165709065905945 13.3332450071723
Cr 8.30138506054253 11.024730099595635 11.668142149141222
Cr 9.481815215225502 11.526674089401613 14.287581609274566
Cr 6.321402246906688 12.56624961690246 10.367776325121914
Cr 7.17422281074458 10.025522904110462 10.065717698013216
Cr 7.27500299728168 12.552888568993547 12.954315178022371
Cr 7.291762693482103 10.407444326902919 14.080817861458847
Cr 7.475871755999582 8.52733353849309 11.864700453614764
Cr 5.759078960854076 10.967239741633696 11.718302790795425
