35
Energy = -272.83259518 eV
Cr 10.93581685753371 14.658775109200963 11.226794938026067
Cr 8.868374857799488 12.983208917966994 10.02764100382848
Cr 10.49618950376496 11.153901411141913 13.36094081386686
Cr 13.184665087566708 13.517595898405283 11.763238438514112
Cr 7.932930097919863 12.035869995203164 13.502652832204541
Cr 8.290264766715318 9.075415376665761 8.456315610214906
Cr 15.12052641651154 12.162084108974708 11.80547855547186
Cr 10.712058991874759 9.205672309502908 7.50249505455423
Cr 14.537409130266015 9.630351472473174 10.665388765469833
Cr 14.1643549628214 11.970125217975474 13.792712386386695
Cr 12.901601231540223 10.882287891504214 11.92989624673021
Cr 10.448481271012382 8.334736768071135 13.591419762490837
Cr 11.976632318154161 13.071963259672172 13.393071605798031
Cr 10.5502249029689 6.924138375112165 11.581770522324623
Cr 8.22306100719665 14.834203362731946 11.344862579516525
Cr 8.599093694837377 11.01230997264587 11.696155715211647
Cr 10.264200695222852 11.29302184649532 7.444936111804416
Cr 6.831312288477253 13.967970615604202 12.749185753548932
Cr 6.848962802864102 12.496965884471157 11.112238535722897
Cr 12.421643346527922 9.85557824353685 13.731929077086757
Cr 9.332157972824605 13.264750479384524 12.657000594470976
Cr 12.663086159941768 7.2042256228879635 13.55042496281288
Cr 14.692337974013283 10.335631075742501 8.457480799877557
Cr 11.34619400625055 13.03411011969506 9.20530518390353
Cr 10.625649801339689 8.10711395482378 9.604446273643006
Cr 13.54169495523032 12.114295496463201 9.743312955365482
Cr 12.702945973410369 8.270160976202353 11.386143011403291
Cr 8.579965945316188 8.820002235220425 10.941277971583286
Cr 12.708512216776942 11.181115444475237 7.323365042800742
Cr 9.917924696760192 10.711877496499381 9.58147785958246
Cr 10.676504819314342 9.570649804962253 11.642743914717899
Cr 13.013291613432612 8.188460548125319 8.81506360137803
Cr 12.16672225876248 10.290770918480083 9.444455787685621
Cr 7.347164203559934 10.73584992163731 9.505950349000573
Cr 11.017542083077046 12.184795629372527 11.194034171533033
