37
Energy = -288.89881785 eV
Cr 7.065584215760397 12.177911626727282 13.327754605801863
Cr 6.66927564421452 9.711329552501262 12.328294567976762
Cr 7.1035988687718525 11.921428479303232 10.850235409921195
Cr 8.71416089307165 13.605000213338329 11.862403347812128
Cr 8.577398548657955 13.848738589017195 9.728595643441396
Cr 7.722662446607151 9.85374414769738 14.110246930507234
Cr 7.574848560951842 9.291563805443854 9.919842168836562
Cr 8.946277395364659 12.202066481673036 14.100527994023713
Cr 11.098397082673081 14.55818785838344 10.963960511312594
Cr 8.531859637846766 11.445242885299724 9.221491529587817
Cr 8.905402057673935 11.133556549050258 11.823872204488111
Cr 10.8382525621782 14.81485031644797 9.118490493146263
Cr 9.018845693976083 8.83536988232378 12.013995216240684
Cr 10.319622366694858 12.839126473751767 7.796579913107418
Cr 8.692083406361142 9.0035806711934 8.402195946916729
Cr 10.997612398493487 12.703841860217064 12.716869837478345
Cr 10.478446784554066 12.417230161102061 10.247925923165665
Cr 10.015143871360474 9.991675764619524 13.672347082858153
Cr 11.662882916057457 10.379019477280625 12.01255667169429
Cr 12.568010281815488 13.347561540377312 9.104815019388159
Cr 10.435308829775488 10.842332710921053 7.829073401062026
Cr 10.212950626809743 9.616341963349722 10.17414348335313
Cr 11.265191695812963 7.933337710954017 12.285879614364728
Cr 12.760104678397115 11.546200068243015 7.650204233585837
Cr 12.900434482011367 12.66019337275665 11.137950779612204
Cr 12.343187574977806 9.244366681160168 14.374896251564932
Cr 12.336155531811483 10.832759616581082 9.541269568119668
Cr 11.450774969292015 11.748548362752931 14.640773596816382
Cr 11.520704270008745 8.681102768523672 8.04845526711386
Cr 13.577171652480152 11.49217340017585 13.192156167651808
Cr 13.740044990430365 8.862513800438306 12.909550683551315
Cr 12.498114426368968 8.470787066042892 10.370071669706126
Cr 14.79018221425473 11.6518767565632 9.404711742263736
Cr 14.059263152227443 9.242472652615039 8.52891543591011
Cr 14.270576935828277 10.343922791284736 11.146504824540832
Cr 14.790123034496753 7.791494352132586 10.641023281049124
Cr 16.022175891846242 9.431380179670807 9.274249571944171
