38
Energy = -298.13886736 eV
Cr 14.550718634567557 13.70572338668804 9.886259868707072
Cr 13.38080098618471 12.031887560056832 8.28753308547394
Cr 13.904331048172603 11.631277708494027 10.819914967542852
Cr 12.876978698459757 9.618912817994945 9.049161635488472
Cr 11.954578402333652 10.41011806881128 6.755847763686888
Cr 12.601869712786707 13.048334173880068 11.725223089144114
Cr 11.977410736121637 13.36528347645019 9.667034306338431
Cr 13.294065494832966 9.231543464631317 11.518068543812308
Cr 10.183916527607668 8.962166933507879 5.9819981612609165
Cr 11.509662383099705 7.8896132483023775 7.488803321322741
Cr 11.015721188968095 12.248597214868123 7.489049119153919
Cr 11.482161003185759 11.149851612164131 10.207501590198788
Cr 12.063708624247095 10.734008942792663 12.651813512553566
Cr 12.46542125376866 7.252536229349832 9.847133719599436
Cr 12.616978235794477 7.023819996509944 12.090668496704732
Cr 8.63309952506804 8.131783181101152 7.652909666324647
Cr 9.231492419392875 10.944468023192945 6.866371285248074
Cr 10.444064608394134 14.489332703638656 10.961471893218889
Cr 9.475834371327272 12.481113221222525 9.472993777091464
Cr 10.88996769851715 8.913394160013398 11.017715537918601
Cr 7.970104490676014 13.123637595176305 7.957935002446611
Cr 10.184812116210727 9.757448941048573 8.602960778309159
Cr 10.387602086943982 6.505271586821591 11.489520937365912
Cr 10.140641994639715 12.442473645057305 12.1013907060823
Cr 10.230963048643645 7.0489776736081575 9.166999606470986
Cr 8.93775609829737 10.6144112107939 10.847339406992631
Cr 11.230478676639956 8.50398001621907 13.29964255447607
Cr 7.609996752479822 10.530089639415669 8.779444533974079
Cr 9.438084473356902 10.489807823581645 13.289657739130448
Cr 8.077904716146392 13.3130784670791 11.171599447483326
Cr 8.327138840960192 8.53048060992839 10.062371633192575
Cr 8.694428594317365 8.321617213324952 12.215627037539617
Cr 6.73414416956059 11.93141173555788 9.912069287177763
Cr 7.432306153209599 11.536151365179505 12.592003939454465
Cr 6.501543695040533 9.822205793233268 11.232821758429022
Cr 8.082443809636683 6.066051361836175 10.809489747383974
Cr 7.002274795086656 9.048691238516165 13.507678239070287
Cr 6.4730111614225425 7.1588651860506145 11.532391530329622
