34
Energy = -264.69406486 eV
Cr 12.225046622029351 14.417622022247299 9.455925644275506
Cr 10.1517306749363 14.340835939660929 11.556299319137219
Cr 8.40768464532767 9.224959113605665 6.947421760334601
Cr 10.917708630231177 12.472606517889103 10.21137634081062
Cr 13.514849850306442 12.380640751783229 9.589033531278536
Cr 14.942989189888669 11.926093482611918 11.681107726049051
Cr 10.815743191415953 12.045802422136891 12.629763545681065
Cr 13.441989789310913 10.94386058709696 7.627002268773536
Cr 8.75738164996686 8.355802021556084 11.861806752441701
Cr 11.167353246195436 12.51419459438697 7.844554793791387
Cr 11.688679238550854 10.29520346271546 9.340540786299126
Cr 10.95260692292798 9.912196222391795 6.921464881405622
Cr 6.950604835418072 8.035405147909458 8.022078727979505
Cr 12.074263929386255 8.443545598383652 7.934962865604379
Cr 9.108922124213551 10.798285810381328 10.75421430202608
Cr 8.992821279056432 10.348296346416689 13.38061514144974
Cr 13.518638150263198 8.961935297329308 12.715903854737673
Cr 8.434284567306914 12.708698687025777 11.774682283333188
Cr 11.148711980914118 7.75672669040245 12.982843240886687
Cr 10.744801094931193 9.575492205097563 11.4893529747555
Cr 12.613513076788827 13.317194649965957 11.892496828101491
Cr 9.410419192915882 11.223046725775388 8.322699143518948
Cr 9.643022529231127 8.699809586649726 9.129330069008427
Cr 12.639673824114 8.192825881623122 10.641421998727001
Cr 12.869428379937759 10.85599900199111 11.638987087491559
Cr 14.177842435948138 9.726566462880378 9.987429647707977
Cr 6.955954182633438 10.408597466011939 12.363636818299998
Cr 8.66856248175145 13.126059288933488 9.427724963027623
Cr 10.400450559866833 12.3549876925924 14.603252694539053
Cr 7.2667269418748 8.8326504148407 10.425918556249156
Cr 9.034056492284135 8.582582592073953 14.614516289361347
Cr 11.574176788272482 9.898530357502457 13.96580472051405
Cr 13.075342128448609 11.61270110639037 13.981421746353769
Cr 7.199766813707551 10.74083867549065 9.067730453223465
