32
Energy = -247.24771568 eV
Cr 10.784670255396236 11.547464567806541 14.222963630700622
Cr 13.91246384684516 9.61666707080679 8.66135882076879
Cr 11.431562037819475 10.00825149438189 7.235891336917741
Cr 12.333744135591266 11.072034599884175 9.822014928831532
Cr 9.226097865567718 10.004168425773246 7.5723057814986525
Cr 12.247564092705764 6.1138841306658875 9.295459567627503
Cr 7.041942180888354 8.696943895963628 11.532813526536886
Cr 8.999424589504457 10.395401398262937 13.741371443839693
Cr 6.472193792046876 12.699534623426477 10.337990678913103
Cr 11.339288119652485 7.4526201602530575 11.47351668067902
Cr 10.070667112603347 11.056781230284288 9.442112976445905
Cr 10.078777284951578 12.566692025582253 11.9107312205776
Cr 13.119264922982238 7.9961424129430965 7.4683961354211
Cr 7.933131120635054 12.859569479785876 12.615079945707562
Cr 10.431598563190157 7.6176496161906595 7.852299784066482
Cr 8.755123730041968 13.076142834125227 9.732955421315905
Cr 13.1276040574448 9.314342056780108 11.561267034731419
Cr 9.351250533118955 8.153106310359982 12.39376251677012
Cr 13.786649917656508 7.307043454348632 10.129800422663678
Cr 9.778120072769902 6.4013930962675625 10.053266182041776
Cr 11.317800774422064 13.46343664566663 9.885897965350924
Cr 7.775288128166376 12.028852864336553 8.01897391872502
Cr 9.217403688713262 8.741375676328419 9.970916827966066
Cr 9.94885268863362 12.6064656770086 7.216844673810382
Cr 8.060368295833763 8.091268373660085 8.352013356969612
Cr 12.195001056360423 12.414044987331819 7.700448486365362
Cr 10.70850952158683 10.1096385685231 11.838338329221504
Cr 7.185919775504455 10.342157513628024 9.254547916991658
Cr 5.784648897042523 11.10840116655695 11.678026022531432
Cr 12.313926981504025 11.888621027171027 12.142233614355947
Cr 11.568940297995248 8.732627982411188 9.513830957756287
Cr 8.233915692126471 10.63473847363876 11.409680978072823
