31
Energy = -170.91013255 eV
Cr 7.477263980193454 9.55611868212644 11.621267839073678
Cr 11.107773667147056 9.870189586484258 13.425928502394349
Cr 8.96424163188917 7.377004151846044 8.120533060991791
Cr 7.850584277940206 11.295480902331601 9.660684429342984
Cr 13.061258485026752 11.90570767098792 9.907225577968935
Cr 11.648272180700822 8.924023994390433 11.214715498347813
Cr 8.520368884116172 9.861722171715597 13.585374597801488
Cr 11.843775642454254 13.59812751865285 9.073858894147499
Cr 10.353030825282069 11.911242818441737 9.624785053149836
Cr 9.6187089176078 8.154004717140053 11.85064692834925
Cr 11.688877840985526 9.911824246051308 9.113095552472545
Cr 11.87745799610893 11.143455561002236 11.833839517242073
Cr 9.511226634995936 10.813884950567019 11.630942275096494
Cr 13.746842670278335 10.023477005455211 8.337326969434715
Cr 10.607377062719168 9.090704378667997 7.336107071572963
Cr 12.527233160379824 12.067350046882563 13.715935984762107
Cr 10.730946111566926 7.492017133996169 9.580101100125205
Cr 14.171451726827982 12.401671623647559 8.20741075643533
Cr 7.9058421242595 9.47562253279352 7.980044751507599
Cr 13.779293588651349 14.086664176322724 9.935712875839588
Cr 12.040543185339208 11.737852890804172 7.640590987710135
Cr 7.756878111600999 7.766640024281931 12.918381775750799
Cr 6.135926596762731 9.810180424877103 9.751532272366601
Cr 11.50146489350926 13.25512361908253 11.34640196534112
Cr 6.371448918326084 7.929305613648223 8.45786390530012
Cr 7.41912007076591 11.688990635190775 11.890449593869068
Cr 9.45669395183065 9.38451736117063 9.649916501887446
Cr 7.797105349673532 7.674905694137067 10.173718244111603
Cr 13.753833254205052 12.857923404245927 11.899454690831437
Cr 9.385126199974682 6.147054118401329 11.132501099734489
Cr 9.656806251310002 11.053986537087473 7.650425919469957
