39
Energy = -307.88752371 eV
Cr 13.062981931975937 8.331216476399286 12.457199906761772
Cr 10.927942112430562 8.553995895528992 13.624419312103774
Cr 12.205606406461527 10.56279374415024 13.706439839880199
Cr 9.106291906323685 6.878133493177644 12.339217240050617
Cr 13.075885444684683 8.648445324610977 10.197712508208216
Cr 10.912405456395375 7.61194105197644 11.363556714137093
Cr 13.454269640844561 10.843042396249858 11.767029453186453
Cr 10.02260593250004 11.167143351771479 13.274022922371634
Cr 8.766577827103912 9.013830648927216 12.267128396611504
Cr 10.969891403267226 9.847910507252857 11.257525024868558
Cr 13.189056922970392 8.950401036891293 7.8801898848058265
Cr 9.040982076244564 6.014345257501234 9.930613389382529
Cr 7.030332576423606 7.231158860279127 11.460959796887423
Cr 11.261341302402645 7.061369998435585 8.970634916793747
Cr 11.516536254017758 12.389861973257359 11.765866440762863
Cr 9.08183132027056 8.285105973047651 10.120916275766557
Cr 12.650865061820644 10.961698732312966 9.639405196187226
Cr 10.656904659811714 9.406712689569396 8.816053031769078
Cr 7.722698667972558 11.285499533076262 13.1189072098688
Cr 8.734167951720982 10.9116659979394 10.492367835387476
Cr 10.495397961328724 12.00259889877629 9.575363046368183
Cr 11.714006991843831 8.300680099289366 6.589082897599491
Cr 12.933007002244029 13.290422147640484 10.13113998637861
Cr 14.264382465637166 11.421339483789183 7.976567219562534
Cr 11.528809468399718 11.047565588309618 7.235238785041957
Cr 6.188736456570424 9.486771812575851 12.751045699165044
Cr 8.01204512711011 9.483737201483024 8.369920044125235
Cr 6.668628151436837 9.309378263496072 10.470252389443779
Cr 10.546692027009595 14.238366009743416 9.611132514746043
Cr 9.084414559088511 13.046833388786254 11.623236412166914
Cr 7.237856384788901 7.040743471514097 8.712678252289168
Cr 12.464134780539817 13.136166792384373 7.911492723083834
Cr 9.403120386509984 7.436737562985518 7.607793257810975
Cr 9.348741179000278 9.387506492456938 6.626763390005536
Cr 8.136620359849827 13.143671806537492 9.168610974401071
Cr 10.07608117694009 13.61540022159942 7.600977901102671
Cr 6.516602150355733 11.72943741458543 10.955848614311675
Cr 9.116276123286598 11.38588640412794 7.779056445622189
Cr 6.702729606736663 11.367941211884665 8.681091365304248
