33
Energy = -257.17845063 eV
Cr 16.429021017197613 15.471436154876384 8.96262622447826
Cr 9.308866616242625 9.112090397336772 14.489569778729994
Cr 9.190057534108748 14.845793523088124 11.930404648417587
Cr 14.281876315774824 12.203405697695416 8.89020474046877
Cr 11.364336063512777 15.20177069069706 13.457989005321503
Cr 12.086533166149767 8.893487176910613 14.036630848577785
Cr 14.287453264915339 14.81413560583325 8.53900689701905
Cr 13.551567597194431 11.076280481456399 14.413413431725738
Cr 11.187752554549224 8.857021060221925 10.36374137071191
Cr 15.794809798639271 11.602879480696323 10.790797528181352
Cr 8.30320170281207 12.807252626520073 11.28959738240627
Cr 9.057797333965281 9.374783205465128 11.918418238199854
Cr 9.655951502634085 13.505575701959334 14.042900567201867
Cr 14.420014107099954 9.827790786809084 12.72022001336869
Cr 15.161845758335676 12.731523942657866 13.264596561087808
Cr 13.337200958494051 14.311224750829055 12.788539254455468
Cr 12.990997225595828 8.152660135651297 11.701679020413927
Cr 9.71073856617967 11.147937061986138 10.373914540535083
Cr 10.363526002284361 7.978986031694828 12.581490977636404
Cr 11.474267684268671 10.361318794462534 12.291055701463675
Cr 11.419450044865712 15.530804360935335 10.812280974352348
Cr 12.806128182478544 13.638892088614016 10.368179022535882
Cr 16.547480277831504 13.18375265335667 8.65577537482983
Cr 13.611078539339946 10.027343235727836 10.092242647351085
Cr 15.22006670288582 13.901202808204882 10.869670469684674
Cr 11.769891925229896 11.416545939106758 9.678161266874644
Cr 13.582951376813979 11.826812747685423 11.730994990415395
Cr 11.863268692555017 12.494525439223402 13.666053386089942
Cr 13.44215242092645 13.808325822770911 15.170288318440038
Cr 10.748835637514057 10.813666545148903 14.96125651621429
Cr 10.136582208557046 13.676166294395305 9.447165254989368
Cr 10.92920220954569 13.039268086652779 11.70421964900925
Cr 9.446582088255317 11.345905158888996 13.048341401519034
