36
Energy = -278.29363127 eV
Cr 8.541018794941039 7.523774562792763 13.258576383722135
Cr 9.51847071286237 9.822787377488323 13.315925897671375
Cr 7.028352629432787 9.123808802618106 12.176411665045823
Cr 8.198239373591612 11.125682047563993 11.552353935817504
Cr 11.042070874035536 7.57052751666899 13.017475953117794
Cr 10.21270733013537 12.024541003342955 13.09929132620935
Cr 9.113396593684843 6.172106700162665 11.551660453950664
Cr 12.070588851250982 10.83520042192846 12.918032447669193
Cr 7.176754864902057 7.42500373949196 10.742904335425358
Cr 12.065941157908414 9.112358922677892 11.519231799146738
Cr 6.0968230226526465 10.968738379299744 9.985986180508965
Cr 8.050189923861753 9.683655135616348 9.792280790369063
Cr 5.590913567161038 8.775260295135917 9.823214163509737
Cr 10.372687935143874 10.76142216553183 11.058052694522294
Cr 11.383191129619396 6.885328649101327 10.68136785408426
Cr 9.827250612440713 13.262294287246243 10.726048491021677
Cr 9.526277276244231 8.490460891604924 11.20782457660127
Cr 11.8705645656003 12.7094511679071 11.127529794572045
Cr 12.176241778902021 13.278523297144913 8.909372141118846
Cr 6.422218492796099 10.302566130754565 7.749595818575153
Cr 12.732960285197667 10.79694484190246 10.136161726984406
Cr 10.395960409350959 11.410358506401916 8.664852063454152
Cr 12.493865135945155 10.81276277720806 7.862673189255648
Cr 10.834623962786399 9.027898273403045 9.109344242807104
Cr 13.335434624645963 8.374620681913342 9.284837254671302
Cr 6.966372467763096 8.107457800876432 8.031595541891775
Cr 9.845783849990752 13.545227877159402 8.075366425598736
Cr 8.937554664950024 7.234471372022101 9.020847739770247
Cr 8.77796693944172 10.0430636817077 7.529124471432237
Cr 7.915457602288642 12.203103246138406 9.041968871655332
Cr 11.44096702198757 6.230361447531215 8.589926056481536
Cr 10.89476594709534 9.805211590461948 6.5161585212030895
Cr 11.400500426242633 12.528657642336897 6.49596172411737
Cr 12.580230802572018 8.158581200584356 7.293148467370757
Cr 8.810420316412548 11.890334571361343 6.571835543267798
Cr 9.886569482836366 7.603854613828401 7.201107294368852
