30
Energy = -229.15288339 eV
Cr 7.128347767648964 8.755809344489851 7.243960260214185
Cr 8.99360793049019 10.613325241816643 7.35530475432987
Cr 11.268457409869647 11.708816996996797 7.422158022127771
Cr 11.615766649296237 9.792031873444094 7.483086908103155
Cr 6.279222588195207 10.438675498043132 7.693846414996427
Cr 9.611329428159973 8.613359631170022 8.438363183672141
Cr 12.807845784517145 10.724525284993328 9.392104278756
Cr 14.086264847796494 8.93064154957151 8.851340845978012
Cr 9.407606072429626 13.072148209280147 8.56861659593962
Cr 10.248655575215947 10.811788005804331 9.634684773080158
Cr 7.833584444446451 11.839282845779236 9.159948028723017
Cr 7.9520952077232785 9.500724923907814 9.631264225266433
Cr 11.682229884072626 13.20019731242267 9.5684697448012
Cr 11.64948709849051 8.538424467321525 9.815241949850245
Cr 9.404388875733758 8.298941073162776 11.147487849040086
Cr 11.036263834065942 6.577642106447172 10.097202668878168
Cr 13.574702631083595 7.551717558132462 10.893601236324724
Cr 7.872718403905742 14.282253678858044 10.277652964047741
Cr 9.705831257574138 12.566892493545014 11.034681424568488
Cr 7.118386311023927 12.931365169543163 11.529855215294655
Cr 12.201547141386262 12.306270728775244 11.290175302372557
Cr 13.519926319208405 9.760650433125512 11.43767691571101
Cr 8.50605338085127 10.7481146132684 11.516039056290232
Cr 11.215684841953488 10.119691207781472 11.686750944485459
Cr 9.456817978819522 9.077483241099896 12.966815476169506
Cr 11.595141770953019 7.622661379533106 12.234043107884794
Cr 8.72174686978662 12.712778491806509 13.527633416725
Cr 10.388239006989302 11.638273852760198 13.366612529777285
Cr 12.254705514504867 9.703693579980339 13.91093189810506
Cr 13.658007237005998 8.356481270337282 13.619112071684233
