33
Energy = -257.06580297 eV
Cr 15.914671295608176 10.98641119986113 12.200638354635899
Cr 14.986916752114574 9.840128424750434 14.037427001040681
Cr 15.012862127831626 11.856065110738072 10.084239983502787
Cr 14.40148775752784 9.231911523395857 11.34376291684051
Cr 14.997538983589461 13.633544964466902 11.91641645678382
Cr 15.47819047196914 12.597116163147335 14.110706473527884
Cr 13.10476601454808 13.336967253820424 10.189509376995264
Cr 13.294949966717951 11.251993774943069 14.79929677821746
Cr 12.83168788897309 10.645314920058357 10.336491908393205
Cr 11.563164017525194 12.305114210700884 9.083575916518724
Cr 13.486908708552999 11.817794860244234 12.403328326541942
Cr 13.058454069271203 8.684797532652857 13.143189695375305
Cr 11.946294286951735 9.654772316509407 8.307241238704938
Cr 13.420686774222514 13.99317664232462 14.12886544809206
Cr 11.584005556646444 8.784115755761935 11.061154079295138
Cr 12.143366402996362 14.306656307325882 12.044764125614341
Cr 11.024158904057094 11.942992447183645 11.591911085353376
Cr 11.480100091760264 10.357417377393583 13.42073584556668
Cr 10.089905350404013 10.364936451318655 9.95322153085598
Cr 11.400222838404904 12.811583182112685 14.087464368169286
Cr 10.933333683135876 15.190862992641348 14.04014667510016
Cr 9.535555017189962 11.31485401344385 7.542517834457049
Cr 9.478041413195465 9.156812915597042 7.976558821374312
Cr 9.800990917471939 9.45416748453319 12.426283646888868
Cr 8.208483518177065 8.930114768084659 10.451135813851213
Cr 10.741364858288993 14.304751658216464 10.341833081148316
Cr 9.826566646063275 15.757010871305564 11.980140021746866
Cr 9.415092591686768 11.52681867256792 14.284091610294556
Cr 8.979454599510584 13.974396293592758 14.69277468141725
Cr 8.937290982545527 12.435168641238377 9.882735279442631
Cr 8.287519588328394 11.202039754095134 11.88904881405191
Cr 7.529134852429578 10.54662021894513 9.250979193540733
Cr 9.450441134347628 13.505936691750035 12.423351080648196
