38
Energy = -300.61035268 eV
Cr 8.763466110434257 7.868434303946495 3.8827754795225733
Cr 9.744333818673939 5.910770824232131 5.332041710276735
Cr 10.943181221477621 8.469487940091476 5.227950587134024
Cr 6.840187103235515 6.112291165611461 5.360144906674511
Cr 8.858312264162912 10.24624598160091 4.91056411567806
Cr 6.404145737800279 8.879780626074893 4.91729463138882
Cr 8.462858390461191 7.926302453158639 6.051651571689888
Cr 11.062889806256047 11.058628034547173 6.138530127086746
Cr 6.6762089609253445 11.261086944827877 5.368573854462347
Cr 4.4855320923978255 7.472216594448356 6.334275143022081
Cr 10.521605646222364 7.172084762439256 7.416719389431171
Cr 8.194015943187408 5.8763576356167375 7.6739217254128125
Cr 12.253949710978675 8.944739261761587 7.7054379775927915
Cr 9.8395918787546 9.64426644217189 7.243439530369245
Cr 6.422237775691519 7.707817105756471 7.259681597039954
Cr 7.38131995174411 10.025915450430716 7.135573014129982
Cr 5.450134204948616 5.394268256359878 7.944764376920594
Cr 8.854739657888144 11.996966537141505 7.1455595380229635
Cr 4.92606528462539 9.864843802541078 7.083085873971401
Cr 8.443857225056735 8.267326751550645 8.642235693282386
Cr 4.386964655058087 7.900038148187147 8.871331102901397
Cr 10.911118511684673 11.249151755921902 8.91206001293619
Cr 6.303663496187701 9.366616987880015 9.32906302360231
Cr 8.618229979196222 10.655034606656791 9.3712484445091
Cr 6.7024680572463415 6.730906616526357 9.638300746349815
Cr 11.85812095687248 6.670705611457601 9.383636253549678
Cr 10.628604790688536 8.81807826961565 9.639798290623274
Cr 7.616173180344439 4.2473452663575895 9.275088196708838
Cr 9.43774101983872 6.353172864280576 9.736909254538729
Cr 12.600802251225778 9.358544167733793 10.66292290266598
Cr 4.059168595332434 6.028593542367333 10.01372783463283
Cr 8.250219490594532 8.469675366461699 11.07334751700673
Cr 7.064801850678672 10.528390773835657 11.371301857310835
Cr 5.724675569750889 7.90793729916471 11.360362194995261
Cr 9.864023828618087 10.307532749101329 11.477083563738093
Cr 10.440091464613353 7.469144857469612 11.69114036823395
Cr 8.082870240815895 6.02200940681118 11.628866312230299
Cr 5.836754686323316 4.732416245854017 10.70471669034918
