35
Energy = -269.01019391 eV
Cr 9.086967219222442 11.586698900254989 10.126101279326887
Cr 10.877886117028305 11.071524196910016 13.67619867573677
Cr 12.386306378955828 7.315063524797618 14.112426586212887
Cr 12.013010882490349 12.936831141631956 7.438195806969851
Cr 11.74703719997452 7.697941440979706 11.680928718474304
Cr 8.554129504017524 10.767298291428697 12.589416685073886
Cr 9.277742414359468 12.915066659105255 7.869274288888928
Cr 8.941142197796813 14.304289828779886 10.116110902239482
Cr 9.150019318597453 12.40526047476506 14.160224681186241
Cr 14.91734616717123 10.47102627804936 10.041023819715914
Cr 7.958444975707906 12.893152171757327 11.693967818506412
Cr 12.364813764976015 9.507331243654507 12.792696063360042
Cr 12.903484913850255 13.67074858845311 11.26747087983778
Cr 12.099111658171463 12.967726422221403 13.314735154644424
Cr 11.904808408278637 14.95886211772008 9.048627374694744
Cr 10.113075360731127 8.364003411956501 13.327511706155066
Cr 10.155154634859354 9.75217251383019 11.250832905990418
Cr 10.88926628112619 13.16398868784071 9.665931209478758
Cr 10.744255624509542 11.056118117081606 6.286523894152032
Cr 9.325899930854794 9.777794434289639 15.254510344693854
Cr 11.778625502652027 11.309577343206819 11.221889914205237
Cr 13.0483768337077 9.584697788646679 10.153452064739072
Cr 10.145762836419594 13.111195406713154 12.020217041167538
Cr 13.375915825528418 11.275175516295127 14.334335400602699
Cr 14.045738093017222 11.293229136151174 11.935906472765828
Cr 11.499446219576614 11.403504435464585 15.711032034600468
Cr 14.701779271802003 9.189013888209209 14.171566751334797
Cr 7.339685194024251 12.883249415301513 9.032519850048633
Cr 10.932342796423367 14.975522618047433 11.475048833766351
Cr 13.085738460194973 10.541045532527004 8.015827752047889
Cr 12.153274263617192 9.037016766419846 15.090681558326954
Cr 14.465583157484934 8.471765916523935 11.782802138576358
Cr 11.105080313175248 10.781171733051998 8.847954076946282
Cr 13.359585305083097 12.020794347353247 9.398900268168793
Cr 8.7409166791312 10.892810519119813 7.748377764051461
