30
Energy = -227.49527411 eV
Cr 10.79462896590269 14.147037862601003 7.031018712374932
Cr 9.345874593224458 13.027956583872628 6.474549611262053
Cr 11.89975645151606 11.690587386461415 6.965887675198412
Cr 7.600998872419039 9.393658348204584 9.270830380019053
Cr 10.16406555781286 12.381294964297851 8.71488131957389
Cr 12.12676623200043 9.031180183763686 8.148016476048701
Cr 8.507037507417117 7.788957007814428 10.902809382252988
Cr 10.070754148185621 10.290863487748018 7.18612522163054
Cr 14.116745949179485 9.147420751080904 9.958355648038149
Cr 11.894784003299533 13.37826723798565 10.275549106903409
Cr 13.344915942229663 7.422914363774266 10.159771080525628
Cr 10.861313238747144 7.635742558800381 9.754769302561067
Cr 8.176008482168129 11.6920958326832 8.75281475669794
Cr 12.165399422544837 10.851124382350603 9.164000207968337
Cr 9.800571086519986 9.725156547710077 9.404036888005542
Cr 12.816532298115606 12.098359326554755 11.39283399651114
Cr 9.228967351157305 13.8011865522102 10.286200571465024
Cr 10.221545712482797 11.453769629236962 11.083746489038523
Cr 8.10690319291068 10.635217887713072 11.301243011856494
Cr 11.98874783243983 9.512504908371309 11.151958498493975
Cr 11.182465572756275 7.024766727688106 12.093230647487227
Cr 9.814344500587328 9.025855575022621 11.97679598417285
Cr 10.517502451134725 13.123142477332301 12.679522003646214
Cr 13.146630072813737 8.238043434756507 12.67430748887705
Cr 7.129762282332794 12.756867796612346 10.57852802907858
Cr 8.64441687641429 12.77211236173083 12.728010355927111
Cr 9.495090680250835 7.748928545077959 14.16420430678076
Cr 11.228848768189808 8.48088560245736 14.440346613353482
Cr 11.651227225375248 10.752400538595655 13.245842575094464
Cr 9.632669744647602 10.646976152268318 13.715088673933174
