30
Energy = -231.45934385 eV
Cr 7.3009719226626295 13.014237004858327 13.10298659269447
Cr 11.06743150144607 8.96685659755595 12.434567886816668
Cr 12.294988461831569 12.61962739771184 7.82756775362019
Cr 10.691002500626613 6.764210427787185 11.137372584572631
Cr 9.922573410012218 8.341905725760386 6.14872749252281
Cr 7.986024696740819 8.556603087131176 7.920003256351043
Cr 9.124810815126287 6.278297843691175 7.091218047355362
Cr 12.109431466022452 8.398854106389722 9.9643423156075
Cr 8.975392710692255 11.13624070560911 14.119916692293263
Cr 11.373729780088643 10.81910330207903 6.337606469900533
Cr 8.293779592158096 6.574349151739368 9.354359301177823
Cr 12.331232691889946 8.581959100649385 7.043009515262332
Cr 12.943281623864689 7.574277573610699 12.312210501334627
Cr 10.892928142196538 10.766101231976124 10.387344508814337
Cr 6.250000738175686 10.16897328935478 8.22443431897348
Cr 9.449526409935523 8.443031818267059 10.188801386495408
Cr 7.080964872635861 8.858850507755033 10.416943235486412
Cr 9.14427698330089 12.454238535005732 11.612234862400024
Cr 6.819994950076842 10.680524029344147 12.789864169188677
Cr 13.004107999499396 10.055084904119546 11.32012341283415
Cr 12.039590019586221 12.728215880409204 10.305500030166739
Cr 8.498264644851709 10.575031170633366 6.887907762584337
Cr 10.401027460774941 9.715270732267175 8.102147482661154
Cr 10.023941999826327 12.144423402464705 8.614400285702263
Cr 8.294797223200213 10.7081205904746 9.43153127809792
Cr 6.792563596448295 11.726446049984906 10.773982850524757
Cr 8.940957689760387 10.178976529428079 11.790584537959274
Cr 10.75988436896688 7.268655935488638 8.403843328895878
Cr 12.674436913236383 10.39999144452544 8.634408859876292
Cr 11.14815361434605 11.441233494200036 12.765126015141067
