39
Energy = -305.38706807 eV
Cr 9.974940140048622 10.760131214511345 5.39319447558298
Cr 5.353968996862872 7.872782399202286 5.477033238844493
Cr 10.04110504968041 8.344232646045118 6.003313044636152
Cr 7.531716194414897 9.305538960930068 5.954698229910684
Cr 7.628552225287645 6.840376465599785 6.329723031668121
Cr 12.12943160402515 10.162671954676432 6.863598554022561
Cr 12.705140210938628 7.356176212215342 7.094540006667394
Cr 7.873962616844613 11.765965967338921 6.460134767460014
Cr 10.744940093886308 12.471706048597166 6.895089257759409
Cr 5.4955492599046565 10.28306701429498 6.832036571141898
Cr 10.10717581730337 6.2205672460384545 7.963066107070966
Cr 5.462625738517133 5.876049912097824 7.457176494770575
Cr 9.640340654938926 10.298149364910659 7.520754919377153
Cr 8.57316155684168 8.167203074399215 8.05053453983098
Cr 5.931457128072087 8.191967617241922 7.903974106098299
Cr 3.7748533154425896 7.773805178414367 7.837863199607469
Cr 11.173707774417537 8.408848138880648 8.39600390719999
Cr 7.2879013838937805 10.447504908862598 8.505224976185984
Cr 11.549799810289455 11.00283506937507 9.180559630611645
Cr 7.535174100791678 6.025560576073123 8.902431194489083
Cr 13.256901748246833 9.412180032695776 9.381815000509773
Cr 10.634155664707162 11.187217139703277 11.282766466234637
Cr 6.172002929546187 12.38035246626943 8.84299761616665
Cr 5.318943866973327 6.867848850872333 10.045321904109993
Cr 9.616307363300606 7.065391051311841 10.18946261568707
Cr 11.484076301632056 8.817966372606186 11.052736403078669
Cr 13.015494799937574 10.756381043977443 11.501456078415682
Cr 12.099551976653283 6.721557984446732 9.895780982607105
Cr 5.185144676651473 9.697971318643436 9.71941874820783
Cr 7.387969270968116 8.332353190160232 10.034904892690083
Cr 9.451435594747126 9.668148162698254 9.852699584314447
Cr 9.132926511983857 12.121665538237293 9.135656262474537
Cr 7.784827653455342 6.386806298447052 11.662988193272918
Cr 13.621804402784171 8.292731581922537 11.903529898635686
Cr 11.67243161170269 9.676084801627082 13.271940837056546
Cr 10.822118981465563 6.814698927697066 12.337100827204557
Cr 7.479551524669283 10.784626291452133 10.958124432884379
Cr 6.353244233401806 8.674364528908441 11.917991927760484
Cr 9.073540872490652 8.844448106338227 12.0702907334704
