34
Energy = -265.96733422 eV
Cr 11.503586667531573 15.185652695473513 9.85772723840908
Cr 14.132451349677645 14.591041414238413 9.88279401611443
Cr 12.554902907562031 16.094876475615575 11.356771379196667
Cr 16.850650317999374 14.983959272971797 11.061782165613936
Cr 12.268941771803366 12.709270086064713 9.462936960913863
Cr 16.122673955734022 13.00841045833801 9.914913949884264
Cr 14.726346079592213 14.438882667960307 11.944038499080701
Cr 10.06301709031689 13.029723652140229 10.136569943256962
Cr 16.40388207108157 14.368732706024783 13.815719903930685
Cr 10.103987711974353 14.649739419909185 12.022562878164166
Cr 14.201401069251634 12.194261232740383 11.152503406036228
Cr 10.34297495543999 10.744159797261277 9.447678630296059
Cr 12.282445873434519 13.458937495883754 11.792603633316952
Cr 12.54833672103939 10.5353524177629 10.718304178282471
Cr 8.72322760542163 10.424992914594377 11.102016091378715
Cr 13.367127365533172 15.354952493247904 13.588724827038464
Cr 16.583582571703154 12.550081743203352 12.455768479595298
Cr 10.373140492381944 11.877330261701294 12.127363856437707
Cr 10.86170802781865 9.096663227608042 11.578432061253675
Cr 7.995814420652925 13.08410977278822 11.869229027898957
Cr 14.296117991515034 12.799232965570939 13.845723647766263
Cr 11.093988808853398 15.837052250833104 13.704186347526766
Cr 12.576590184792659 10.901817644817475 13.11596663072071
Cr 11.65760820780883 13.353534659330508 14.086020913272328
Cr 14.962439155321432 10.570104233385454 12.549295453021323
Cr 9.264540564221608 13.799142529795272 14.129346860040249
Cr 16.09899433511976 11.753757348555663 14.816259639556456
Cr 8.295431553905631 11.44927826978231 13.73595917487872
Cr 12.82222685245637 8.645536910946277 13.269882642037897
Cr 10.061630423865108 9.42746146964381 13.4791014952185
Cr 10.521532773022878 11.598438257522687 14.955109467482076
Cr 13.19608858604561 11.66735181750692 15.524682578311204
Cr 14.517428690404167 9.919397392614322 14.823881386103082
Cr 11.794039483091247 9.472450311977044 15.267197625490734
