35
Energy = -273.45318845 eV
Cr 17.696617199868577 13.342299714482996 12.188205352958782
Cr 11.158828841650275 14.530285246274957 10.740580537045627
Cr 9.017030029907188 14.235289020540785 11.788854260461159
Cr 14.77857448501041 11.320285403995745 15.466320857878719
Cr 12.900814165291534 14.571177758475956 14.778039810718171
Cr 10.781118824486956 15.413198578591166 13.302207497634853
Cr 16.629782250387656 10.41805622119988 13.700811257733267
Cr 13.242547448934538 14.518752898701129 9.38533659502149
Cr 12.642575462584118 12.542219935393854 16.009127480138865
Cr 15.710873051241533 12.296239559878497 13.14662172145079
Cr 9.86171109360581 12.285227716410272 15.57214398579784
Cr 12.899718312518388 14.793617978017835 12.119312977400293
Cr 10.302272897774111 13.0475892558429 9.209026616958319
Cr 12.490832827605834 12.42408850110203 10.881406476960018
Cr 10.68863995984313 14.340955442266367 15.820569012356112
Cr 14.924397477722245 13.635166687232543 11.142247445202178
Cr 11.357416424193142 11.006806522946214 9.480624404233419
Cr 9.981508580981478 12.034911558240813 11.401957943403485
Cr 14.346072255239852 11.829023426122328 9.114883638917082
Cr 17.399145247143238 12.350412431728673 15.235115592330365
Cr 13.398013337235486 12.617737536064505 13.426725074297396
Cr 14.588475745362825 11.03012161850932 11.411070371068318
Cr 11.055334812862007 13.072616114425625 13.300926491868672
Cr 12.005842700349621 10.606724944047214 12.446711337554325
Cr 15.349769048184756 14.966831786319855 13.213228941012439
Cr 17.426183473166386 14.4442489920026 14.115456043649875
Cr 14.159447885133353 9.947652317149714 13.240559261804394
Cr 8.782701316952144 14.675912973297553 14.552704975703154
Cr 12.574209857659401 12.819498990965517 8.051214067112538
Cr 10.113391888830886 9.244303493485893 11.122690467791994
Cr 12.909839164540038 9.646737338986368 10.499432149661452
Cr 15.155675513228296 13.517290618123772 15.268006718513918
Cr 8.433530352525043 12.579608641588074 13.637294362119096
Cr 9.714669422972081 10.517005889331378 13.216403139650366
Cr 12.130906193180769 10.852920666181888 14.75563458624789
