31
Energy = -238.14819492 eV
Cr 15.049072906970522 9.3127960503252 13.979579504406612
Cr 10.20619654725315 10.561703032180594 13.063594610537574
Cr 11.822077679026897 15.747385825141684 9.985575577580496
Cr 15.903238800086063 10.8009558111125 12.278187878177784
Cr 9.660150870760248 9.696970380122021 10.715440167851364
Cr 14.404566773378574 8.305188132383897 11.892040030050644
Cr 9.401337362451098 12.403002513720589 11.093918965895684
Cr 14.67619400486192 12.239095387458526 13.839487136941221
Cr 9.862773069399823 12.966573144199371 13.40007398453481
Cr 12.126152288236083 12.461167422976683 13.772154669768979
Cr 11.680635414086883 8.79360246343101 12.350888846439169
Cr 12.916096684005797 16.313941391653717 14.844762626333642
Cr 13.756728327748275 14.569559767374056 13.822155685007086
Cr 14.300209707972401 10.60537538955886 10.614612473347533
Cr 13.28085754020882 14.508056075016704 9.830023532846425
Cr 13.678919946464346 10.93421385112403 15.449534805903776
Cr 12.54501966055581 12.010292868109115 9.296717743383278
Cr 13.910841467919697 12.768249211116528 11.621326466141872
Cr 11.87254885968571 14.243578848556245 12.095351199275923
Cr 10.675133519102538 13.333022158728298 9.707791417067517
Cr 11.649451640869648 11.479402646080327 11.396676213878687
Cr 10.308516403724514 10.71152172276072 9.12679254395888
Cr 11.198648925840214 14.932624634066217 14.367373297343105
Cr 13.62599511891443 16.33526527164314 12.01876076397348
Cr 11.840847704180748 16.791164216165374 12.549988670691054
Cr 13.310555224439439 10.362194504973003 12.804581241154152
Cr 11.673813548500137 10.409455106159317 14.950671343962599
Cr 12.99027852531745 8.352686013838298 14.463799933963843
Cr 12.374464498830752 9.324507165895936 10.201550308544988
Cr 9.824741572144406 14.933795789234843 11.750099286604444
Cr 12.819080789404383 13.502118270173082 15.630114675602048
