38
Energy = -295.87339743 eV
Cr 10.32684406093474 6.360094786589549 11.87959194428119
Cr 11.192961355669937 8.537781455903637 6.4742877002483
Cr 7.317131107697803 10.680044913026162 5.3695973570142685
Cr 10.248984528700646 11.787842629597908 8.884896769169332
Cr 8.838878272978038 5.990654824625773 6.748411343977144
Cr 13.60827438971471 8.555481419026062 10.593299589734901
Cr 13.156232147247028 9.414532201429477 7.830656241816143
Cr 6.269757178487296 7.095159448303652 7.359170159414032
Cr 4.947018724770757 11.177806936539456 7.404642702715751
Cr 8.65125414874106 8.017647752954732 7.805577412152185
Cr 8.497343863087686 10.140734884717624 9.357884310246895
Cr 6.666357771873375 8.267255296840066 9.765994688662515
Cr 7.879595757145228 6.173822289009089 11.375190969671312
Cr 6.618014156910766 9.57217999775608 7.407377455966466
Cr 6.060205695554106 10.86258094532514 9.651727034753236
Cr 12.36905785169808 10.190575497440626 9.732868160067397
Cr 11.379239207541266 8.169525464081975 11.106744200153916
Cr 7.570574554178868 9.943306290817507 11.725490945472071
Cr 8.918016425869574 8.036344741327678 10.588779592487047
Cr 10.876525703127859 6.525835548700463 7.30458505283371
Cr 12.583276266157823 7.613052371813426 8.911695784071304
Cr 10.165091476214709 10.039259086946123 4.92195801980165
Cr 7.969829886723132 11.843713727199184 10.647223439381765
Cr 5.0843827957204235 9.534448536172386 11.20128024938748
Cr 10.161969101626614 10.314442502030989 11.210286663061082
Cr 7.757028536444654 5.985944108304906 9.007123912788293
Cr 5.404386021280803 6.397824860925222 10.323629392549101
Cr 6.999146070667888 7.7996182511292425 12.35521950621575
Cr 9.283764797630637 8.097992399489721 12.78500825005774
Cr 9.176791524267633 10.34325723812132 6.808573137660578
Cr 7.648215393554727 11.909714029948274 7.933737355476241
Cr 5.616353121248118 8.537690810598251 5.828835045491311
Cr 4.86206556040852 8.613502714082472 8.539535884894141
Cr 10.021517237150189 7.234847053271955 4.98274931027523
Cr 10.720399275618552 9.0064772239156 8.792118633704616
Cr 10.039913861470003 6.437310563835311 9.396019914801924
Cr 11.694476738640585 11.185200753604635 7.117694904265055
Cr 8.088194321081781 8.275565332435592 5.5396058531145425
