38
Energy = -258.12518881 eV
Cr 17.599468189864183 2.1889393848446383 16.891461807583553
Cr 21.576450203027843 19.877230392487828 10.45175221504145
Cr 20.12848625813639 17.030454544335207 20.62836759113692
Cr 11.030859463120205 19.6476437969101 18.040591557990613
Cr 21.319623888706445 9.286263432776526 20.402682924079016
Cr 25.22928089984182 22.51661589057159 17.47837043968282
Cr 19.61146659278819 21.43716190620449 11.536787058256845
Cr 16.41512332334297 18.705789571682768 18.099694996798096
Cr 14.54024886120767 18.243319157163047 16.154672833978918
Cr 22.662001408558165 16.45288639977258 21.558881805518183
Cr 24.061528726852366 19.56331536384451 23.469353250368634
Cr 24.384346853383605 18.166770911945914 22.00910163511394
Cr 16.625920354134085 1.3484278016578015 18.281662140582984
Cr 22.0984284935072 18.640176999659936 20.4090007618366
Cr 19.554951123853336 19.71072655972153 20.95318851163735
Cr 15.027278336170323 21.99705923582359 24.29512201241388
Cr 21.58231140087199 20.94258990543522 12.440738554357472
Cr 19.65065857620338 20.425170661084305 9.512167175896735
Cr 14.613006886811096 20.739494950139367 21.726233342120615
Cr 18.8494809974894 19.195400588760794 19.250255680616014
Cr 12.680228554547583 18.546238742289148 16.038607927947176
Cr 10.629278701962814 20.797248787708256 20.321714228529235
Cr 23.360457322532678 13.956292579924177 21.05067596697742
Cr 23.027313564133497 11.344884918291944 20.943798531755053
Cr 21.55302360189207 14.87071003980344 20.227754655509955
Cr 24.406364942450555 24.260976166079736 19.310126016304523
Cr 23.077867465483433 8.617767054609198 20.703788583119444
Cr 13.794078924747692 19.267222590985874 18.191549445044053
Cr 11.90781205971288 21.220336234561863 21.684079623143163
Cr 24.144875126038933 20.370340881548373 20.80427661336826
Cr 21.294659551438734 12.126476476991172 20.658457514336078
Cr 22.631346554328392 21.127466128695822 21.690577097524766
Cr 23.96718608886667 21.599653455653772 18.59469188777505
Cr 16.063741471215856 19.62607070692376 19.778523905156217
Cr 13.194223006343613 22.001033485276015 23.656843682569097
Cr 21.66901057737225 18.92912860802722 22.27669059735959
Cr 13.067389192983187 20.079286059802723 19.851524347539815
Cr 23.802723415502776 23.353244944999247 20.828590139262914
