39
Energy = -309.30654864 eV
Cr 8.243995880487065 9.484142545689249 4.24770104696765
Cr 8.694902995819913 6.508321351395655 3.8094656437378323
Cr 6.214379861870184 7.6577809765583424 5.013994699465887
Cr 10.803984704621024 8.41089948152421 4.971888109172277
Cr 6.964225249120542 9.656110805215263 6.151278816089117
Cr 9.597918409439695 10.164085603864182 6.305600481834178
Cr 8.652696917770879 7.614978991888315 5.779010481948418
Cr 4.665418063854876 9.053046358727416 6.948274280668906
Cr 7.443873448622286 5.400035485715502 6.270228493462438
Cr 10.294590212534354 5.778416682441894 6.21939873757223
Cr 11.950236042704857 9.980783710452535 7.011122034721934
Cr 4.963978151307487 6.186488453726163 7.085653632433029
Cr 8.172634247686716 11.184583443143664 7.921663239757717
Cr 6.589687791456594 7.467417328486911 7.4845984565856325
Cr 10.821028472942997 7.986977786764955 7.403951491207498
Cr 12.872849244431437 7.139126795907551 6.8439511718563235
Cr 8.544492357303087 8.903943024635733 8.06908717156176
Cr 5.604747454604201 11.708076466418973 7.3073821788688536
Cr 8.778991911971342 6.577385503904462 8.120977846107161
Cr 6.134967193844978 9.637951481986446 8.91105969211551
Cr 10.507524751207322 10.327400930221087 8.795519599263962
Cr 8.99297376337345 4.4213424427962105 8.238941023522914
Cr 6.6714383612715515 5.382069809819378 8.995778807501729
Cr 4.064352811118403 10.442063107365971 9.403446801319532
Cr 11.058865435616596 5.900088454901996 8.982893418431528
Cr 4.875020632066276 7.559291551928446 9.393891747629219
Cr 12.25150323419327 8.535109885086568 9.374908837242854
Cr 10.042967866408336 8.005332784201663 9.988574309103301
Cr 7.440495934595838 7.696067433180882 9.798081314220843
Cr 6.611547095292267 11.84668408343384 9.931184978139589
Cr 9.569766895081683 12.15171120196422 10.039692575638933
Cr 8.347053565595283 10.104806233839573 10.443959704505938
Cr 8.892913587136752 5.664580914187062 10.64138328461828
Cr 6.070458613472547 9.30654790723118 11.311134719434925
Cr 10.647420162968755 9.87042663787245 11.273551879750604
Cr 10.940153970291567 6.687473736240009 11.643971679165196
Cr 6.347425776577802 6.605901440238655 11.367548254900367
Cr 8.52508034826765 8.01268879487147 12.055138979251472
Cr 8.19976277764033 11.046184566742093 12.510434574794832
