47
Energy = -375.2973941 eV
Cr 9.79711984133575 11.193750178642219 6.207163730669067
Cr 12.510334631581792 11.719952134856298 6.7750978658210945
Cr 11.691621918264868 9.828153549459387 5.653437318863709
Cr 12.546716355000063 13.628650847554608 9.733240481394366
Cr 9.30170374495012 8.761882524675553 6.728936244790837
Cr 7.6875147523122935 11.037592933706415 6.644539737367098
Cr 13.6015570274601 9.460396046026062 7.72799367225424
Cr 8.208796455591852 12.864852743126821 7.63268326947781
Cr 10.54778464228325 12.584564434071861 8.055834385861754
Cr 10.087238745080986 14.199967473377477 10.132430190843335
Cr 12.744244672539592 11.471662203230386 9.197614937397482
Cr 8.939295101530416 10.578551765029768 8.703664034330172
Cr 11.03693920531701 9.987179248915306 8.079074659267956
Cr 11.87158891158418 13.087677095953213 12.021699903015687
Cr 9.499329780358238 8.099935915090192 9.08177059541783
Cr 14.480826989000311 12.337077129480932 11.10335222241422
Cr 11.673311086277549 7.612537843180351 7.6373245780814125
Cr 7.109301647370441 8.574422687673415 8.438093487434504
Cr 8.377026049548908 12.596299265504632 9.912413805241206
Cr 6.38434268213622 11.506765796624313 9.083719362505132
Cr 10.71340758603347 11.607295381948688 10.450436615882575
Cr 11.962034580130029 8.911386319549242 9.871882100782345
Cr 14.382091123651302 9.992655971499952 10.171992991955062
Cr 14.06354090164005 7.695859259676774 8.772833019770218
Cr 9.361625824501875 6.045910000213931 8.45299685964514
Cr 15.054634179429355 10.086711661474963 12.585604102445535
Cr 9.480775339613322 13.382602521299399 12.341534245110923
Cr 13.483249694425613 11.9102021678012 13.368230692491661
Cr 12.611345293785023 10.409345050105681 11.685998667603513
Cr 7.281746204765577 14.022954567938568 11.470564881459941
Cr 7.911348884647543 7.512333281048351 10.985930692998664
Cr 6.224544609923729 11.848972364012857 11.65712710808349
Cr 7.4665261897008905 9.700538291367257 10.44163913037992
Cr 11.768815859368019 6.233200244897159 9.418357998055829
Cr 10.097307168211886 9.47926775038971 10.946106928804493
Cr 10.72762923061209 10.985485633410946 13.151823899438304
Cr 10.580412744206393 6.949648268421267 11.24415257225663
Cr 13.546388677103378 7.7379227443503895 11.330685614864121
Cr 8.579263562780067 11.31514533378035 11.931170812141133
Cr 12.775374916553382 9.918249033531605 14.342419007524605
Cr 7.385540118193552 12.65990224294174 13.835453787580915
Cr 11.688558105184248 8.498860807852493 12.745888960918581
Cr 10.251960366259242 12.664686353779912 14.603760325689876
Cr 6.602791472055206 9.704426636504301 12.843396380243492
Cr 8.863786099528689 8.811263201567392 12.806516927027566
Cr 10.171430171929822 9.24705048250046 14.797923226807724
Cr 8.278380993923088 10.882474191293488 14.477127137607503
