45
Energy = -357.82911861 eV
Cr 7.478179064726903 4.842044653855066 9.877266537205497
Cr 12.421890960029055 5.570232246442308 10.464553660653884
Cr 8.831995768878889 6.51976334363825 10.877059633318916
Cr 7.4834865575759375 12.110659499877498 8.319603669447549
Cr 3.8890879768939164 10.116161088322759 6.669704828872308
Cr 10.160119334365593 4.816822656562335 9.082159593554598
Cr 10.313877473130189 5.126804870048288 11.773810147490966
Cr 7.7599168866106165 8.914308061567544 11.394728618702223
Cr 10.490156367854897 8.714358088681161 11.018216581651929
Cr 7.0109279191629525 11.253228588857421 10.87443275998139
Cr 9.135524904654345 12.790668210149223 10.1642562968867
Cr 9.812193302186493 7.756326418813405 6.653384772942713
Cr 5.317919447215647 8.917894297658787 10.705345705911263
Cr 12.825273225653056 8.32833921779042 9.376839712513537
Cr 8.783500202667975 8.295616388204563 9.067232330628208
Cr 10.17763664722691 11.707502608956066 7.775623257913492
Cr 5.140681983050712 10.96262332715216 8.771642670325177
Cr 8.515566247692307 5.882151994248167 8.090941043512506
Cr 10.21029132171283 8.104912351891107 4.53646961221773
Cr 11.552809091937291 10.78668224775357 10.173420680041064
Cr 9.199263999401817 10.732168625904919 9.873202745272662
Cr 10.342946192345321 5.479853600442276 6.488938486108645
Cr 9.285163677869667 10.427851501881072 3.635860900457947
Cr 6.652696143526498 6.768730565482219 11.996899691873326
Cr 10.40919737118202 10.138738699400928 5.614236132213222
Cr 8.159951634942596 11.425193387183548 5.841072495127148
Cr 7.984968324072703 6.591170027738284 5.5097648029655
Cr 5.95656098336988 5.990825879925663 7.562119534415019
Cr 6.866555894613853 9.625358387317744 9.037738068191727
Cr 6.538987037825619 7.036053327905998 9.64807637568733
Cr 9.44776174164753 10.47072322885805 12.202302556461072
Cr 8.61426090801273 9.954693704639283 7.360658322046315
Cr 4.7175931946319585 8.47835858662378 8.105886624527537
Cr 9.315528089747824 7.755648190300072 12.871371958766789
Cr 10.720748313338941 6.857916018119898 9.41624411865959
Cr 8.050790416177621 9.127888849367155 4.993421834312967
Cr 12.207286172672909 8.60934277193376 6.406947684109884
Cr 4.436263893190349 6.567386438078767 9.73307210364269
Cr 5.848636042589127 12.541455284037939 6.736744976937381
Cr 6.091902080595581 10.398380644162463 6.627540640342248
Cr 12.067172116004043 7.278319446331327 11.843080491256382
Cr 11.054111966737027 9.404878500245902 8.307310379205783
Cr 7.130392268783142 7.952527814380302 7.1774440201010155
Cr 5.5021228689666035 8.256240082986322 5.658130836988586
Cr 12.077400271120615 6.60249256287363 7.674538393150821
