48
Energy = -380.91413109 eV
Cr 11.583687065426707 9.010118254530306 7.544866207842793
Cr 12.26790282138264 8.70654511342301 9.71666046376445
Cr 12.04825917648504 7.219230568949817 12.111053225519681
Cr 14.375638845847424 8.776013625085346 8.577243840752715
Cr 16.215878774718746 8.995627153293217 9.852122016624605
Cr 14.223966994629292 7.945495618573307 11.148344808119292
Cr 13.297232482887404 10.688554200034291 8.014804547280246
Cr 15.463222976043124 11.297071298318496 9.10727458986673
Cr 11.815851806345234 8.334311720438906 14.257926816249167
Cr 10.239451518001996 8.00954352556922 10.762446742959815
Cr 10.65578255780963 10.98269310686665 7.103200393248222
Cr 9.622463867128271 9.293425137576923 8.979242057602645
Cr 14.124095149780349 8.891800231920573 13.021443836162064
Cr 11.471526840157203 11.07798663468181 9.536142444420085
Cr 16.030643555368012 10.077634309784067 11.750451327306566
Cr 12.148691266201778 9.694734917057891 11.872591772274516
Cr 14.111392313008208 10.372656516232556 10.661350287852208
Cr 9.009754280810531 11.638971677450963 8.736242547055136
Cr 7.58776542418445 8.271834121790816 10.142763456730933
Cr 8.090491366157947 7.756227619254621 11.998891074261243
Cr 11.953759322579023 13.045229060663086 7.940388830580608
Cr 10.11981549757555 9.167069057057883 12.87374464227561
Cr 13.747333008654072 12.619713817242756 9.541490279544883
Cr 9.522203125834503 13.237471290549337 6.675548161431659
Cr 6.684412086143574 10.149567634233623 11.993569438379344
Cr 7.071940989269945 10.586701974449268 9.305417332153636
Cr 8.986994384429467 10.374696208747393 11.118062388812467
Cr 12.386013633051862 12.13431936143565 11.559386701654052
Cr 9.619366052975428 14.231202696073089 8.400709498928952
Cr 12.17711122981857 10.608904613912168 14.120726285111362
Cr 14.958951622862726 12.884815993850534 11.599350267539382
Cr 14.109580183107775 11.238737864954457 13.192933162147082
Cr 9.764497567328277 12.638362773152343 10.684521078802002
Cr 11.72354911002934 13.891279609679174 9.731880387590781
Cr 13.658827040940572 14.426824711732538 11.423211393449467
Cr 7.805767993271708 9.789121047410397 13.571768235626504
Cr 7.456950719621191 13.63720274027492 9.515658712416151
Cr 10.506835132641417 11.785677504653071 12.928581335379079
Cr 7.160856096172764 12.424695568730895 11.059493895168078
Cr 12.936344791006475 13.269633303518027 13.765896449073159
Cr 9.51404297018855 15.220723927337863 10.636800801521836
Cr 9.732193017959263 10.601576766670677 15.093980180375047
Cr 11.326467154734265 14.234399825024974 12.283266093958485
Cr 11.376195389064806 12.314012504378743 15.471823569184778
Cr 8.587332583267196 14.44803386300739 12.192326175608528
Cr 8.346712208000708 12.061506056791568 13.116123055328906
Cr 10.171641073564155 13.817763552550534 14.189606751232969
Cr 8.496231063533555 12.405905451084067 15.404296570832127
