46
Energy = -357.06067082 eV
Cr 8.439357965829835 7.093919124091631 4.88557615390331
Cr 6.810025894825638 9.121329986542126 6.30217730300464
Cr 10.14723886630051 6.115547307817272 6.467193689662867
Cr 11.416623837125384 10.430875802245929 6.464899433541232
Cr 8.587720293682043 10.686615219233232 6.956759616659988
Cr 12.013635821024643 7.954325797032915 7.362772399444917
Cr 9.553763138067637 8.554350987640282 6.636263397051775
Cr 7.729176877397113 7.075816095663659 7.226076001433455
Cr 5.878638839368766 10.062666259398272 8.601660390387051
Cr 8.100568513598608 4.808674190993616 6.379253709918975
Cr 12.620625210516277 12.594406313542786 6.61848718186779
Cr 10.012190338726844 12.323842201079374 7.090707633229268
Cr 13.185580469565542 10.281593398100345 7.942294351720147
Cr 10.616638522561452 9.963623948580368 8.674578045808824
Cr 11.999400543999608 6.607599672323902 8.5610301634894
Cr 7.35833538180727 12.308801923349728 8.365694794874129
Cr 7.933529642469871 9.253728187722023 8.739050494073137
Cr 11.777159942377933 12.119176348174143 8.744123743439696
Cr 9.18010717908674 11.689649185593384 9.538400963492103
Cr 7.633900838754839 7.011201686393217 9.98351767270516
Cr 9.853152039561927 7.69350688893454 8.85476535598529
Cr 5.784606388101663 7.627625682376263 8.463603419723844
Cr 12.796057044255079 8.907218849761577 9.74768937310001
Cr 11.180827877753488 10.63156640013278 10.976180522779615
Cr 8.824117810450149 9.366095241661373 10.861276078068933
Cr 10.929624536325289 8.193515456040252 10.903139969957163
Cr 13.190487898349636 11.643502336155994 10.571052505137677
Cr 11.03310219429958 13.243362303606178 11.220605517922897
Cr 10.485870813150333 5.986371348096738 10.980853098916125
Cr 8.322609178112968 13.738975177179325 11.094474559037598
Cr 9.952336398294664 13.898817495569196 9.233687458482677
Cr 13.032220109080697 6.691253463704305 11.063004089094669
Cr 7.109597443305341 11.248023901229232 10.848247322050906
Cr 9.270099039112665 5.529735914138251 8.68878766045099
Cr 10.051590738186592 15.49166408299122 11.367666349466719
Cr 6.4323656077583795 8.63602144383859 10.880701695890622
Cr 12.760445686752096 9.31118109752297 12.378327514772307
Cr 9.321214371621526 11.508414796855162 12.110198760369396
Cr 8.668470657726239 7.254161703450426 12.080083884083876
Cr 11.667177679538279 11.77483614048455 13.04961880325766
Cr 9.635978762395364 13.649732709813888 13.219350129437144
Cr 11.123286040872493 7.074945292897671 13.20967652994759
Cr 7.4660357766683525 12.008820181761097 13.231470956107005
Cr 7.788150567215731 9.682634807827286 13.066676030618531
Cr 10.256023549665002 9.317430738069326 13.123574883031047
Cr 9.417993678710156 11.180502914733452 14.582430396952883
