49
Energy = -389.21161126 eV
Cr 14.940414410893062 10.742293794934156 11.47531298841622
Cr 13.376700844039776 10.37195486953975 9.899115153933986
Cr 14.541382884816626 12.637456394386833 10.178879747928702
Cr 14.034673311634336 8.443935237539375 11.660087022718669
Cr 13.303137160701526 11.922499743151048 7.901901924903959
Cr 14.40661989455764 8.291973440936234 9.463478845246941
Cr 13.250071099995719 13.848259212378478 8.384815583514285
Cr 13.234148060986513 12.807604129852342 11.985370465625628
Cr 13.652953018705857 10.985413220665427 13.536410052603786
Cr 12.89186545646523 6.445796625577132 10.854923639421072
Cr 12.301891856665879 10.18733054716721 11.93940252290889
Cr 12.333274274612613 9.43631954792847 8.017237868609921
Cr 12.666995810647647 14.8417297763233 10.725785674393226
Cr 11.923873149762757 7.570610861229704 12.95279441109075
Cr 11.979280048335873 12.375161623817855 10.001668630126769
Cr 12.856369528029864 6.88004576060014 8.380872379643812
Cr 11.783769263933047 13.824237872632981 6.852327022993179
Cr 10.888473967671285 5.65462480171462 9.956685451332524
Cr 12.041712916713925 14.399237245526308 13.418244866327585
Cr 11.440605398368943 12.209906579511951 13.771748376825544
Cr 11.389543574744133 9.630041297591923 14.208883064544233
Cr 9.891552822106187 11.360921013841079 12.025007543754823
Cr 10.037499466182839 8.894944950632262 11.99418800853842
Cr 10.941261728704566 14.455322842451535 9.00537677362843
Cr 9.418143560982113 7.758722761751205 14.101133752046605
Cr 9.352520196080953 12.574210601974164 9.910907532973969
Cr 10.772993510743863 10.440526061597257 9.798180223133421
Cr 11.669765557349866 8.169408587614141 10.25634190183766
Cr 10.385999343258291 6.293515251713475 12.083634551831748
Cr 9.267447387433581 13.913681214264392 7.664641238636827
Cr 10.298554958297565 9.68351383252194 7.759289881409031
Cr 9.29967829201321 10.598234429701629 14.526732356995621
Cr 11.089822385335394 12.082531167113851 7.722467663796074
Cr 10.294286203823749 7.495111994745483 8.418460907101602
Cr 10.645567745843666 13.80303803517777 11.67281574199057
Cr 7.6030259463174446 11.640892619227548 13.283420503761318
Cr 8.549187336865907 9.811605661161362 10.093521776509636
Cr 9.006395848046065 7.5224110157497766 10.470856615149662
Cr 9.412658424381439 13.277262777272034 13.749295632528662
Cr 8.42418942271063 11.403668735019746 8.298687773157454
Cr 7.86940318793392 9.550653778593224 12.548707502880685
Cr 9.183362359219966 15.061398964458233 10.389579486052208
Cr 7.920983769156076 7.21705774525968 12.508044449569525
Cr 7.394773730991921 11.629758333429502 10.949702149264251
Cr 6.9923219613931 13.484466101375267 9.38706598903174
Cr 8.049110736864664 13.69234181578239 11.704294057047344
Cr 7.7699807668534735 8.527663964377895 8.115043751738442
Cr 6.557292751952713 8.955510828691798 10.584729792009615
Cr 6.232391128466844 10.763118793088392 8.97985321210579
