42
Energy = -327.28295511 eV
Cr 8.76179154472575 10.860522802385834 4.560316895620391
Cr 11.064118336553136 9.443054440361927 5.1062710975117955
Cr 8.412931902332712 8.283468039066047 5.293639701811819
Cr 10.269066544940022 11.738877629671586 5.642024981580445
Cr 6.951560386919646 10.236160723133676 6.180122388929654
Cr 12.666441639638132 7.781906691742528 6.441423106907079
Cr 8.131812904409596 12.394901627600696 6.626061441238915
Cr 9.36210837927136 10.09319839257791 6.812557002834272
Cr 10.436514662496545 7.733694550393712 6.8732947531671265
Cr 11.871043236882581 9.965626413809394 7.369887880837478
Cr 6.292264158248768 7.360824564908481 6.224155830833992
Cr 8.733871626666328 6.098043127201724 6.816224274572687
Cr 8.046367366917451 8.324461763206422 7.612669182217206
Cr 11.230216675623879 5.618075236778395 7.693046069634478
Cr 5.894093823481518 9.05841716858443 8.01904107900894
Cr 5.952509256727175 11.794021375673047 7.941997087168523
Cr 10.312527815052498 11.926016565959445 8.034483436749722
Cr 7.683072338750912 10.863264335999567 8.674587702016664
Cr 7.897492272098749 13.540106070599174 8.740557525744967
Cr 9.946145808020326 9.389752735935653 9.247778047939612
Cr 11.883894718667774 7.871484286638372 8.765403030511072
Cr 9.241639014582052 4.631042602310524 9.31517521079704
Cr 5.641599910678618 7.730286593957141 10.418085569327067
Cr 11.710116520928263 5.482497123247278 9.592913555459399
Cr 6.828262264814335 6.473315425024469 8.586164250204172
Cr 7.5016963854334175 8.516147459117676 9.932016681678306
Cr 9.438680568184168 6.7438219503968 9.279095911906499
Cr 7.701066416372357 6.2917202540341615 11.203087589799456
Cr 9.804224686779675 11.972952828301972 10.338805620420775
Cr 7.325009847394768 12.693395645614526 10.535198157819234
Cr 12.050280718009601 10.374939381842417 9.824699317023331
Cr 6.875138160834401 8.65792282127425 12.419988871148792
Cr 10.388565111214291 5.908398221988432 11.606004294851644
Cr 5.8596463944866395 10.404796098110216 10.437049023678592
Cr 11.551171098589847 7.918891741291352 10.949757339837657
Cr 9.42522520032734 12.17241254159339 12.436739020415807
Cr 9.352103482788936 8.326493188112964 11.506522484343481
Cr 8.18659309029778 10.558998441849758 11.40688523558651
Cr 8.813137001091102 7.206161546004161 13.276740502943877
Cr 10.746422045711201 10.268902710139262 11.939397621160039
Cr 11.090084563527114 7.980571489347986 13.208850139006364
Cr 9.128036324020663 9.768997598705257 13.569825290247124
