49
Energy = -382.80941641 eV
Cr 16.092607120430262 10.660952898414946 9.383521513088098
Cr 14.074398155661276 14.978440043942523 8.332664043352226
Cr 14.192465592905286 12.64484050219905 8.550414625481181
Cr 11.310747706239765 9.981600901975026 11.21960433800675
Cr 11.848655488633337 12.096711495525176 9.745396649091623
Cr 13.700345415358516 10.168279292183225 10.105617771138341
Cr 16.77405510637713 12.271572304248412 9.93712112232558
Cr 15.383628868797187 14.56169539740281 10.220592067021977
Cr 10.113633715769861 13.533679406577154 10.682166705587328
Cr 14.417939166864997 12.328204365449839 10.78764139946108
Cr 12.68100632118831 14.350399051479345 10.073735255795086
Cr 16.47221166298832 13.646595864460664 12.362465968297013
Cr 15.333683499064016 8.524445053769236 10.671613277148277
Cr 12.232313270696075 12.518507779355367 12.068389844620853
Cr 15.748974767168727 10.612560720373722 12.057502490684955
Cr 9.971937325590067 11.174728805022147 11.686222321735185
Cr 11.246108007328878 14.754167515499462 12.345969945312216
Cr 15.764244527574855 16.404662806772627 12.319639217270495
Cr 13.126619488381944 16.54981989479685 12.22276682299618
Cr 10.111352155989717 13.049746722768804 13.488642181593967
Cr 13.913980718823028 14.551009862188113 11.988457170132106
Cr 13.250120684760642 18.809644167578707 14.386239758114648
Cr 13.709657499125099 8.390221207902893 12.33505583639138
Cr 13.341871374215312 10.51692357792078 12.560499228546144
Cr 16.824614730561503 13.818638744496184 14.698784379595393
Cr 16.965139593729226 16.191005645353183 13.70622697890477
Cr 12.52825125708955 8.54874050263798 14.626109733560726
Cr 9.927975377751483 15.630481134895172 14.127893013636374
Cr 11.217022130385331 10.352886762950218 13.924854345866532
Cr 9.060992304930975 14.134585231348076 15.214763165674563
Cr 14.730802550723247 15.007131451339507 14.248908440474185
Cr 14.591715917136678 17.55067506158816 14.464058959015176
Cr 14.638727781257522 12.66233421900087 13.439958209665352
Cr 12.538969961609705 12.036087834622101 14.760601798958985
Cr 12.446083628458238 14.209584299703495 14.387162439295375
Cr 15.840858122667393 16.040123070216577 16.19942204013505
Cr 12.235871931500466 16.517551698050557 14.653931606326964
Cr 16.194670413954572 11.572543288622127 14.71410687588556
Cr 14.268497148589535 10.135221660880118 14.641097387841572
Cr 12.306922359434735 10.301483785565706 16.596289960842782
Cr 14.509792612349887 13.330350970811836 15.938057101525992
Cr 10.513641885204684 12.38264150214027 16.04720238363156
Cr 11.514225958005962 17.455841501099943 16.35916260255907
Cr 12.177971926586956 13.433948290637622 16.96998914794878
Cr 13.864380718401527 11.206876833938468 16.955995834462627
Cr 13.562620315825528 15.718720963801552 16.516429493387278
Cr 11.0225378153853 15.040548054611202 16.441220149324444
Cr 13.925218832477896 17.966841597426548 16.96229198191963
Cr 12.297431334628074 16.193240505034932 18.39103666494835
