47
Energy = -370.39787882 eV
Cr 13.594841198807595 8.353501244615549 9.155699834412733
Cr 14.881453074838495 9.361271782910245 10.851086937076026
Cr 12.298881730781062 11.871438200019151 13.799187437254888
Cr 13.892732580150259 11.001238166193197 11.749570536568589
Cr 14.226510703143212 9.83104301962754 13.929054160984434
Cr 15.289651903711759 9.54571612768864 7.956037174241725
Cr 12.533817642541587 9.645797243074977 7.597054855565812
Cr 14.2149841037494 11.36029843423222 7.013154230461146
Cr 13.265091676689721 8.245733681102456 12.11497208866964
Cr 13.041637912688392 13.272127091790399 9.038008230741502
Cr 12.115374841216306 12.380467922877342 11.13913882669219
Cr 13.149430320860294 8.443042778352554 14.909718654966895
Cr 11.871514770808338 10.60377363702255 15.61566946477937
Cr 12.132696271005612 9.642490390065454 10.505147181166226
Cr 12.007659045425562 12.313650456235754 7.389835364582185
Cr 10.444270378605323 8.186831584458247 11.665933706633865
Cr 9.896701732621011 10.407187756006396 7.391028355140701
Cr 11.675649226200695 7.046969129451003 13.253885883143386
Cr 10.780184233523354 14.068050100937256 10.256309223306717
Cr 9.891010681503582 11.369087451888833 14.527726181734174
Cr 10.639304956729235 13.521000266228825 12.911829586516479
Cr 11.7224516794196 9.836769437499068 13.160322707074595
Cr 13.762408819387359 11.222850964799806 9.279837587502328
Cr 8.94763703548136 14.68521043534198 12.190715710827034
Cr 10.4451575488927 8.75512382931513 14.677035945344896
Cr 8.620557329214387 15.072781864290311 9.61129823853118
Cr 11.756095796371222 6.342050866542871 8.444623357884613
Cr 12.013689810897773 6.829336693020992 10.381635540895715
Cr 10.886111041355104 14.744407601272874 7.961558728536244
Cr 10.273550511779177 11.078139206780879 11.824823136603767
Cr 7.695467211526508 8.280595748413662 10.928176844098305
Cr 9.134377221432674 12.608675088675026 10.51294857842868
Cr 7.0840155770792546 15.892618317205853 10.630843894225738
Cr 8.245386231543458 12.136880519457488 13.323312735330113
Cr 8.849561196210535 9.516254826643364 12.82896340058798
Cr 9.541269503760889 13.255851722428345 7.958168979199468
Cr 9.205467823857257 9.771102743889914 10.050863400495903
Cr 9.43165971539256 6.974502798204924 9.748575060071877
Cr 11.05755283805925 11.380387521028737 9.13129069197976
Cr 10.796709736807388 8.580001335936384 8.77119969165817
Cr 6.658355442680245 13.023908792869328 9.790162606070373
Cr 7.523066161436531 10.965857234679007 11.355812365362809
Cr 6.844911895458578 13.490111761355093 11.785660657705902
Cr 8.139962797345536 11.262455152741929 8.699343224972377
Cr 6.600351445076057 10.006816555150891 9.597464933415075
Cr 8.218610704481089 8.596232232767932 7.9599707839465035
Cr 6.808308941781208 7.326453287237947 8.731436286940093
