48
Energy = -374.49156398 eV
Cr 14.71288182834266 7.765596768027201 13.92947473120234
Cr 14.051038615052676 9.087860926253482 15.260827936230761
Cr 14.646558996358136 10.589530492804347 13.169891137240269
Cr 14.310344819570277 9.0049725407898 11.610203895685496
Cr 12.041532419787359 7.209784473876531 14.778216178119635
Cr 12.92014654363503 6.65287800086541 12.130725018630566
Cr 14.958881124707453 11.573316980607956 10.7440199241867
Cr 12.468273803052258 8.854874955099648 13.142176843744727
Cr 12.375303353536985 10.932550590470404 14.060494599123402
Cr 11.524042067011212 9.348339840373711 15.626322745601971
Cr 13.440579435795545 13.02003812900086 12.394495740903503
Cr 10.65499590998842 6.925730774457874 12.50591186240908
Cr 12.806021252877756 10.944379908129067 11.38119401040842
Cr 13.098883935797058 7.42080763473411 9.802694114837665
Cr 13.375660810663167 9.801855951933717 9.196607939369699
Cr 10.11832449573826 8.909584909103563 14.004661675914512
Cr 13.154109681719204 14.03798929730129 9.751524366271331
Cr 10.91809356858249 6.3314373765991006 10.095351367936878
Cr 13.155073092915975 12.113884375504835 8.99229634569435
Cr 11.429013258819914 8.69786606422319 10.958193289453401
Cr 11.256344812468102 12.814026865024061 13.18031743584165
Cr 10.4479245736298 10.450986336632097 12.326232289819458
Cr 11.041733180665807 12.64192690220543 10.80151173285119
Cr 11.955970715930762 14.894326478329026 11.65045547418377
Cr 10.948921923790424 13.260101207226562 8.273488298507536
Cr 11.328666697196272 8.351833739887894 8.157989977415083
Cr 8.843389913941058 8.253691766235333 11.689157210207133
Cr 9.786628063886734 11.594088641287694 14.501736104997963
Cr 11.043904797566091 10.582785580753054 9.256149342950867
Cr 10.655519728543316 15.11887832231591 9.760854996442202
Cr 9.06365106739825 10.51559249519024 10.353839541504222
Cr 7.887847708722057 10.498292923181873 12.717283135596498
Cr 8.95284469216202 13.44582974012325 10.092889725861554
Cr 9.4902922418706 8.188798245462333 9.527156721495123
Cr 9.784573499437116 14.483969147157417 12.273246484752574
Cr 11.38788178983828 11.18694805545551 7.1139759121786
Cr 8.631472391938349 12.321625552926498 12.376529932610742
Cr 9.505206815437738 9.691142434084291 7.097033390684961
Cr 6.966897399026951 9.54120978109548 10.600508612025532
Cr 9.296070227504105 14.31926046807693 7.616736697936939
Cr 8.78240845297348 11.717841850924266 8.264000301682588
Cr 9.381924365911917 12.360215885471987 6.105406565294534
Cr 6.943611326676559 13.79089034050823 8.566842152564178
Cr 7.6862226271993555 9.237518506519303 8.386958428540353
Cr 6.979825668780015 11.990250834292459 10.48464939373682
Cr 7.576067788011671 10.780313847610456 6.092445053383515
Cr 6.985371651938828 13.193668037668878 6.607539873547174
Cr 6.491014547691656 11.118928407032351 8.212235157330031
