40
Energy = -314.55760246 eV
Cr 12.147346201963787 9.797556632345444 5.825740793516439
Cr 9.962204462103642 7.781832180286727 5.714408260435993
Cr 10.070161344929522 10.147187058302167 6.834607888650146
Cr 12.046854603860602 7.319676629947628 6.7923442192296255
Cr 11.996568304799887 11.943461700378435 7.731912197523016
Cr 9.648871139226895 12.295786198559906 7.6694081396798595
Cr 10.111081984333259 5.765667261191721 7.59684063996559
Cr 12.305391282181056 9.306131660307916 8.127681353441206
Cr 8.136517864946693 8.252211741093271 6.604126534659697
Cr 10.029302908463468 8.208362546293547 8.358871098618824
Cr 8.280517849013124 10.26526261583328 8.413611873835912
Cr 7.15869538374373 12.928155118651778 9.02183874569377
Cr 11.273793120741601 12.95471891608281 9.761077541355498
Cr 9.217914599978466 14.022849045657038 9.196404291841327
Cr 12.233516926658542 6.781091577060392 8.7971619622088
Cr 12.97881126710994 10.959750313406602 9.729229127821045
Cr 6.892777892050916 10.769366834561334 10.146515359665235
Cr 7.569071474947307 8.419336892332742 9.101677417648636
Cr 10.49804324941506 10.573433946821503 9.280385172733528
Cr 8.368790561406497 6.1096319192354525 8.322217529689569
Cr 8.162497173355307 6.799837689838917 10.838054247904882
Cr 6.7451735210610835 8.877465959405972 11.562157371655598
Cr 9.002969061051486 11.923605560070918 10.53866078872684
Cr 12.747464465553493 12.300762737202712 11.584963669200494
Cr 9.218683469076087 9.094163115237663 10.552780737053949
Cr 10.03332002433584 6.747219767397887 10.31298052483585
Cr 10.502376682630173 13.611635621231562 11.816809725625683
Cr 11.776009125088319 8.693188655093106 10.314192361628436
Cr 11.146609520580391 10.972404973813367 11.77478789654197
Cr 7.814146959621612 14.19502292706311 11.358932433615372
Cr 6.819393716187389 12.582987804232639 11.864570186269574
Cr 8.336472684858968 10.462081898036345 12.483177254484572
Cr 8.99710451916062 7.92382878502541 12.831450187844293
Cr 13.408983488892803 9.934984957597589 11.992764863604732
Cr 13.78339802546314 12.108114656543787 13.896358108660701
Cr 9.210007104510135 12.62724564387733 13.095782061429215
Cr 11.05939088921137 8.238050363951897 12.36393020523808
Cr 10.182658734297478 10.138538700987532 13.966330888825633
Cr 12.43587541911132 9.833262209870238 13.947215309603212
Cr 11.751946910752283 12.394841101844928 13.938754945709636
