40
Energy = -315.82599361 eV
Cr 13.066403895825143 10.796171930346418 14.753051221073003
Cr 14.858291756751008 10.227453371564414 10.669808094899162
Cr 13.973436031962413 11.600678585442786 12.495040783620764
Cr 13.717627372252485 14.290924128916819 12.542470629464283
Cr 13.450681737492294 13.033519923748717 14.744644646270759
Cr 13.641002071151439 12.695811370799367 10.134084926940734
Cr 13.139087356848734 10.474808914825497 8.373929265318125
Cr 12.749450848020015 8.266477702866139 10.212403630622708
Cr 13.367968941567403 9.177245382208667 12.662695179343176
Cr 11.216175829569716 8.93896778070072 8.589606556343755
Cr 11.084054303273417 15.17971548890881 12.018894814306902
Cr 10.926512377050654 12.501294606905246 14.93308935536539
Cr 12.317549353103697 10.640349862990284 10.607352314908557
Cr 11.839002392757088 12.582238758030824 12.382155660139743
Cr 11.412035416794824 13.402368470346788 10.340310325036839
Cr 12.32599422983061 12.599222987039319 7.961453125937037
Cr 11.512284323243328 14.718727427750519 13.980265530714936
Cr 11.966919086046921 10.35350437189414 6.403980071672101
Cr 11.640530160495654 7.88173130045646 12.589118819957427
Cr 11.200092055344582 10.526343880751886 13.151928770328913
Cr 9.686413004888909 11.54734139682114 10.91322609854661
Cr 8.818182785667826 11.01165168137556 13.759098837925759
Cr 10.49254425250186 11.179299563840551 8.806000085996486
Cr 10.726577579410552 6.883002901028911 10.18850722718154
Cr 9.556921582177017 13.185998345205112 12.919785008994884
Cr 10.461026065565363 12.228083292962438 6.334621991916094
Cr 10.243219709754557 9.188170097432655 11.084710118864361
Cr 9.08731389357793 8.82843729966057 13.03825475661479
Cr 9.042455359128063 14.058613957499537 10.698922147235004
Cr 9.54918578811632 13.439326497104204 8.408067341481972
Cr 9.866420734411937 9.407281771211256 6.655244040330733
Cr 9.557627469067224 6.6706929009287395 12.252950639955898
Cr 7.36651458107052 12.237007990899338 11.918110491882151
Cr 9.028819709370218 7.464519993426329 8.063483551967712
Cr 7.892639654823126 12.029468737554517 9.318715514865302
Cr 8.408582969538292 11.163295331276839 7.26746452774391
Cr 8.726140958370774 5.713233685612996 9.681870052671085
Cr 8.511290315963109 9.435927033836291 9.088433063091404
Cr 7.51972476155848 10.252551776662298 11.4886256552635
Cr 8.093127953435555 7.788668498241406 10.642467601978364
