42
Energy = -323.61880109 eV
Cr 8.683984404868553 10.91476090979828 5.991563640175141
Cr 9.696537741358936 8.519428335792222 6.998822875637874
Cr 9.76714983420407 13.338486948144245 6.74061367073045
Cr 10.791892223323398 10.931571271750414 7.293704693166997
Cr 7.378934131213826 9.544010390008294 7.471748264820344
Cr 13.3046733032456 11.269327830331715 8.753053898298454
Cr 7.723405401663263 7.81212718687994 9.105027195760538
Cr 8.383291544957679 12.139988916946786 7.942618686765019
Cr 11.772114929169184 13.605139081212718 7.7139309019919375
Cr 9.19421494559404 10.110516952768336 8.891082072656499
Cr 10.02481301320023 7.849904668084757 9.25320420196462
Cr 14.336486024904898 9.385471140053312 10.22261133620158
Cr 9.452672625730797 14.133149096460562 9.40321112469298
Cr 11.829511792757147 9.40874835473296 9.160729620697195
Cr 15.358099611181887 11.763489240235051 10.419192583285183
Cr 6.739771350897489 10.785046083697313 9.567442490228384
Cr 13.401211453411761 13.539313431358472 9.58279881698548
Cr 11.03067246105272 14.70421068140376 10.097552806430004
Cr 8.073286851426968 9.23045884415222 10.905549986585045
Cr 11.037507263614373 12.032558329820276 9.26518827955979
Cr 12.199159989491553 7.792150401941415 10.830870429052576
Cr 8.655335036515773 11.893438989046013 10.536909187416807
Cr 10.616009060622387 10.074671879771724 11.125388803885928
Cr 15.10200598850598 13.032320187913372 11.689323204831766
Cr 13.341816764009131 9.695770064102826 12.331379791658097
Cr 12.66414588926163 13.801612430734743 11.770790020662918
Cr 12.790075452366121 11.571180452405665 11.29031293144415
Cr 15.483247107455826 10.522452738331927 12.836139931643565
Cr 10.421426845280225 12.796548649182062 11.73223760619567
Cr 9.665107328674317 7.48926630658203 11.473789764829768
Cr 9.391125003330208 8.974965012098284 13.44778061731268
Cr 8.618004892552191 10.907211450657904 12.57003293408653
Cr 11.274207416708913 11.10209107908677 13.570768215990741
Cr 13.786430862358836 12.05872296607711 13.6324963262897
Cr 11.508474934421862 8.54447560273036 13.210800510021912
Cr 13.470371682220843 9.867734263776173 14.622907634836412
Cr 11.752688256094517 13.41673158959601 13.950575262254443
Cr 9.288263366776032 12.946534686284549 13.722755927766437
Cr 9.31143912437051 10.787877736456872 15.117268765827816
Cr 12.575397041097633 11.795735142863427 15.972119692795545
Cr 11.218029765057832 9.49642229273871 15.673637113858543
Cr 10.868514565722808 12.395885664663108 16.093575461376957
