43
Energy = -338.6826528 eV
Cr 13.235845008487816 11.111655939848093 9.513639533121168
Cr 13.420284653153615 13.673429719286316 11.363662683806622
Cr 13.77600890547501 9.163001337684438 7.691284373314668
Cr 14.289646270814538 8.88484118142387 10.07291878139074
Cr 11.981034576038413 13.222088054108914 9.120658279396828
Cr 14.59079108096657 11.338414811473687 11.45954988599207
Cr 11.79512095914695 10.889123267077983 7.622525204158952
Cr 13.701061952812712 11.6293070277674 13.117052914871772
Cr 10.881021542265207 13.66867366337985 11.184339009401933
Cr 11.926638166980426 11.658416633222878 11.463228896291989
Cr 12.201960175673626 8.502369955921894 6.883980214149825
Cr 13.042735956163586 7.006374898887488 8.849151224340805
Cr 11.78308019072652 9.094916640704865 9.311093598836889
Cr 11.564706291375758 13.28908689266164 13.50145329219023
Cr 9.474676871746336 13.74859659713192 8.95265676451732
Cr 13.606150108304403 7.053579969265822 11.398978076445996
Cr 10.593442191326348 11.375280213469397 9.456359343087831
Cr 14.36645173099312 9.05127439358934 13.146003184445814
Cr 12.699895141237809 9.502527102621768 11.696509148490279
Cr 9.227395250627971 11.870741953145181 7.477168787980628
Cr 9.929960569042318 9.393652535869174 7.680651719528088
Cr 11.737539328852568 10.368932551957686 13.791820993785686
Cr 8.464277890812324 14.672422796538322 10.487324776601364
Cr 10.254653324060287 9.737025137130809 11.523195875728609
Cr 10.387112336022403 7.270871322726202 8.120576271253043
Cr 7.636809555435943 10.745914359744361 6.993435656829662
Cr 8.741597757870924 12.15961297211685 10.973602270244621
Cr 9.847764319739774 11.587221733962291 12.966434419333062
Cr 11.657922441173636 7.815759989122779 13.158326539379036
Cr 8.288403469326926 10.298251267346178 9.418651953199818
Cr 7.164570408143676 12.58394855105195 9.005254309351301
Cr 8.893664671812274 13.95264442902322 12.917953635798558
Cr 11.379366135688382 7.328455107474504 10.830350383112597
Cr 9.218306809763984 8.193233568407237 9.997244924636124
Cr 6.068289305297458 10.264673259842093 8.869627849038256
Cr 9.757047969153716 9.069354943157961 13.809997151394882
Cr 8.029777170187073 9.790545071720869 12.042927754606986
Cr 6.7306755506943015 13.068428280917821 11.530550532807807
Cr 7.614325673235058 8.273416803843096 7.851595171203791
Cr 8.969491570863386 7.434285440493618 12.259762695370911
Cr 7.647144355008522 11.632590947791606 13.166264969734929
Cr 6.216286852505857 10.982291178765372 10.96321552228263
Cr 6.880173955957508 8.306249500836026 10.463562622583023
