48
Energy = -381.62967769 eV
Cr 12.946958115450718 10.293802826759045 5.944164266042308
Cr 10.698741684057733 12.012615528572848 6.497548273077403
Cr 10.343577081152077 9.099878221010869 7.239971999042415
Cr 13.079667793260214 12.479261731174299 6.487542367989927
Cr 13.043775591645193 8.286119599988497 7.876838305564341
Cr 11.231281675658074 8.183698393281386 9.452478279431185
Cr 9.013158636263205 11.00530141531382 7.997433341430399
Cr 14.551848320558143 10.493704705990327 7.858448605188478
Cr 11.811416638486977 10.670973454902626 7.995642117660586
Cr 11.713218385591983 14.30878049230307 7.715177218200418
Cr 8.757509567894017 13.624095679616763 7.754323084635666
Cr 9.30848193267122 8.930335638468655 11.492781459037044
Cr 13.1757938604474 7.428049084195239 10.600224129201482
Cr 14.560112440925872 8.90798738234654 11.4869432767245
Cr 8.397981785031428 9.012919858996996 9.174054211465409
Cr 8.35248587541335 7.823911994973826 13.286839286288547
Cr 13.32476270000987 12.484090252234743 8.750977882837413
Cr 11.998776295907177 9.27532876728591 11.794930308797618
Cr 10.532413374343816 10.277781241295102 9.880125515985497
Cr 10.535817558086322 12.918583488879054 8.96732734071715
Cr 8.786346366354225 11.504352585638816 10.899436744207206
Cr 13.3304266344112 9.901083512106908 9.886490315582261
Cr 7.122564425257403 11.820664261184456 9.23448890470467
Cr 10.73013892298786 7.093819159087688 11.882348508912289
Cr 8.449387546128348 10.495091691376425 13.392175373865776
Cr 10.657432121196894 6.856146612648117 14.79956942821702
Cr 11.973663389149106 11.833597684376379 10.687432140365802
Cr 10.681305736721399 9.011201523618736 13.788655564731545
Cr 14.574176513726552 11.828992528179874 10.610977892916676
Cr 12.753003025402704 7.122613963399381 13.183598004974325
Cr 8.180561962136112 13.945428887280453 10.122089235898112
Cr 13.528916319282517 10.884364576698992 12.348801860836165
Cr 7.088683819882187 12.61455596339367 12.0593150472371
Cr 7.051604190845953 9.78723065548991 11.371583786674329
Cr 10.385170060013007 13.547592368077213 11.530534454046581
Cr 9.064707373211935 9.180991044321742 15.306506663617808
Cr 12.515992390313054 14.280486391967035 10.187764771025956
Cr 10.126724895654018 15.258993252206478 9.779325754038219
Cr 10.729401282740238 11.171042944670251 12.570579899357499
Cr 13.42671892809492 8.952930335235108 14.049253639230058
Cr 12.764722789599766 13.216295325582227 12.63624067970429
Cr 11.662559628992266 9.190508507307081 16.12505856158234
Cr 8.879759066591257 12.691614022454969 13.539865395645931
Cr 11.651722284601457 15.433559185200988 12.028773719557156
Cr 8.744728577009111 14.883338306174686 12.326918229311786
Cr 12.259139002587414 11.120203468478996 14.464352706827604
Cr 10.233484173009874 11.317899851269436 15.190268432250862
Cr 11.186627024890743 13.541529717144329 13.95772100817103
