45
Energy = -354.81115188 eV
Cr 8.926754276314602 11.683662455945957 14.857815804259427
Cr 10.308663223652097 12.829846903452976 13.579781130621088
Cr 11.255891947002679 10.998794216858762 15.462052820934769
Cr 9.336015280162538 9.412252199319886 16.07687742689165
Cr 8.67326588655456 14.735292474737179 9.467593711928377
Cr 12.375921998114022 11.977639751577133 13.392179222976045
Cr 9.38565622842856 13.063380776331766 11.39951655235541
Cr 11.881299650450144 13.746096884912959 11.607346125270805
Cr 8.610932405887926 10.861583826237549 12.61551991012571
Cr 8.022140603529639 9.081646717868075 14.521237144768193
Cr 11.28262524442449 14.223991893694821 9.24684018536807
Cr 7.301801655327692 12.373247247693783 10.488970941417168
Cr 10.539576985718792 9.946747650811254 13.562670759809661
Cr 10.891233397906824 11.401413475678009 11.461217794277376
Cr 13.917663403227735 14.043999327556852 10.096340363497294
Cr 13.350425822944265 9.92563806853825 13.87237319582785
Cr 10.09771709634599 14.15094321578139 7.175841655379703
Cr 7.516824726744043 13.740383242062894 8.076267565872717
Cr 11.706551969983659 8.575038593374416 15.471252543801794
Cr 6.882578981710068 9.596126998657196 10.668627964227007
Cr 10.081233979994249 7.662977221267683 14.073438062936233
Cr 13.935648415713665 11.758844234606075 11.523608264078193
Cr 7.185401545186509 11.301554839698467 8.66953675306796
Cr 8.38294061323703 8.377789996963749 12.111304168012634
Cr 9.626391592164396 12.377775643711196 9.176513082098126
Cr 8.930482845701475 10.32662671263719 10.195998904197888
Cr 12.807895373739722 13.529173461308229 7.677947846976184
Cr 12.364058167175235 11.980986102792563 9.7531925967151
Cr 14.842617677200725 12.52553413377766 9.117875524585028
Cr 10.450629663853196 8.695128365303267 11.499741089450298
Cr 12.608820977527431 9.969853097971603 11.624244785763278
Cr 11.108212318962714 11.893870514928151 7.579480569860747
Cr 8.880010138273907 12.317086876074905 6.656978114716985
Cr 12.529165788519117 7.776451609838515 13.089756238418104
Cr 11.32891241538217 9.748482743634689 9.212586424821101
Cr 11.236039189215484 6.418004594530775 12.12737603358223
Cr 8.957671834555901 8.177191557276116 9.453655194210507
Cr 13.969564925193922 9.970430428899633 9.450463708649869
Cr 9.052457033282996 10.278652181670243 7.67748361844625
Cr 13.454409813899035 10.792420636192317 7.712335673454561
Cr 12.93594802218817 7.814503160712975 10.418942404418457
Cr 11.418284917445778 9.69786983216714 6.548447293315376
Cr 11.185015740809366 7.108489949323431 9.560089941947224
Cr 10.42949152356316 8.103941967340852 7.341383235312397
Cr 13.072539304271006 8.125664085958652 7.809841265464875
