49
Energy = -388.78232387 eV
Cr 7.375827973641396 10.010094843948533 13.038294457003845
Cr 9.039494470386474 8.435018743038398 12.818132753090525
Cr 8.96540454790073 9.857418530433476 15.302178554495166
Cr 7.2653163906562535 11.489316646078287 11.4000798605277
Cr 7.528847622922605 9.07428671452179 10.560201705220255
Cr 9.055555136637409 7.5390213018499335 10.51990013335436
Cr 7.865267036538717 8.39808310100614 8.062462012537134
Cr 8.282298979675625 11.180220742799502 9.040179901950166
Cr 10.713295663845322 7.999006768147041 14.739603912475507
Cr 9.022784159117068 11.698965442341812 13.109141535176708
Cr 8.225712561420453 13.391780826649912 10.161931202809479
Cr 11.004160852767278 9.849121773761015 13.661186990628623
Cr 11.46576801122186 9.999197873244889 16.27503429445606
Cr 11.15949270601762 8.75085604343424 11.48556020051066
Cr 7.658155601246057 13.011215225028687 12.38545715449434
Cr 10.47902684342647 11.87420387142198 14.933774459213689
Cr 9.417847087770923 10.378513870543054 11.255235815156512
Cr 12.702493204665954 7.82317281446096 13.295694862808249
Cr 9.860245628961458 9.434226978359135 9.04107580809407
Cr 9.68502003286207 6.969380512212753 8.098149818200753
Cr 11.582853203727591 7.589353109901429 9.635411774795024
Cr 10.563848392350053 6.637870499154082 12.25184956900807
Cr 8.587968785500026 10.04937709768258 6.6615029454683885
Cr 9.663550325779951 14.321604635060636 13.667247288846758
Cr 11.828986188497927 13.79242182258641 13.8703715093608
Cr 10.394032783936995 12.044016850196936 9.526152196460245
Cr 10.055823035553718 8.585818228199102 6.444642277594614
Cr 13.606957095522256 8.534392483782163 10.435158435286267
Cr 13.128530920015303 9.136977215899106 15.091480643108717
Cr 11.703781044815594 11.686780256897098 11.98477276702772
Cr 9.101149959481482 12.881790770527141 7.419709017618028
Cr 12.871877167233384 11.582904632451383 14.561531738514777
Cr 12.367314851002535 14.58772642278057 11.803401591473252
Cr 12.020925070808174 10.360341496732485 9.867979978299086
Cr 10.758488800244468 10.898857983135546 7.502259430850592
Cr 13.28626895165976 9.907900218613605 12.494212742509925
Cr 12.369217716876806 8.963580314392628 7.930126354578109
Cr 10.605853316130466 14.696385742116286 9.528260052819927
Cr 10.040399221560225 13.344797160636652 11.500904545060353
Cr 12.567417784896483 12.963469224531861 10.097452527771086
Cr 13.786316765087241 12.454505592973005 12.736683027785494
Cr 14.396588577061475 9.91741812053685 8.574460282059293
Cr 11.50806478290414 13.668449634815833 7.753181262849233
Cr 12.90143566065887 11.617309019428573 8.059893798295397
Cr 14.175069278549339 11.34026383104478 10.592088716282563
Cr 13.009521495101065 15.531714337925923 9.41326965983879
Cr 14.841596896976197 14.091650093323764 10.970148818215568
Cr 14.195505916465631 13.946129443343795 8.482262671384825
Cr 15.377471642803101 15.981205458282876 10.342192358255081
