47
Energy = -374.53773173 eV
Cr 10.151529325186624 16.679840641346264 10.833087249840652
Cr 15.37726932413497 8.482341289105133 11.770486434037524
Cr 15.008791690556375 9.147970029309802 9.880633591641242
Cr 12.95885909412557 9.20994316284473 11.362409538809164
Cr 10.980453836062356 10.350507244072412 10.663155411905887
Cr 11.665494851019202 17.027506612404004 12.16290877835601
Cr 11.634218115216273 10.548555945647465 13.430522793804876
Cr 8.518592057094475 13.858910282611333 8.790187748794954
Cr 7.771797502844851 10.277765971007797 14.07625251123464
Cr 12.88010674350077 7.1157264911550975 12.860607028353558
Cr 12.237454259293498 14.112863596162446 7.564941997190686
Cr 12.340803267392587 12.038813922756258 11.677961115342631
Cr 12.558164260436037 9.150202296659971 8.802008602626579
Cr 13.670970271625377 9.508140647313551 13.414506954027935
Cr 7.2196376070175985 10.203526280701203 11.175067505725762
Cr 10.105410817977626 14.740669723325043 13.349888556114323
Cr 13.95972411717698 16.03507398889791 11.126642180326975
Cr 10.026836336066081 12.515672759182756 12.089468450592372
Cr 11.971109019645747 7.909712968454257 14.548827617736926
Cr 9.96651829544953 9.107145817884042 14.499882340464294
Cr 13.28912840888455 13.779930030969792 9.719856225587082
Cr 14.917083273252091 11.08414181813223 11.725140616843813
Cr 9.20257784366454 14.314999420829023 10.84639491653579
Cr 11.683796509120572 14.626576996856649 11.410469925149716
Cr 11.097133686044549 7.911823235119404 9.541096973133662
Cr 10.195096679065232 6.345029322663348 13.654633158204867
Cr 10.534112574479833 8.222204756187109 12.237289612756006
Cr 10.19583429558228 10.31619343955942 8.205233567522663
Cr 9.313327147669161 10.378994140178147 12.27937411564664
Cr 11.808542020523317 13.255364177739184 13.807649474565002
Cr 9.461670072303146 6.492265265349805 10.853482307092053
Cr 9.775344859973973 11.932334237938694 14.439510049921607
Cr 12.288145814240991 11.60798370045918 7.902057647550342
Cr 8.993177811145026 8.985403048507415 10.073932465514842
Cr 13.134848769720273 15.12896110930221 13.416201838721816
Cr 12.7459613991039 16.42648189522132 9.667082562889242
Cr 13.614340626521393 11.295662137662395 9.812355207436273
Cr 9.954717184513568 12.789203219834626 7.34842253408286
Cr 14.164949157283708 13.457813789731347 12.09877716744503
Cr 11.010998999095584 12.681247706804125 9.574102614706337
Cr 10.696359290383732 14.999027125878959 8.851474823079384
Cr 8.025909430141825 8.173283229851835 12.654111639213754
Cr 8.863081253448154 11.681033223819645 9.916864611087064
Cr 11.344819944067138 5.785331898920866 11.338174082015048
Cr 13.334244664368576 7.031996299687556 10.342901972918487
Cr 13.765476778571927 12.093276683011243 14.065220772429237
Cr 7.6454248153943 12.427369033558326 12.40400801797029
