41
Energy = -320.08697737 eV
Cr 12.10878242261729 5.802241365803726 12.896101246237757
Cr 11.496847037682187 7.365047933933028 10.642059621167084
Cr 8.59319933500866 8.220397836501252 10.894217907384377
Cr 10.09362674336562 7.180418332321509 12.601116632089614
Cr 11.544033064802479 9.373049185680895 8.90755677055469
Cr 11.375901438985622 8.37433907710074 14.013314864877238
Cr 12.83947081233982 7.959275896159439 12.326008179581844
Cr 13.175362859490484 9.855211411425664 10.584197139875366
Cr 12.567477292274026 9.592287020005033 6.696534299069545
Cr 9.960344576317853 9.948744774940737 6.763797788606634
Cr 10.810407657703188 9.331951135105468 11.472896781943835
Cr 8.414820789663429 10.737488106120999 11.165185118970705
Cr 9.092444072664406 10.157134384574244 9.097630683848651
Cr 13.98472744656152 10.148179131130693 8.064190516974147
Cr 8.925787295838633 9.367239283001465 13.270254081216825
Cr 9.79759863264564 8.045121203616269 8.872453819059894
Cr 7.388499340955615 10.793473559076272 7.262960573742049
Cr 10.140035520807757 10.508522603226794 14.578139963543547
Cr 12.47153360564355 10.402249700220422 13.333429186820343
Cr 14.577219853258873 10.010267738641645 12.554289370163174
Cr 10.929593863939385 11.401991655136753 9.805346930046568
Cr 12.777201282635536 11.889757063265144 11.617871038070344
Cr 9.263331030633147 12.82070672280244 14.65893100549411
Cr 9.518484752315521 12.356889999658518 7.860094585630366
Cr 10.198202200744031 11.584066104375772 12.437792874477209
Cr 7.75852560051295 11.412978883542799 13.608281468523538
Cr 11.799821251406275 11.797193648468541 7.597442065118205
Cr 15.085537349750123 11.048345887469553 10.065864405364332
Cr 6.969737360172349 11.742811736846905 9.096534964614454
Cr 11.39745498901806 12.942478931814623 13.85425473370297
Cr 13.830802321548692 12.360192830365486 14.016902710328306
Cr 11.370473163139318 14.004322592982684 8.889439045537822
Cr 14.99955842014308 12.668763127594689 11.831180505385408
Cr 13.239025107539952 12.411117686724511 9.340456840092532
Cr 9.0723938113716 12.90934234361874 10.077886417557757
Cr 11.311056360094563 13.725170871114146 11.130287320819843
Cr 10.885119724042898 14.97385113985736 13.085729914323952
Cr 13.633443150240813 14.365572815871579 10.711302330926731
Cr 6.899147055238745 12.443335044629228 11.690216760069593
Cr 8.963990948600083 13.48151212201679 12.458356480600358
Cr 13.258240341856531 14.48580320319853 12.813486041176771
