41
Energy = -236.05678368 eV
Cr 10.993431336204088 10.740250394924916 13.084438941260288
Cr 10.073394989590193 7.127871942629721 10.26706458156768
Cr 13.275830552830753 11.010321884365364 12.616101636632012
Cr 10.131778869329137 11.460081671485751 10.62360079123656
Cr 11.094757898994478 11.8031065882494 6.367936906160737
Cr 10.610867878426621 7.45163221094148 7.925699399535264
Cr 8.266727851643717 8.38283510188385 13.977626702470735
Cr 9.359434297181709 10.556835898015192 14.720801539617813
Cr 8.026729231194922 6.967405702054868 11.606717729691653
Cr 12.626966487025424 8.322469269122925 7.143258483321356
Cr 10.448057800265465 8.591541235130588 13.91553390343734
Cr 11.661688323532061 7.666152905892714 11.952125301425223
Cr 10.474205679069549 13.980312755426072 10.612833758915995
Cr 8.550514014848192 12.551121869943813 6.544253002009448
Cr 7.583617539201637 10.477244020510646 8.154064788126158
Cr 9.68453193151911 11.255982664885892 8.098995096653896
Cr 13.256679828215166 11.407819637878488 10.018495447670796
Cr 13.070503075616042 12.448466338477465 7.540265553047297
Cr 7.964725466105799 8.265910262787271 9.710442970698276
Cr 8.016598305144026 10.682948313771169 10.344010493273785
Cr 12.66357870412522 9.026672478701283 13.524408680844271
Cr 10.29367747474474 12.953444168517684 12.965737142037051
Cr 9.555218814611361 8.97916267349083 11.779878160759045
Cr 8.558391311289187 13.119620498563897 11.500500032882009
Cr 12.140067610674715 8.258557714694229 9.41134911082458
Cr 13.028661341085547 10.48409067537242 6.365848536670966
Cr 11.939843759731643 9.81526886108275 11.126435565418598
Cr 10.014190946783536 9.342067021866184 9.29874252092443
Cr 11.443564457547378 12.646689793055835 9.124018912927138
Cr 12.058743587454755 10.400882264083428 8.407649870506697
Cr 10.235835181300299 13.70146295475185 7.479717584872405
Cr 8.838998967893529 10.401872489905116 5.9777039574039375
Cr 9.803373879828222 6.627337668519273 12.80393380023117
Cr 8.62105980147902 11.178080654309205 12.674598428556711
Cr 7.137666808749047 10.343846467089545 14.197565403434908
Cr 7.247414976452576 9.15167404846691 12.067010352977748
Cr 8.70455749862883 6.421854132652614 8.623625103032232
Cr 8.6025646452623 8.535976829580246 7.4334227999890485
Cr 10.727005662068619 9.437027643825939 6.674436803660042
Cr 12.010173645895197 12.56666871545491 11.56810975129248
Cr 8.618689475852301 12.871751485035048 9.185360361397114
