40
Energy = -312.49300509 eV
Cr 8.487131524096277 9.774696215358336 4.924699301440872
Cr 10.563987438024231 10.945660560760896 4.604102946934522
Cr 8.776848901608174 12.475556050920858 5.055201936939011
Cr 6.156114736861808 8.46361733710635 6.028843257746327
Cr 8.634400268052017 7.080810837599247 5.799576483763571
Cr 6.701315021286324 11.112195269696059 6.685602474701399
Cr 10.287430384138101 8.774929851132274 6.129704974141248
Cr 9.18517376231461 11.35660154859403 6.676307179906697
Cr 11.29640969933525 6.563943558116334 6.585190306453158
Cr 10.21247284072104 12.05077691017212 9.149145373583272
Cr 7.799037676484048 9.001937145371679 7.158489188707868
Cr 8.00482382176718 13.158969153230329 7.910057123339656
Cr 7.059506808704878 6.826524294872239 8.187449413949738
Cr 11.718728270153642 10.406329125593436 7.2151289294663465
Cr 9.186686520788259 5.376885813917885 7.814037735658385
Cr 5.872282239278256 9.46819487689362 8.828728185734608
Cr 9.595853621275143 7.3371184502874955 8.184273791355778
Cr 11.358500820598033 5.892875554040674 9.32877121507321
Cr 12.049171282652223 8.051052201486595 8.250741485584372
Cr 9.99366332959922 9.686859162938369 8.560168142266972
Cr 7.89648709578293 10.944762976281995 9.007222057743695
Cr 11.892833526356688 10.128819216275303 9.972023096183696
Cr 6.086832826241772 11.90946667494387 8.977335724391825
Cr 8.024248273488093 8.496920207265251 9.740424225598906
Cr 10.643511264448835 7.991453311790666 10.475142456686054
Cr 12.95648895215887 7.895283627306708 10.402933986840855
Cr 8.705332918334998 6.218008985729174 10.296408526164562
Cr 13.770501840694008 9.661258815948733 9.12399035880373
Cr 9.402984636633448 10.42096064656871 10.946224570876359
Cr 10.888102244074142 11.732913608146978 11.414841629008611
Cr 8.002647621984874 12.301533760784409 10.81010389282015
Cr 6.375549264934344 7.72350708648336 11.18470744873496
Cr 6.844813444756296 10.274830765839937 11.237922488885095
Cr 10.489711435878116 6.517119953308497 12.265817385140492
Cr 11.096476662375302 9.315999456783773 12.539345326824305
Cr 8.697569990984466 8.306902605002353 11.994645302007875
Cr 8.177793270957864 6.265479997298256 12.797860717981937
Cr 8.317674339698463 10.494046068929027 13.091354002896065
Cr 7.072150903802713 8.720014163121851 13.56754809919727
Cr 8.834709497035602 7.991143132462315 14.193888234827465
