47
Energy = -372.37930185 eV
Cr 10.3142065706257 8.231669331591716 4.814842275602746
Cr 7.6570327118153765 8.843427035859994 4.133635627879516
Cr 8.245286397688895 6.184183908116955 5.653826120660479
Cr 9.271530006438418 10.574056819979882 5.177837446474699
Cr 12.250607321884779 8.129016922149003 6.253597164474181
Cr 12.012079341127698 10.513213238924925 5.3097036045564
Cr 7.84327450918752 12.452541628838329 6.894952370251748
Cr 6.896332092429067 10.343983385076584 6.200529554599398
Cr 8.376719405851022 8.376653508901576 6.32287266083679
Cr 10.343960164369081 6.8931218505407355 7.292561017615636
Cr 5.9328528769761135 7.579573688108731 6.440926801978872
Cr 6.160903082490537 4.984046991137352 7.40083752229257
Cr 10.176967917826081 12.300146650102866 6.403030496109019
Cr 10.626611174484351 9.577429455768328 7.079263698943214
Cr 13.24374238493912 9.544257790362021 7.756124186093039
Cr 7.94301835604218 6.370205573564379 8.023378246926432
Cr 6.320710846350851 11.275387512075818 8.70312858347706
Cr 8.1267575296499 12.75439077674303 9.567489735107662
Cr 9.854666613810954 12.793981253043679 9.033748328522345
Cr 4.996292269001395 9.479130439018714 7.715384702302095
Cr 7.010955037999043 8.832128154562787 8.358139308821283
Cr 8.73090306691101 10.641599571368689 7.939948463935237
Cr 11.66910875703542 11.370565723848813 8.0333329978559
Cr 7.830972787386019 10.169521205728554 10.380105316514289
Cr 13.234261137836041 9.985867130805481 10.16943209276967
Cr 9.215913440732903 8.533117428553613 8.860931991289885
Cr 11.645586711418675 7.9733915957376835 9.106178257507576
Cr 5.422334811282653 6.837247357248824 8.944669303343053
Cr 7.527301817302339 7.486709625109291 10.535067020323245
Cr 10.748961959799837 10.190528168529532 9.756620922640817
Cr 12.18710403078897 12.240663829247659 10.50316322254221
Cr 13.963609159519976 7.78635901723518 9.68870311060745
Cr 9.598377148815723 11.583584469026926 11.433945619098216
Cr 9.744691698498782 6.5071687195740715 9.958682869508827
Cr 5.508894617336635 9.12013566188004 10.356348551381712
Cr 6.702694856248888 11.51613106563004 11.632966028240002
Cr 7.109007253072756 5.26371334359535 9.926599506813552
Cr 10.07837477690326 6.389017094310726 12.654338287432001
Cr 9.80139085034579 8.63593660127878 11.337872962163473
Cr 8.76330524361033 10.466547545654299 12.907149013801655
Cr 11.999385565102628 8.276817288280625 11.477292809359826
Cr 5.796166609665238 6.724976760861047 11.853678583718795
Cr 11.470350229848508 10.577238750275663 12.2585080944778
Cr 8.533872741008862 5.60494726756785 12.209095683992302
Cr 6.540692690216185 9.032270997561035 12.605636717772061
Cr 10.457084255673008 8.91761109761933 13.653829653952828
Cr 7.989610479354326 8.010250075706342 13.154556772136228
