48
Energy = -382.11092584 eV
Cr 8.008747181113067 7.705428367397121 8.294839152538543
Cr 7.7192424195939084 8.00756307319479 10.751568240471961
Cr 7.482521446340772 10.093911470388125 9.154120067039136
Cr 8.785460126687422 10.239641946261075 7.425882769912343
Cr 9.72766253498966 7.78244860951431 7.377419526454556
Cr 9.945397459108202 6.621680937700122 9.949492084278448
Cr 6.28513766200228 9.983725526501365 11.383783099093334
Cr 7.923047297560944 8.909085200768375 13.37623788763595
Cr 7.733549570364886 12.690707605023547 8.08674745129556
Cr 9.834222006109648 9.043877628145365 9.605243592351187
Cr 9.576789568922306 7.596281046753302 12.060985562275487
Cr 11.007850540491043 10.024892200761622 7.841848310478554
Cr 10.488381257599354 12.56705750580852 7.106025966706346
Cr 12.092216582727307 7.540693029138717 8.595586822964952
Cr 6.626858446863505 11.307586624579356 12.833922574735716
Cr 7.607225252307144 12.175689974219372 10.563576163896425
Cr 9.64322780876176 11.769891711352889 9.32671959170632
Cr 8.779789934242661 10.523641264666395 11.453940509374762
Cr 11.967568683852877 7.873013642352062 10.881869650218764
Cr 8.996240029456043 10.98458595400104 13.945901346768128
Cr 9.656467164333215 14.19483880788283 7.798777053491006
Cr 12.84850348409424 11.944290759390576 8.408448997043575
Cr 11.457479931786324 10.612659838179502 10.418786494133075
Cr 9.943301581079451 8.485051314981197 14.705234881041799
Cr 11.20119718372644 13.379205927969243 9.835943678772175
Cr 8.364211086217242 13.265297702692884 12.68884991643425
Cr 10.620490786484583 9.626329924984768 12.454707063557978
Cr 12.400150096646835 14.427687228332289 8.047175335733167
Cr 13.041892619083622 9.640199329371997 8.92768376018015
Cr 8.997998174613715 14.23961389155638 10.335471671246829
Cr 13.607903670318713 9.855450060291462 11.608033447949392
Cr 14.258342616535607 7.9650974019260445 10.335869473879939
Cr 13.097994457991682 12.336584507547895 11.033509867078656
Cr 14.90576911545153 10.979514661125455 9.97931969827188
Cr 11.210999189161544 10.142578502460797 15.102467859488774
Cr 10.407835203084662 12.42568649924504 11.959081567758581
Cr 12.305443394087558 8.410322442872564 13.334065112649949
Cr 14.182727803758011 13.938493266164638 9.763684500293168
Cr 14.471826041967029 7.7909751228626085 12.95157071740934
Cr 10.732693925454155 15.940738995212957 9.409721406961353
Cr 10.663065369270317 12.754718013406006 14.375433995605642
Cr 12.588157232866601 15.142846455242418 10.982258745768847
Cr 10.560301241064854 14.790546540246961 12.127036946965598
Cr 15.869853724763914 9.421632767636186 12.209202323524387
Cr 12.31408848488682 11.162904211795047 13.34131244647499
Cr 14.804917204488358 11.722821369398925 12.616561325599692
Cr 14.1280512104287 10.128211226437253 14.116775394900626
Cr 12.91439181122955 13.52413283567516 12.900490383578553
