42
Energy = -329.8005087 eV
Cr 14.412764441879942 13.407403291798554 12.289538386207413
Cr 11.85706843186239 14.259316825570304 12.479603771328257
Cr 8.106578927816004 12.855876692000413 11.832148097494361
Cr 13.246888000712213 12.240423112441448 13.869587944759381
Cr 14.767526595588697 12.774458494484286 10.046437541880099
Cr 10.27367415333498 13.34905685443207 11.022007145291903
Cr 8.550244924216555 11.53524651534852 14.1266866592636
Cr 12.754288368050668 14.224777863168372 10.331456827327617
Cr 11.006480357321411 11.960741809122199 13.322007668286851
Cr 8.819566348350723 11.416551399956912 9.507787695626382
Cr 14.884199568858469 10.781936543882713 12.07623616866148
Cr 7.249373797243215 10.951397607467555 11.372012848551307
Cr 11.077504742726786 12.956169369942524 8.992489696584297
Cr 12.359345132157586 11.906252620170083 11.305967875242464
Cr 12.860308669115083 9.973871207289735 12.969704731279233
Cr 6.530982849958328 11.40793348875171 13.718312427051504
Cr 9.826077509280989 10.962963854193003 11.741400041298029
Cr 10.327163272235476 9.411065122459723 13.758855145275596
Cr 13.128034645389056 14.361676963914284 7.854971086055954
Cr 13.164141989256608 12.111802867002952 8.555989108568154
Cr 13.940574619016449 8.07238850955827 11.400649581246778
Cr 11.416156512789488 12.526803320871212 6.578521580788639
Cr 8.0945550152305 9.311839226022252 12.744806051451464
Cr 11.174833456762766 10.634757944013133 9.536060049420264
Cr 13.703386844391403 10.25370838306739 10.223953128546201
Cr 8.828960905942361 13.360434691648734 8.355829223809321
Cr 11.946180339159747 7.219147764648344 12.600707717053366
Cr 6.439706580225048 11.892093550449554 9.175651579820649
Cr 12.687175442320473 10.097560693333323 7.592212245902146
Cr 9.615060367126185 7.3317405778928375 12.226290366418402
Cr 11.508451285344197 9.186302553466364 11.178602567557006
Cr 12.668345017902997 8.151724076178896 9.21680072845372
Cr 6.9532306393639365 9.156865997477459 9.731286936723798
Cr 9.966483450222766 11.110971732340028 7.203656843082154
Cr 9.432971032185495 5.403903419428036 11.283572883725336
Cr 7.3925424639867385 7.4049046626467545 11.50799151679376
Cr 7.3812843112036255 11.621944702226576 7.219091899349008
Cr 10.602265475830055 8.536360351536176 8.507413778648672
Cr 11.286142976095695 6.694827437373111 10.318311013859914
Cr 8.164343424120403 9.441877179618144 8.08868221904527
Cr 9.250366496718838 8.98353255247837 10.535605793222663
Cr 8.616924025997244 7.029541577619276 9.87325483634111
