49
Energy = -389.70013511 eV
Cr 12.538149890364528 15.61697055234819 13.774004861320792
Cr 14.083214774368045 13.751895192620474 13.380505569818453
Cr 10.68935251616306 15.493923666072495 12.89199989730596
Cr 11.556652671661922 13.423876186259264 14.866476044167005
Cr 13.281902007724359 11.81537659474237 14.27351194892475
Cr 13.197733329450193 15.173528488039965 11.14711256573307
Cr 14.241055090879405 9.611403691379884 14.095862116789535
Cr 10.942760258898772 14.093631353569942 10.0166688295701
Cr 11.92273785403854 13.424993384174037 12.305475297151572
Cr 8.873714333821521 14.326850781351931 11.595641309489745
Cr 15.755415244323165 11.965803467279716 13.495017281464273
Cr 11.713991433734758 10.60123941266986 15.493262440848438
Cr 9.454511628439771 13.273029065829693 13.70786099805741
Cr 9.732137548376974 11.284150117052794 15.431661228764085
Cr 13.509604463663095 11.34188827097009 12.001931479137424
Cr 12.182537218331609 9.411827005102559 13.054685830850339
Cr 14.632159312903719 13.054121968045955 11.0997486004924
Cr 8.995669352964518 14.671743991106474 9.334408482931087
Cr 11.773689294115508 11.77373338169513 10.296798987639391
Cr 10.954597936049595 11.445541943048694 13.084864576050773
Cr 9.504063407156508 12.255337366137438 11.191157417006238
Cr 6.569157320146868 14.34674514595038 10.997257076431307
Cr 16.647839589247404 10.10355916741592 13.220950002945553
Cr 7.242856328014415 12.364464029392693 12.471300054357537
Cr 13.292964906643439 13.761345263175562 8.944947930255006
Cr 14.552262592513408 9.35359341916148 11.641209242647198
Cr 16.037079034132066 10.964902856620355 10.8914759601456
Cr 9.993264411302054 8.938909501738568 14.206428927909318
Cr 8.545061004410663 10.760364141044635 13.246270785860267
Cr 7.7124476195932345 12.6517514393885 9.821154851549512
Cr 10.109478333738897 9.725744216669574 11.457494340216142
Cr 13.908718984094351 11.375060382917074 9.353395841640712
Cr 12.160326489181239 9.578704381006778 10.430674926131099
Cr 9.675850810838472 12.4957512204672 8.587037332326508
Cr 7.634997031248702 10.39735997860493 10.758990597824443
Cr 11.954381793593056 12.682573318610691 7.918382729753706
Cr 9.90684399076478 10.40877127105489 9.236788599467417
Cr 12.906947123201478 7.472070824598159 11.72438790998314
Cr 10.267321327172676 7.534998710162829 12.752487156036189
Cr 7.898688879615619 8.717643279512192 12.365418614806384
Cr 10.607654102772218 7.581071355314637 10.286969032232847
Cr 14.427935296199987 8.858856929979927 9.206707465231442
Cr 7.694107171959359 10.729405435743757 8.13026940656442
Cr 12.365295559929958 10.143290101477373 8.00623914473627
Cr 8.39701271929733 8.374851471696699 9.685508784482128
Cr 10.372483778853416 10.847203796533188 6.745379101384041
Cr 12.958740721548832 7.438871109692707 8.982218150840309
Cr 10.815903262083998 8.35609070238168 8.147141400249202
Cr 8.556950901694284 9.09226317983552 7.298322098161884
