49
Energy = -390.47114435 eV
Cr 14.702244588461893 13.137383672635025 10.084618771335125
Cr 15.3289761462019 10.581749911788199 10.408523493719887
Cr 15.306310469606165 10.349108541245565 8.395904706961723
Cr 13.507378264861114 15.296872404152381 9.981525914786005
Cr 14.755180721531186 9.557339022578326 12.516625730071135
Cr 13.256388153477662 11.69512320723364 9.041733597583585
Cr 14.287286347409953 8.35680091449496 9.872345423478375
Cr 13.776925007373643 11.879090574164424 12.088465858249538
Cr 12.542449145229872 13.763048551076812 8.385225353886852
Cr 12.92729504592142 14.094448566365005 11.928521277109189
Cr 13.596415170835774 11.097370652949374 14.518572352429494
Cr 13.439572783367302 7.56644372718098 11.560493674475362
Cr 13.433884716094282 10.978846838845532 6.72801845127876
Cr 12.781341396231388 9.213614720536162 8.256664002809956
Cr 12.17885189583231 13.190038891922635 14.347477849169984
Cr 12.701355206543468 10.208579951680868 10.793085898959356
Cr 11.444260891009739 12.112784336170932 7.005120527617643
Cr 10.65213208176702 10.624053401400912 9.24442433002004
Cr 11.56031129828101 12.856736092191136 10.674775995115448
Cr 11.005554346936476 15.137053458138443 10.20097507135464
Cr 12.627055450947553 9.506740396707126 13.224755509905814
Cr 11.167995106988002 12.684042482259924 16.133087129087194
Cr 11.496382302931618 8.095266837093964 10.01710132763511
Cr 11.474918274597181 11.642737609058315 12.85843902844906
Cr 9.952503143407483 12.87741049387155 8.77799862899532
Cr 10.8710279098076 9.88112788619583 6.851238839366559
Cr 8.853923578479135 11.498324650870908 6.8456847193176875
Cr 11.3162614400596 10.773571037725048 14.904792817281935
Cr 10.040560683121097 8.137708285759306 8.193945531023516
Cr 8.848334804889099 9.306604249612699 10.056611551441877
Cr 10.349028500630897 9.503045649566944 11.864320845529258
Cr 11.182079177807697 7.293893643868762 12.586076878630958
Cr 8.23033578933867 9.702448774768076 7.592175367873602
Cr 9.58217272889019 12.608756642719792 14.119858019453872
Cr 10.31429588849564 14.07799830976883 12.638253166754854
Cr 9.309853745906464 11.81741695280661 11.43345413091834
Cr 8.90445962207643 13.97997633537282 10.558477423496502
Cr 8.036934729383933 11.459572773830041 9.32528140742759
Cr 10.48737042728006 8.307665329049238 14.300934496766436
Cr 9.498694934537529 6.920125107715716 10.699894958801794
Cr 7.782016906564259 7.235862077214671 8.780601779850656
Cr 9.255797737326498 10.372762394319203 13.809543517868367
Cr 6.302674976637907 9.895773920399318 9.668253237446603
Cr 7.243722030568147 12.087850246262198 13.648312646435683
Cr 8.509101598394228 8.026443950237022 12.541531237900884
Cr 6.652074069149078 12.46385749539248 10.996829828093095
Cr 7.754330302819202 13.851883487102974 12.854864588166144
Cr 7.516179051000272 10.258593939157853 11.905197367733313
Cr 6.827404735673256 7.85277094712739 10.672594962671637
