40
Energy = -309.54002531 eV
Cr 11.011593826655039 15.375720343676846 9.994654967611712
Cr 8.41713821297472 14.992745531595064 9.904577556970011
Cr 9.606432642474166 15.17531741275687 11.904157496171601
Cr 9.784411222214153 14.11099144334621 8.34348306222056
Cr 6.825581954463875 13.607455809161616 10.35497923381542
Cr 8.423566988419658 12.531198404410164 9.379942752087533
Cr 12.527004261930447 13.950681723845644 9.043234958703469
Cr 8.322910369984397 13.260254832681767 11.764289256439735
Cr 12.330879496274465 14.677852370897424 11.639493186771384
Cr 10.617844174859512 13.216131348275518 10.574247914459312
Cr 10.793310581598451 13.252909598503905 12.952252830725392
Cr 7.481669607873809 11.116308811474319 11.121562109048984
Cr 10.99243175561918 11.986727497971223 8.5789698103982
Cr 9.747139379017682 11.044999712492274 11.147286948369972
Cr 11.845122289141747 11.15821271643505 12.66552555438373
Cr 13.378424938230761 11.966522905187245 8.391797954757974
Cr 13.119102826144584 13.520954822093502 13.464026663309316
Cr 9.344860373437896 10.210450897985863 8.957254309596246
Cr 9.186391100255813 11.731868184231201 13.708908846520092
Cr 13.081274300102132 12.502662222006435 10.981659705530745
Cr 11.919767491804315 10.397736757944571 10.014988164668642
Cr 11.91209547347438 10.103998906896416 7.449452879221005
Cr 14.65914695025555 11.405699530508555 12.635653286204391
Cr 11.279676813800174 11.990729938272262 14.926999481173057
Cr 8.467962675806167 8.82075827507414 10.605498581566335
Cr 14.79570941273695 10.495993190636886 7.231605242604058
Cr 14.762762212562983 10.705278285794233 10.132746127938209
Cr 13.676182201618854 11.935945366334476 14.992859792236356
Cr 10.84224931295629 8.745622719134005 11.706581843244836
Cr 8.382692832426345 9.371679721673233 12.871021495849643
Cr 10.890745861210128 8.459075457531737 9.061304288139633
Cr 13.460924582495002 9.528561653163397 11.729274875990713
Cr 13.539278711849603 9.053967231096495 8.82085481726321
Cr 13.24820382939493 9.772507590522816 14.300387741145677
Cr 10.908002281406864 9.709875664835668 14.340678901561992
Cr 9.901021061961362 6.919623846499215 10.615413122288372
Cr 12.500496904440153 7.727109172084796 10.596867903064021
Cr 12.619359049169379 7.770203763093511 13.43603337847918
Cr 9.67407387036765 7.528642817107262 13.350403520387225
Cr 11.51915146232826 6.068004025235606 12.172358632727981
