41
Energy = -320.25389715 eV
Cr 14.74132880824223 9.454142891491566 12.040939527472489
Cr 12.787350418933109 10.42458037763254 13.188902207881407
Cr 14.833494230384463 11.481516163287408 13.104765039865464
Cr 13.471503224597527 12.242600347803396 14.911161281621867
Cr 11.466661342978545 10.980468911449845 14.794593068874246
Cr 14.399801537356133 7.491042132888334 10.118085658890154
Cr 12.19407365872361 8.896827553476374 11.053491674803427
Cr 10.801797178343998 8.916064341310497 13.208635389164215
Cr 15.501503870017414 11.846350471097672 10.725187192419275
Cr 15.335658853131982 9.439955940041322 9.62815089217135
Cr 12.025458571663576 6.730938671180655 9.184318228108243
Cr 11.92389114409711 13.455069248275068 14.051682739495718
Cr 9.556492532315799 9.459661916625492 14.891308444476353
Cr 13.332557978703177 11.00806969645795 10.791786393205095
Cr 10.306126424774503 7.473098416945966 10.89616402229606
Cr 11.0025856007589 11.52050231305701 12.210973962277412
Cr 13.19145958697482 12.889376937554431 12.278650764628013
Cr 8.7741939898515 7.881552493706167 12.770678565808671
Cr 12.80044998397769 8.891754929353597 8.79304100008378
Cr 9.788823668561225 12.255575599174675 14.104516040667981
Cr 8.678797403521534 10.421049924479124 13.200311294103683
Cr 13.655657994740503 11.030210484606071 8.487144908740827
Cr 11.132991385523505 10.892412404452914 9.365062567629483
Cr 9.604772954714255 9.713829453422253 11.161337793116434
Cr 8.29431613645396 7.733077905425296 9.957936555418605
Cr 10.73414391919187 13.99222302352881 11.996870767668456
Cr 7.169736665112 8.86664243143935 11.601666951104061
Cr 10.41154144977524 8.91318116376612 8.704353838129702
Cr 8.610230405026007 13.082213832446936 12.207541099480236
Cr 11.381686531866464 10.198538352056293 6.935978772796763
Cr 11.730712194542962 13.256665009366388 10.18608014180941
Cr 9.452670499143863 12.338578427713747 10.27692931526233
Cr 7.260616979128009 11.273283152361987 11.190757427195267
Cr 11.748003239888348 12.296488482312839 7.465873670263989
Cr 9.41497051623881 11.156320684738251 7.494323114241187
Cr 8.262581701857952 10.185452364528931 9.424051076925597
Cr 9.513724681918452 14.99648659762352 10.328601473569872
Cr 7.040921721543274 13.716192975692792 10.309006938988338
Cr 9.942282624496773 13.27340480933697 8.18742288614825
Cr 7.373289155634903 12.429119863564102 8.42800966276899
Cr 8.328563137541641 15.367850061203107 8.425122398873
