40
Energy = -308.00975168 eV
Cr 10.500801993419705 10.24877459291935 5.577921309444718
Cr 9.114992387733446 7.639005872315395 6.010458456064602
Cr 7.634795899687867 10.189565095206536 6.112524464496807
Cr 13.430836181882025 9.886169648117685 6.415450397676631
Cr 11.678767286630563 8.025342606125397 6.90513167766203
Cr 9.258076669449494 11.818684382749373 7.305605889836632
Cr 6.939181224623769 12.38931914711414 7.5459316983172995
Cr 9.411705355558627 9.119693707452129 7.378035529850118
Cr 11.727502865707944 10.53141147512421 7.574813625734968
Cr 7.157891778616912 7.961093699083558 7.790225925985051
Cr 5.047563087155481 7.587559493355061 9.10169283563015
Cr 14.02739154957487 11.314251507342561 8.697489719011056
Cr 9.557419031855815 6.636675899588704 8.123774034982361
Cr 7.37970814372889 10.475185872062204 8.520635435755926
Cr 13.506730617094748 8.810791921412473 8.463508015701171
Cr 7.166765054524471 6.5658009991804285 10.13914836220078
Cr 11.844679185426081 6.415267890092512 8.99269305943481
Cr 11.058428566710356 8.42249933177742 9.15909849980745
Cr 11.360107459302103 12.53172675516774 8.917999268231933
Cr 9.80997595785651 10.51111012994939 9.414117901186364
Cr 8.694291047934069 12.351015620138826 9.624912881767122
Cr 6.385964646761062 8.974809149895554 10.243101498327883
Cr 6.073082534042217 11.594295796292952 10.240468738488522
Cr 5.714842680688033 7.7381820226275595 11.97302238817263
Cr 4.130249821261758 9.173575855932937 10.742187976775147
Cr 10.188155421153175 6.686734712860422 10.844237300089206
Cr 10.485070255289616 11.792883479976538 11.423618290568788
Cr 14.150827818704766 9.835575789520377 10.940871875146003
Cr 8.596710567622264 8.232354753345565 9.759140182832843
Cr 12.21902977954677 10.391040240278569 10.132069753824135
Cr 5.179349883967965 9.81219146071244 8.058852463714649
Cr 13.062450761881063 12.365204345165274 10.79333514684279
Cr 12.731438691814374 7.976990930755744 11.033815270304709
Cr 10.427040065419444 9.058152866181276 11.657704455444721
Cr 8.101763178744584 10.541024999007762 11.280322983342435
Cr 8.202543724481568 8.178906593584259 12.187229290391302
Cr 6.216376225828236 10.069834335855736 12.663206501182945
Cr 9.427628411035638 10.542621919483562 13.120714552043674
Cr 12.286081894831987 10.456243217009831 12.639771527037457
Cr 10.952312763976291 7.986962356762904 13.333691288215158
