42
Energy = -331.91065841 eV
Cr 12.962027105740173 7.41691106817494 10.581662255627958
Cr 13.63043854134468 8.346798718634238 8.092149397707805
Cr 11.6292913152146 6.759130879915643 12.903956352794971
Cr 13.32480248814027 9.144422352123645 12.611535466770993
Cr 13.552506109708824 9.652465978060167 10.180339154195421
Cr 11.809763615017774 6.513248976853099 8.544472086796235
Cr 12.884131323441572 10.498753710313 14.194591823816513
Cr 10.185620319621673 6.876553371811788 10.31374541197754
Cr 13.113666021096744 11.842172100033508 11.610405717173874
Cr 10.960723494729155 8.44542011565072 13.973631200232878
Cr 13.174249970579016 11.128625734170582 8.548976441486706
Cr 11.335042694673767 7.389688058226317 6.711642872400799
Cr 11.248155677438156 8.751022928356006 11.357064868568605
Cr 11.299037116260001 9.094722784680377 8.94546723834516
Cr 11.210911159283802 11.13701796503223 10.131102375694532
Cr 8.922710416053436 7.428331982985269 12.559825215003293
Cr 10.971914145700918 10.83905555348303 12.491990796285702
Cr 12.571111912578305 9.546851344822215 6.727081795838333
Cr 9.359511452070878 7.876461343503191 8.314340807081702
Cr 11.349104664756084 12.573076536593808 13.900955438147705
Cr 10.52390762811766 10.814669074534818 15.054050912815978
Cr 9.047902134353636 9.89647759843112 13.313206714182865
Cr 10.051244759483264 9.727238077402571 6.551144323346271
Cr 9.369012964912613 12.528481923863325 13.418899921152335
Cr 8.878653935709861 11.580165182817211 11.080241359668149
Cr 12.035838483012268 13.447014827270928 9.49111195827779
Cr 9.142756251991349 9.256583648352503 10.764343445913346
Cr 11.141673290766587 11.802305493346317 7.501815764866271
Cr 10.760487705047517 13.42653412477536 11.445461459740399
Cr 7.531560362409468 7.451458744406825 9.91703014411312
Cr 7.426908268843613 9.38081444944944 7.764242234641961
Cr 7.007453255248395 8.395008662403574 12.316810389823448
Cr 9.123588415393723 10.548658071251438 8.702067294445701
Cr 9.657214903336511 12.971261340109551 9.1870490485768
Cr 7.02671397934276 10.961706841345762 12.253922507803775
Cr 10.605564646108123 14.065226442733579 7.505912674224436
Cr 10.161703570055538 15.151254193423526 9.983880231311055
Cr 8.262129303303292 13.84938285359513 11.186382370001942
Cr 6.9592904971122485 9.744930420170126 10.020555846321413
Cr 8.840163789261663 12.16660465205387 6.921738694955148
Cr 7.212174348400318 12.012684808935624 9.279986460656238
Cr 8.39342017282469 14.50885637844883 8.499714769037181
