45
Energy = -357.2424056 eV
Cr 9.61683145952375 10.872004728217306 7.375747768953021
Cr 8.926018025359546 9.629408977418532 9.61317667416043
Cr 11.250158969036454 10.95092790046326 13.425666234512327
Cr 7.102631103940485 9.449231889363324 8.14239464127218
Cr 14.488706923329925 11.443584249878567 8.048262689445005
Cr 13.659539076069906 13.05716173400755 10.247619030044705
Cr 8.890499531603547 14.270297522576776 9.110104615448128
Cr 9.360277148586954 11.09048334599027 11.929180028485467
Cr 10.25707149103853 7.369912778338963 9.909732621271115
Cr 13.408900046824275 9.021601964264445 7.329601924880653
Cr 9.944188597302148 11.818526697467568 9.937380243175621
Cr 7.804531829610371 12.0237680743081 8.483758753396618
Cr 7.4407596248296874 12.813698537334187 10.736398245870587
Cr 11.448673067031354 9.65412546328027 8.873626106802377
Cr 12.140058193771718 11.362001938011748 6.836825468746273
Cr 12.084040357765332 6.501131310248727 11.714140607300864
Cr 14.567780923432084 11.15066379367302 11.886982963997703
Cr 10.949212962446916 14.351191187543611 9.50646854510946
Cr 9.699981764517515 12.720562979523045 14.078108791854655
Cr 12.242767857520008 8.316246569775002 13.498311830135995
Cr 11.836861240781552 7.187778483739999 7.66896259857439
Cr 13.461098328791431 8.772628596094114 11.7996524474822
Cr 9.794713615479328 8.363383916906393 7.60324055159387
Cr 8.473442996526664 8.557141923506721 11.675260087054577
Cr 7.256333653347581 9.889426564552203 13.158821418734457
Cr 6.461923191131695 8.460002840739428 10.266055614061457
Cr 13.511809533634002 10.77934439323529 13.566955545859376
Cr 7.017724180341227 10.61780081853988 10.819841714021969
Cr 10.135221925304137 12.895298806167734 7.396186350959146
Cr 5.588706073617974 11.242842533041346 9.080334852990187
Cr 9.316265964065467 13.949962681848275 11.700131204476627
Cr 12.092848484112148 12.231108505340755 8.949128907909408
Cr 11.335178639275242 13.171474483736151 11.760894991720862
Cr 12.319556448904422 13.093144702926034 14.153608299242041
Cr 7.53817675846941 12.302426935394886 12.987512989810574
Cr 8.940561790814657 10.710503500990479 14.760052353566516
Cr 13.90996803708516 10.288385928403907 9.547464295418207
Cr 12.212402326191436 11.088487706486712 11.341645591340008
Cr 12.797994019515775 7.740986723503966 9.635986128297803
Cr 10.178623247501447 6.676455404257611 12.268241653527248
Cr 8.114920611297118 7.092966505465109 9.40738980045931
Cr 11.084484712599982 9.178866624026178 11.230039410295625
Cr 11.531044381800282 9.42185079983784 6.102021862148941
Cr 9.940901097128554 8.898083498417268 13.468865660514242
Cr 13.683200417517172 13.33970610993136 12.784808513851354
