44
Energy = -351.25158682 eV
Cr 6.487068986418097 11.210828048930518 5.461895143058102
Cr 8.665698665605092 8.93759613905674 4.834444471879044
Cr 9.356698228627073 11.584661504928846 5.755887837674932
Cr 7.936105945369533 6.365316650648152 5.54333537883222
Cr 5.0812011974133355 12.769483393620035 6.8551316502679756
Cr 10.616680413391277 7.008745265192113 5.819890552490342
Cr 6.1469972458235995 8.43195357248271 6.151246975513634
Cr 10.424425293696148 9.353908831314056 6.527091801850303
Cr 7.21922201965218 12.614925544507281 7.248945921334155
Cr 7.8290452811551825 10.07786556992399 6.854446213392624
Cr 11.85995788519487 11.174918091339766 7.027983353662383
Cr 12.556157453563618 8.469009560681918 7.24046163407542
Cr 5.377695698861964 10.739557239472738 7.589531986219033
Cr 8.520574217036792 7.692745879198246 7.152861286283208
Cr 9.328063407625846 5.292926769179031 7.764278035355457
Cr 6.570890124815523 6.112834169366104 7.866761588351701
Cr 4.363725782764259 8.332153433525047 8.275603623396211
Cr 12.066301054808504 5.482479383917876 8.17824238738977
Cr 9.710849902739637 11.514711775122484 8.042064549300873
Cr 11.561809894726338 9.796121988981731 8.992404271993031
Cr 6.556741909279434 8.473695381095705 8.593166816130193
Cr 5.8486320623348815 12.46449359954982 9.22036403654621
Cr 10.395382112001318 3.8976232732220235 9.232109530268273
Cr 8.309334965648812 6.75931102598389 9.526836618579761
Cr 8.713388387699602 12.93675301186124 9.612223443239749
Cr 12.712815527189996 5.415182771394571 10.756056827888376
Cr 10.716518988935714 7.286822715864192 8.270605175636257
Cr 9.113569304969538 9.152038113161241 8.859587700190836
Cr 12.510077853083407 7.65100008173897 9.905892097339668
Cr 11.412713706871 12.131961208866324 9.616002251264197
Cr 6.14035147279326 7.04860281299531 10.435270292575439
Cr 10.46266628515289 5.684161653524902 10.184393959860568
Cr 7.4240074130344 10.913893400756383 9.2246121804004
Cr 10.300606405608654 8.222816720807621 10.853043651753655
Cr 8.105521453175063 4.658872349727489 9.996302412115616
Cr 7.690863374350222 8.936053992516648 11.018255205246033
Cr 5.450855707139782 9.822546244858888 10.29707282170621
Cr 8.51021201955767 6.794855932022221 11.96476584329893
Cr 11.540337571112078 7.141945380662835 12.420408540918025
Cr 9.702843044016285 10.843935466699495 10.661666547485524
Cr 11.867835732897003 9.98942385943824 11.377245128373703
Cr 6.235284763280476 8.365258212778693 12.752850061205862
Cr 9.384710052206724 9.47312213304015 12.670601680939399
Cr 7.488902807855473 11.246229465525014 11.641500134198312
