47
Energy = -368.42032058 eV
Cr 6.937736613312356 8.479221575020988 13.775509475610654
Cr 7.145693704636545 10.48126919213287 12.928353613810296
Cr 9.406475510656598 8.908805052993186 13.392154663353807
Cr 6.970682271356035 11.749107858664923 10.594059142641425
Cr 9.574184714786504 11.686553290766563 13.717123296216505
Cr 6.710660483729687 9.204936917352684 10.67658290064661
Cr 8.239077076979536 13.210873806535744 11.91895955614227
Cr 6.365520402824883 13.283461304501927 8.583873887293256
Cr 8.139267617867612 8.20594860273765 11.531249874657078
Cr 10.623238832943377 9.333876753556924 14.829574672909288
Cr 11.794654924208372 11.684981165303395 14.312880990934385
Cr 6.984860814945886 10.752410461165478 8.427727687465692
Cr 7.1739528795822824 14.385444251071066 9.92560239451038
Cr 9.11560739079384 10.715392521301688 11.697964740200447
Cr 10.62481702867945 12.733685669286247 11.931761714502736
Cr 10.514434085651931 8.609312289176168 11.02942287975039
Cr 13.192325472357888 9.819582906913395 14.511153492690237
Cr 8.876296523442809 9.830370962792298 9.434416252384105
Cr 9.103191537703738 12.30702723685395 9.49277541622698
Cr 9.78058860906758 14.465111279493584 10.193568026184547
Cr 13.947123019007073 12.263424004381008 15.582257261396462
Cr 8.090928161310385 12.36867342505166 7.003243829216823
Cr 11.48730940384146 10.330789317545374 12.526434431661794
Cr 8.876248690290241 14.441433236662466 7.851721959465989
Cr 10.682745358571449 12.70809008860972 7.7110595258901045
Cr 9.220861721373652 7.669543256563484 8.94896823811504
Cr 11.101521788149137 11.0022131424822 9.948676043602976
Cr 12.209162967299843 14.562246261085281 11.424602342103197
Cr 12.522026861708333 13.826816713015514 13.567836402088803
Cr 9.730539970336139 10.549401891693245 7.496203032379392
Cr 14.491579857466865 12.003500144670904 13.817906403684136
Cr 12.054882917597663 7.999035853133379 12.753502058032206
Cr 11.626016884068486 6.789655791921126 10.170317650597099
Cr 12.863816849429778 11.972072342628358 11.68248357296806
Cr 11.830408299719052 13.317691704363757 9.59494912844279
Cr 11.30710624757155 8.761306871348692 8.480935267958746
Cr 12.369456235472429 11.003081259775085 7.971030926200792
Cr 12.712243554203964 9.30942943149319 10.372767286141983
Cr 14.741603670396888 13.949186436723611 12.167172560900879
Cr 15.598520280603529 11.53907045295715 11.55699352232783
Cr 14.393070522708873 13.724207802789925 10.330157471975982
Cr 13.992662947074011 11.279447056238842 9.743948453158692
Cr 13.999743703223627 9.171441903516177 7.972367589430231
Cr 14.039491331043877 9.76272276114905 12.37799954595884
Cr 13.856402580572682 7.343854884919876 11.088940212675967
Cr 13.594374792933865 7.413177344981093 8.589313895865617
Cr 15.356415503627446 9.078494022375342 10.266462254794153
