47
Energy = -369.55429354 eV
Cr 10.307730261939685 13.46188629953698 11.796685342240991
Cr 11.51862997167179 9.121983812528638 11.533958613935289
Cr 10.018692912128394 10.137613935298171 15.141220464359163
Cr 10.076668293246044 12.408900455984389 7.668048700573817
Cr 9.573025912663823 9.576562895034943 7.895419665495592
Cr 10.933557422702625 14.56513205028433 13.776212811956373
Cr 13.807232103422704 9.459783182364827 8.058857716638174
Cr 14.164684306829564 11.321791069974244 12.510658625906965
Cr 11.39025160479728 13.514478053333507 9.404607888919816
Cr 12.771976472726806 7.522984455617151 10.01940928068286
Cr 12.476112608745014 11.821076851368048 11.165127788101097
Cr 10.282486519430654 11.439777354492776 9.971478998060462
Cr 7.04954179376755 9.520274868013537 12.566585516828933
Cr 8.884642939918738 11.005566933639479 5.962305009160502
Cr 5.64834527007018 8.236760276814943 10.659948863594307
Cr 11.589942855595849 9.69159352398892 9.286160655506228
Cr 7.867410898945662 10.937558169474755 13.907888394846422
Cr 10.281405891576254 7.58739356430417 9.55627453594407
Cr 9.56623477614037 8.836703386757142 13.242038290834993
Cr 12.056621922072246 10.312502657611315 13.809777143976707
Cr 11.97890825174589 13.14024465003402 6.787531516706566
Cr 10.380142279635042 11.995560882540081 5.067220873099985
Cr 7.933677449633018 7.612176536339055 11.256201440694715
Cr 7.83199861184617 8.179968344413084 8.733741266756093
Cr 8.70128501425085 13.407766765202792 9.927759137917326
Cr 9.119875100863982 9.459186407845179 10.67482693957916
Cr 12.669969301504505 11.638616571918226 8.439931738453923
Cr 10.086768409596095 12.469190176732988 14.468751993617772
Cr 6.545159547783442 9.913541419873509 10.049345219331475
Cr 10.338007776357085 7.135126268759253 11.716292317079624
Cr 14.522128113196574 13.409173554994112 11.761319458206483
Cr 14.616089099707954 11.907316244053266 9.71913155342446
Cr 8.096894499715956 11.128501990696517 8.637075273571647
Cr 13.582822967404995 8.70726631390036 12.514475564108212
Cr 12.136862556855553 11.983945699632159 15.529219261202874
Cr 12.623175242667433 6.831376805700807 12.37643860391229
Cr 8.10124534433531 11.671452692841779 11.288731805697003
Cr 12.095215830319527 8.11263109547831 7.546637984387818
Cr 12.406335458607378 12.909511601864548 13.545794044177535
Cr 10.301292502906918 11.175716475093273 12.551507804768569
Cr 12.642606777379992 14.35545848411415 11.598459616801332
Cr 11.51789383456318 7.969678557518398 14.066064952248816
Cr 11.485707766867902 10.379887708603327 6.6617758512492555
Cr 8.39375800046706 13.26072858306521 12.928221971348947
Cr 13.892070557364947 9.730243502868616 10.31888184694345
Cr 13.50079182895486 13.922156049697223 9.2397355282622
Cr 6.864461698760839 9.74359138147925 7.29260069057307
