45
Energy = -357.21332002 eV
Cr 13.666343256075715 9.513931908855167 9.804936687651477
Cr 11.177712476730509 13.453346619271754 8.342478680833034
Cr 6.824389679296993 11.84978894577428 9.936064267315604
Cr 13.108895800511641 15.596892038238975 11.13456232775586
Cr 13.382593741979402 11.57359998199797 13.99072352721531
Cr 9.726516618172166 9.48751900663667 10.154497762218982
Cr 7.44382771761181 9.514915879784281 11.68977896234201
Cr 9.398307286030859 15.55004169355108 11.12740689659387
Cr 11.422385688061548 8.115672486968226 9.166338094807903
Cr 11.299953433671178 15.523998234981986 9.632670346948723
Cr 9.276968299491505 13.584620956800967 12.547316193156561
Cr 12.493733492802612 9.382775298606887 7.737584488380056
Cr 11.357512026133172 10.310148084938277 14.580538828740266
Cr 11.226672488602187 13.448394965309058 11.079878246024409
Cr 9.691153984211642 9.187268130478401 12.603057437324027
Cr 9.113734388681499 11.53052344682454 8.352121851468654
Cr 7.246992065672809 13.835751599778973 11.33250794852614
Cr 11.304612737652501 13.019624505045769 13.847275132642785
Cr 15.413719078749457 9.516314496255374 11.298146801375077
Cr 13.30469560765698 13.667858354188843 9.667605993566026
Cr 15.509905056338704 11.643165659165696 12.573760945890534
Cr 11.226741851578662 11.209738779599077 12.069110456094217
Cr 8.903265032069616 11.56032279295895 11.12559740791953
Cr 13.35028232323993 11.66504531862475 11.08348980223191
Cr 11.288841935689952 15.448224586498839 12.625834339170067
Cr 11.956173096571154 8.745258890181265 11.207474219355989
Cr 9.19361035932771 13.668618399531345 9.783036200992445
Cr 6.961095562570893 11.975584587667663 12.764882869846
Cr 13.437314567942241 9.124932598016215 15.365678114443792
Cr 13.38191196464914 13.669372996776252 12.444335759544291
Cr 11.3513097073557 10.985133659324514 9.581257789823217
Cr 13.493624753039812 9.56992644785133 12.8595685185528
Cr 15.290147586495792 13.892872478906435 11.049282429766855
Cr 11.503550302690412 11.584338696636216 6.895089257304638
Cr 13.51194931985505 11.66491378023318 8.225777680638924
Cr 9.335246473899723 11.335702529130451 13.995835114770136
Cr 9.93022434968338 9.791384833287681 7.588385270213718
Cr 7.599597268101023 9.765179066814888 9.167621581260871
Cr 15.198617801040001 9.629903048614908 8.1865726483358
Cr 15.359794873407273 11.777039409651096 9.868104247485755
Cr 11.641103344907847 7.9411244180587115 13.647050585238661
Cr 15.759801649595426 10.015082487492531 14.035193283325015
Cr 7.377565663934556 9.923544607430797 14.085633248417336
Cr 9.453130751962302 8.810221108143013 15.001829025442621
Cr 11.546568586467712 8.061648118725689 16.08429471139858
