49
Energy = -390.6392551 eV
Cr 12.061824557741723 8.791135027056223 14.884815666300648
Cr 11.460237342939061 12.63990578803599 12.598451962564695
Cr 13.786311328712387 12.314363501046184 12.325938673192859
Cr 12.767042591149716 10.229163775627764 12.887648880137151
Cr 10.542597422112783 10.794966475552075 14.010031420516071
Cr 13.638627986537342 7.701408697969763 12.841343834928402
Cr 11.35941755545235 6.956341930506981 14.627867592184423
Cr 14.466771194772088 9.844710806054149 11.297440429230448
Cr 10.970217432050662 14.8706119604587 12.071852384744027
Cr 9.154091542724924 12.91786416145068 12.63491957605755
Cr 9.357974643976576 8.651665829132607 14.040245828960478
Cr 12.51266605814516 13.504195040055185 10.309937415449385
Cr 14.030031095965693 11.957014991027691 9.758357176232549
Cr 11.075393585261276 8.61069113016485 12.344941667676387
Cr 9.76401561858498 10.692607596271847 11.629463580521074
Cr 12.052478038522386 10.94149469102039 10.750472430403743
Cr 12.568748255191771 8.5700638617434 10.492448622309077
Cr 12.232808816613352 6.346878722655798 12.156947837183106
Cr 7.91284600890062 10.404828957354926 12.874517419165128
Cr 8.705689835748156 14.861517483182753 11.22560542840436
Cr 10.383585082878444 15.070860552440388 9.4316213806719
Cr 9.389850096861357 6.3876097629662345 12.992077458050467
Cr 10.215880297061215 12.932659018186005 10.259405071283355
Cr 7.585314230971146 12.242268731850409 10.971973646715574
Cr 12.176423095542583 13.80789151298972 8.291955337369588
Cr 13.590914846007054 9.769659199062403 8.607602662451441
Cr 11.625793212291336 11.365443066027366 8.57082370432848
Cr 9.871876224917449 13.142662732176136 7.706807256048992
Cr 13.220990325690572 6.800018168936507 9.38535390919585
Cr 10.485321869777477 6.602087792385393 10.591597697888359
Cr 8.015954484971529 13.67248477997644 9.208712412105815
Cr 8.944042650665892 11.062894770494024 8.944013750489132
Cr 5.52551154201056 10.659818679314332 11.47135013013688
Cr 10.301475042014049 9.125593649382141 9.63797425158637
Cr 13.603376236209563 11.997604013004231 7.12298287137747
Cr 6.677472306064247 7.973103397607383 12.023836538002673
Cr 11.882565216053036 8.744405561513187 7.8438145534853305
Cr 7.615699228776054 9.762739860322089 10.378866189771779
Cr 6.322707946518621 11.569108590301218 9.049540279995288
Cr 10.657504677986648 6.67011883393534 8.622887624132693
Cr 8.840187808763476 8.147425109311369 11.58072614134739
Cr 11.049291733409676 12.600767323989718 6.082592390358531
Cr 10.085902272266189 10.438966615622718 7.031033677753701
Cr 7.892061598862068 12.137416256633838 6.879112418954781
Cr 12.550396112587709 10.52292745728996 6.158013972279476
Cr 5.837083331228057 8.936562164220174 9.569656997160797
Cr 9.0693051083774 8.416512559309355 7.636842991655956
Cr 7.356214585341915 9.61862160720618 7.6978125557513986
Cr 8.085519619537019 7.401608748364726 9.424241586425952
