43
Energy = -339.47274577 eV
Cr 6.355944787594699 9.065026969651537 9.018306857574807
Cr 7.331910852198011 10.656985278345944 11.218173505100799
Cr 8.550054864108372 7.205282718141149 8.995857845176271
Cr 7.482275975983141 8.204163049915973 11.074843553577223
Cr 7.491752398808196 12.691613703986881 12.721431501587318
Cr 7.5171360411578005 8.17276648788752 7.315751663758517
Cr 6.991657219736359 11.342559432096452 9.208392137661088
Cr 8.941904948806926 11.013001974542975 13.107201234306753
Cr 9.416284545240732 6.759629379125097 11.270056707168267
Cr 8.761395474414007 9.681690045955612 9.348955388283928
Cr 7.325965228107577 13.444787938376136 10.5240119770469
Cr 8.084447701906434 8.76410445640729 12.88357120590126
Cr 11.094282818037373 8.066457103179328 9.516607504388626
Cr 9.463471454650078 13.588811978851567 12.539342892433202
Cr 10.666072815354067 12.067290895538601 14.640699143388801
Cr 10.054726339899617 8.934661065303917 7.480595832567474
Cr 7.852573860720099 10.411571388165857 7.0046224432758475
Cr 10.18825431290034 7.319165282070169 13.25840331232243
Cr 9.278072594968373 11.966119764613282 10.68439330082617
Cr 9.692741543032422 14.294067313473377 10.090456730130233
Cr 9.788971787274473 9.330081329859999 11.368972516595576
Cr 10.83591963262418 9.593983719818763 13.692145998203369
Cr 9.09113251156958 12.251017808005411 8.344189298145356
Cr 10.423720887734383 11.235421485267851 7.020225544813645
Cr 11.153494810113068 11.689317061817167 12.077972111934344
Cr 12.024225084911775 7.4725039817600525 11.53176634665052
Cr 12.620413904300019 8.181045924631473 13.917607104185842
Cr 11.875387242216435 13.497494362841014 13.855050747058042
Cr 11.070219799283379 10.59284120291283 9.313100415531462
Cr 11.7220658446695 13.848148133900319 11.24869327229883
Cr 12.31287524617675 9.65888314884996 11.57886446738896
Cr 13.04838649668385 11.03170778530498 13.660066059174417
Cr 11.083409306820792 13.142260607693707 8.97375579765256
Cr 12.326292940002048 9.411155722857563 7.540087679804507
Cr 12.863656701182306 11.661448309035165 10.096931927526896
Cr 12.851261694184114 11.97189383752092 7.717511812167054
Cr 13.576056369749152 9.144445684215663 9.656564732649088
Cr 14.348967341930795 9.029914470981117 12.653275463242267
Cr 13.714505591899133 12.830206330626467 12.015878010516541
Cr 14.821419719541092 10.821877284016587 11.377865748510912
Cr 14.625800756055211 10.550647275166824 8.639200100797169
Cr 13.385920414769277 14.111260391508942 9.436163746691719
Cr 15.132242318662767 12.904570953153389 9.746084190808237
