41
Energy = -324.86415867 eV
Cr 7.282614073174183 7.594163892685126 3.9226684252271844
Cr 9.302550969277181 9.41728497368818 5.103030023098046
Cr 6.578218622905435 10.16913359830871 4.890083027842567
Cr 9.405165424694333 6.668000431783975 5.797989387398861
Cr 7.318201851403538 5.722394015189287 5.477279631544821
Cr 5.400141897183575 7.9118026089422955 5.109720960168652
Cr 12.008168568967315 5.517885006689935 6.67423190460257
Cr 11.680875465311924 8.168713529929912 6.7605142014888795
Cr 5.578558294412424 6.171094217266243 6.782113910791761
Cr 7.269366622294934 8.372218366674863 6.189898085254854
Cr 6.309338023794018 12.421561167091879 6.483119153726411
Cr 9.457688277754702 8.647287770033833 7.382852281416129
Cr 8.32042232029349 10.81104362496967 6.610331516072385
Cr 9.409738519294756 4.796707888189005 7.187694876500354
Cr 10.734478758048773 10.79212308205231 7.151706193244217
Cr 5.741903582868511 10.319826167908785 6.808537401480236
Cr 10.455604096409811 6.595541494029201 8.373390807926873
Cr 12.96942401343223 6.71006456798299 8.555929123196568
Cr 5.306602968382594 8.005221974227531 8.111594838504798
Cr 7.372834816216226 4.329393525445646 7.7584027537402775
Cr 8.795995463038539 12.755210307305711 7.970140163791547
Cr 7.856068566281824 6.734142462770419 7.936119459885264
Cr 11.257409218413155 4.4760339800556 9.224329731115256
Cr 7.397896333607877 9.30864880814717 8.408871231426772
Cr 6.9246660152362765 11.645863344423056 8.865292911778273
Cr 5.963822638593264 5.434455287466363 9.446309797880861
Cr 11.492005091854324 9.019748060286084 9.062232633481502
Cr 9.370180717513094 10.665272241362132 9.104239929307793
Cr 11.185750118854564 11.888999620713149 9.693399033563285
Cr 5.2652860866221 9.77532063649477 9.658401918265897
Cr 9.099026140423844 8.140172607911074 9.822520803778763
Cr 4.159418277442372 7.121765944419759 10.265836558795874
Cr 6.750804569215692 7.503361196920406 10.006364535035113
Cr 8.695692355307168 5.61041698900024 9.891004696164657
Cr 8.45613723775173 12.071893993776873 10.673234185069811
Cr 7.53295614445705 9.937005396635177 10.876523010099419
Cr 11.079614533247257 7.171053259945534 10.651942410981032
Cr 10.135198198548755 9.766359451455681 11.174693719333519
Cr 6.302399734465992 5.725171412348109 11.837086552220228
Cr 5.754078745560995 8.01874848036936 11.987502179417948
Cr 8.360645937625584 7.825843905284123 12.049815325560713
