47
Energy = -368.15649919 eV
Cr 6.804886450577615 10.059370443033817 8.555502570487777
Cr 9.489577351812162 6.729620021559642 8.399857501944124
Cr 10.61228079567355 5.079878855008506 9.52532536678891
Cr 10.846352866309271 11.281869142166531 9.683460310606057
Cr 11.866784072618222 7.181620583842662 9.50591506628085
Cr 7.851074403969959 12.556029043864502 8.448563415365872
Cr 11.953589104528271 6.311108288906284 11.756592339841752
Cr 8.992676671496149 13.019494928998943 10.622889966435839
Cr 11.878364082396233 6.713378919808192 7.490658435391776
Cr 7.586611388749166 7.9304332605384635 10.084902888398348
Cr 7.7144663140090275 8.168844566984978 5.464243854989602
Cr 9.746935899853066 6.638160289583188 11.147297493563787
Cr 10.170970906269078 10.911935726051523 12.205329651047364
Cr 6.310322166178603 9.431413888833573 11.290727284055514
Cr 7.6676648449405596 11.486815594084867 12.065515364293029
Cr 10.847341500084335 8.96008656401269 7.704976261534444
Cr 6.709316018078486 7.027141554936321 7.8467785535160814
Cr 9.98343491074725 8.831133384241799 9.927326456732748
Cr 5.472736124616857 6.8644182777707226 10.292470852889283
Cr 9.889392089315079 7.242498268480241 5.8793785133940375
Cr 4.807426199540711 8.749273321908287 9.144840897790683
Cr 10.52939614104813 13.154568416507718 8.355831680418627
Cr 5.676088041623564 8.861156490346719 6.662382640951224
Cr 7.592844983025919 7.053271213599743 12.31717835637761
Cr 12.104960377239564 8.841928926654926 5.549035691487184
Cr 11.444113151004851 8.809346668354513 11.641858827923285
Cr 7.457485910152892 10.973424364676335 6.273850885651864
Cr 8.312044816751245 8.690913382088098 7.5907365516177325
Cr 5.972942473699582 6.183933930669557 5.818781318392387
Cr 11.90780331582473 11.030039695649783 7.14350623417835
Cr 7.842827441950352 5.57501047153318 9.808792466726308
Cr 8.770404516739235 8.96284043166615 12.217647983730666
Cr 12.739781389696411 9.660652549550441 9.455844807918211
Cr 4.152352009910293 6.85061977149666 7.916876913179364
Cr 11.553316595786136 12.79567573639501 11.40362148069828
Cr 10.129599400261636 7.693977622194341 13.380297042590314
Cr 9.92233954989005 12.217404579746916 6.248949587408849
Cr 5.1629927014584105 11.450158965894511 7.877795980074423
Cr 8.398481738391258 10.63563694410356 10.280724091325467
Cr 13.387523005819693 8.797808735446418 8.015542185476912
Cr 9.38892047623873 10.851135859565307 7.9441169842000425
Cr 5.527278192178641 4.965951230051413 8.594153362025288
Cr 13.074564113777239 12.307467375170281 9.452368053087836
Cr 12.862807069781514 10.82372385309725 11.770388319536567
Cr 6.311273090889946 12.064792962131616 10.234480619580633
Cr 8.261596367824762 5.2945598423293445 7.070648544699183
Cr 9.919885553502837 9.885301642696103 5.537862931628615
