45
Energy = -357.98381442 eV
Cr 9.926416677591591 14.921859922261074 8.526995956925273
Cr 11.947609605895671 14.648029470507437 10.280052024995234
Cr 11.773888986855667 13.137261750686635 8.072185374011998
Cr 9.499180814797999 15.53453856863114 11.274313048565213
Cr 13.68773111427466 14.33933104614165 11.474153209546273
Cr 11.101775978225332 14.718234960984985 12.502632053974612
Cr 8.949926476501531 13.137338112536455 7.808666370592117
Cr 8.018637981789029 14.3967725176413 10.015109435898186
Cr 13.193001960867639 12.403980979890276 9.918668989012529
Cr 10.096220776887295 12.926070301830586 10.2815066088845
Cr 11.806520510123736 12.296648994893937 11.805354342403014
Cr 12.992036897556641 13.352205902424084 13.641791959359514
Cr 10.476930653488077 11.597975732086764 6.7605147948191116
Cr 9.158828948821043 13.090204048763342 12.300910508613157
Cr 12.892919388583588 10.64614685360625 7.62523089628462
Cr 14.527433611523458 11.806733178050894 11.793449143296982
Cr 6.716233490222534 12.702779399059622 8.605602016245834
Cr 10.650035328393656 12.455367641450756 14.214939900610531
Cr 14.09763831892424 10.130373213256112 9.535915910824984
Cr 8.003113239206735 10.913974829844815 6.7275607935162824
Cr 11.346815783464356 10.769196893290651 9.481106411268064
Cr 8.777302093184465 10.817816005815054 8.885389789097847
Cr 10.487477463986655 9.356137334942682 7.437833331110312
Cr 14.767341307123244 9.440344416464137 12.613862820180437
Cr 12.546464691182214 10.113287425134803 11.40315844688123
Cr 9.839312323824265 8.568900160209921 9.829079706578131
Cr 6.1572503114886 10.433833861810378 8.933895389250583
Cr 9.805420568625108 10.63666107474039 11.355578312700741
Cr 7.58892578289792 11.838486447231624 10.843377616315681
Cr 13.10641904151212 11.005135526613032 13.98338964881259
Cr 8.640209456326708 10.830456889218272 13.174494574645738
Cr 12.360501274977219 8.360575838331677 9.127057930354312
Cr 11.03296130907939 10.094442825979344 13.600692602821526
Cr 10.385789900716944 6.687043591940547 8.411127571292123
Cr 13.062384098161289 8.39755677031332 13.37615246025591
Cr 7.411174576682728 9.466306771154734 10.770394216637003
Cr 7.937056167931137 8.39774901725766 8.564416053928836
Cr 13.58698030255907 7.682936733421736 10.872597966091021
Cr 11.156350020964789 8.214900557739728 11.806270038972698
Cr 8.759134706774004 6.840960097885613 10.945065702198955
Cr 8.996082986021467 8.52492471122864 12.64771261381251
Cr 11.259141961652915 6.274177392027289 10.432463433418372
Cr 10.572858415569462 7.707185702294894 14.324196682903974
Cr 12.301549581926626 5.894627681998224 12.591248400309384
Cr 9.999785811062932 5.929519926566112 12.859420218665871
