40
Energy = -313.44269469 eV
Cr 6.556007117893401 8.501852843104956 10.77279427942995
Cr 8.416830071870624 6.843940126916133 12.05423069671113
Cr 7.270074884580808 6.822698968069849 9.722285816223222
Cr 7.821583720779978 9.252129393234355 8.463280655918638
Cr 7.957148190506413 9.693352215226042 12.619153080163859
Cr 8.45511103855663 12.20672715852229 12.202396642492843
Cr 7.895033076870025 10.572583353080121 10.324636148233308
Cr 8.103709139323696 11.764178175498117 7.8829667272682995
Cr 11.004689831951794 7.35217158565956 11.605024970366777
Cr 7.904593048658082 13.725804129296655 10.384772239253374
Cr 9.757052004462894 5.973649883742287 10.354367070868772
Cr 9.186404384906396 8.464198359689629 10.657288454394841
Cr 9.449833271283467 7.513004881287441 8.557241654458005
Cr 9.424270041344778 9.7196379929973 6.511610828372973
Cr 9.709077411843849 11.648661291509775 13.804284077064978
Cr 9.267717075537464 14.054993445954555 8.090459911949443
Cr 9.713158209005057 14.231060986580294 12.474440813173905
Cr 10.468240012950595 10.53575219684057 11.502108488598921
Cr 9.796166358302813 8.830550044112588 13.433045846524882
Cr 9.993141277510786 10.103714844214577 8.858664477234479
Cr 10.260312778976315 12.025203730265648 7.368621265108872
Cr 11.336290006964639 8.251440799633242 7.344818071186958
Cr 11.836298137167033 8.869979386188316 10.024326334442666
Cr 9.507569410319173 12.400490837647705 9.780756894991526
Cr 11.975235017079326 6.678051065257573 9.300549841073117
Cr 12.17437039265749 8.815640802185797 13.097940651163338
Cr 10.007010227462763 14.92444500859372 10.359571969924575
Cr 11.744943635145512 10.847262400876364 13.843651866434248
Cr 11.691145360901226 13.469705644993327 14.157376825817183
Cr 11.352854718861488 12.790432510752877 11.647825533570161
Cr 12.28168917353667 10.053725904751111 7.47096049812159
Cr 11.887693465862007 11.440290368517083 9.401326840433285
Cr 13.909994546667994 8.244369954933823 8.598178266451795
Cr 12.284868383016944 14.952559640671307 11.722555916936095
Cr 11.530599183157262 13.650245736387182 9.171634476901962
Cr 13.709149768503739 8.206990703320248 11.182914706573776
Cr 13.374575443707501 12.774006005987108 13.263415325088504
Cr 13.09782428081727 10.695695428389717 11.624251839471597
Cr 13.697984537901904 12.673771116233118 10.6383525807412
Cr 14.05318707946015 10.187358619422644 9.422846650830868
