40
Energy = -316.35540271 eV
Cr 8.962836368802803 14.898185381915415 12.784737150134589
Cr 8.588505776210026 14.417253712148963 10.050663134266685
Cr 11.066668914920728 14.927182040892841 10.425689138682328
Cr 7.983903914722096 12.717363950108888 13.988668081238322
Cr 11.689902649494414 14.448221535573184 12.800359044666616
Cr 10.3050146892668 13.09109804227148 14.468511353890342
Cr 10.106612158133649 12.995422384092105 11.818380001861925
Cr 10.528123538458757 12.666456023522729 9.417865929684554
Cr 8.34960540962024 12.181738554900988 8.90629726192788
Cr 7.515330244345603 12.703738894894169 11.553773629176442
Cr 12.729322584790385 12.828879010326244 10.718232543654542
Cr 10.41471956416636 12.198230593610962 7.097295007169618
Cr 9.49204132512577 11.00675992016654 13.086435625453602
Cr 11.907742011027612 11.733590204223598 13.178265024324439
Cr 7.022038322612573 10.52798113789702 12.603724645913692
Cr 6.462844959886077 11.019699872679642 9.793382131021605
Cr 12.307573444929062 11.169147836339373 8.445823319001793
Cr 8.526839616822478 10.855358814914908 6.771326331712491
Cr 11.362235900909674 10.857010662239684 10.977405108145406
Cr 10.28462787557783 10.114480372890073 8.649673852349078
Cr 8.934738114608361 10.737933733182578 10.846739814064778
Cr 8.578050184730044 8.572583972513247 12.62799388116035
Cr 11.194443131341277 9.188519948801247 12.67840119675602
Cr 7.466426338866178 8.447344621975825 10.703619659353842
Cr 13.497632158885695 9.582862243490586 12.366617796059113
Cr 7.955481866234562 9.469904595837473 8.708871593172901
Cr 13.954148835786171 10.893829178549332 10.079869988035416
Cr 11.449665702177933 10.136579011207559 6.278399860505746
Cr 9.444554478520223 8.684411675866075 6.444092989888864
Cr 12.467265336311849 9.025294399238835 10.160187645942175
Cr 10.128947349384918 8.486123053085809 10.418406071739904
Cr 10.215462511556355 6.791062651138458 12.309405655944813
Cr 8.812386097630924 6.277097908560004 10.842138475687829
Cr 9.205381940290783 7.455677146678803 8.539611404930238
Cr 13.856050123846112 9.32050379132989 7.893614193131937
Cr 15.12130013544924 8.783865486383519 10.553562700892122
Cr 11.614154371268329 8.202470124418738 7.994448908322881
Cr 13.219403414167479 7.210761895088253 11.918145165603299
Cr 13.781374133976078 7.102219387747572 9.522041639945169
Cr 11.409190817583513 6.424541354797531 9.703381568287629
