47
Energy = -366.18583576 eV
Cr 8.794411039057122 11.031859050869548 4.6819875426000666
Cr 10.87514989270397 13.47920869221435 5.382691654907377
Cr 7.305426451683754 8.677680133583987 5.475223108968309
Cr 11.478961192219124 10.522685114218387 5.504730484806849
Cr 8.105091700092949 13.446617274092235 5.901577027892037
Cr 6.806042644896446 6.288214994334895 7.540580902449951
Cr 9.436655714385143 9.207802121480947 6.123338585200816
Cr 7.321606836402705 11.017369131555611 6.631841072380979
Cr 9.218322351515813 6.84197899193608 6.456107067786083
Cr 9.8541678591626 11.90459202447614 6.5770205539205335
Cr 11.622657152250333 8.110493275485473 6.767073260011755
Cr 10.099901410363685 14.07943687258177 7.829598906606195
Cr 13.381207316745837 9.904766642746461 7.177539227814508
Cr 12.34516172523103 12.245767947717036 7.48159423785651
Cr 7.29541224085629 8.536126400145994 7.7309280586822435
Cr 11.152606268140172 10.150272858640948 7.985694087136961
Cr 8.041343671238423 12.7488191404507 8.386524753456658
Cr 8.987524744796179 5.439808870201142 8.493405797073242
Cr 7.181315359226567 4.6391103719883695 9.78999168686303
Cr 8.970998703855445 10.36310192823165 8.372381520210547
Cr 11.24090559899757 5.972753872427338 8.48812917211618
Cr 9.610896282147696 7.998980817720267 8.518515351515262
Cr 6.466351579952536 10.447690188024895 8.919907343987688
Cr 11.936131331239352 5.544781665346567 10.771783300079882
Cr 10.5795734053502 12.193631575729565 9.409991221976583
Cr 8.516702876077698 11.706140966054756 10.424518247740611
Cr 6.027687012648469 6.4616246980968794 11.776125071479969
Cr 7.354509773051891 6.891129066114972 9.921409211928443
Cr 12.645133637914244 10.224123763307198 9.925394420967441
Cr 10.476890234144781 9.640904600450437 10.416682611398791
Cr 8.116600057880364 9.210139632341564 10.527060130709826
Cr 8.380345981256585 5.179784310095483 11.709834720857806
Cr 9.893044234891438 7.017280745292896 10.5822740786078
Cr 12.097937696210378 7.961629336781018 9.126441545583377
Cr 6.47933424491048 11.28302256079893 11.432697875636752
Cr 9.932161686722369 4.407947641879766 10.405489613755075
Cr 5.371786599113652 7.940426597901327 9.187305998919676
Cr 5.880884475721212 8.903912746773536 11.218863796229707
Cr 12.093310426222827 9.908579138959839 12.543152982985221
Cr 8.25563384755049 12.909858256249386 12.435273216728959
Cr 9.865848734982437 8.626248609592768 12.588872904262947
Cr 4.081488358011354 10.107138063351574 10.593565480225358
Cr 10.229955634021476 11.206122763657715 12.069887493991015
Cr 10.49301327860979 6.047002502696012 12.577626122507963
Cr 7.8876687053229 10.45492715423886 12.777773103943096
Cr 8.116282184169773 7.692529119179342 12.394547945214477
Cr 12.14555637398424 7.87557629591786 11.41664602595446
