47
Energy = -364.35708845 eV
Cr 11.205246806460055 8.833122317185117 6.440244837460272
Cr 9.404766995373098 7.297625079135181 6.099306006307204
Cr 8.431049981357868 9.487000253322062 6.189546311068229
Cr 10.083903700926559 4.768536037742729 7.048391615716175
Cr 5.719289133641633 9.741100974225578 6.558077202312442
Cr 11.454020960577807 6.1671109882647865 5.633397426253885
Cr 8.92944898216087 11.999934757755753 8.84733187556131
Cr 10.727258169685555 11.30259295710481 7.606035009338964
Cr 7.818779577995137 5.579512707858106 6.535529462667551
Cr 12.26391929086959 9.105851059087412 8.635198568408802
Cr 7.662540365153942 11.97341091116632 6.935821484099447
Cr 9.456905244692443 9.112970528296067 8.13022437066589
Cr 7.035821239154549 13.644477141298449 8.99779172331099
Cr 13.468156409701518 7.5852232425778485 7.501528197979487
Cr 8.894985849517239 6.457919390050448 8.53970170798693
Cr 12.26226934112983 4.740694174355359 8.039294942701698
Cr 7.020174889603637 7.870727190094292 7.342010769943042
Cr 6.9000095897167215 10.303992224599742 8.516731787782643
Cr 5.274464342261634 8.435281952197203 8.971459057777082
Cr 8.821231287301535 3.9756196340053185 8.898040102843298
Cr 9.673423248993076 14.015406268958175 7.9373618815909905
Cr 5.2436491383101025 11.474871141855672 9.209005645366695
Cr 11.217619947930448 6.939102659855876 7.915598015895401
Cr 7.702401112127244 8.1164452379325 9.778809608251144
Cr 10.755477203922437 5.187485798959184 9.817103569179608
Cr 11.318433632432706 13.127576399577304 9.490002853758806
Cr 6.609077094786903 5.9359045990321535 9.04452130314097
Cr 10.24899559565418 8.070825238513295 10.151322474029204
Cr 13.12395646375906 11.21179672514556 9.111439766824116
Cr 10.863381748793532 10.605336296656331 9.888407785740844
Cr 12.448237513794801 6.745027513678175 9.992303988951871
Cr 8.890449133552396 14.324425072390582 10.18788928167487
Cr 8.632788511828764 10.154558832251055 10.522028600569264
Cr 7.083633266367011 12.17677938478812 10.825231004571986
Cr 6.317035928292699 7.254757822473595 11.130782948136362
Cr 8.75886753470629 5.971039882869665 10.889482208143336
Cr 6.324816651971594 9.789352432315237 11.156972326728072
Cr 9.691631784583837 12.257050184088154 11.418155754517636
Cr 12.369618020384896 9.160601654145417 11.19522317607742
Cr 8.58935416614969 8.374610320237768 12.161511717082284
Cr 10.845157314427457 7.095831564358736 11.97553605062051
Cr 12.026667714884937 11.835442372743428 11.572700374577131
Cr 10.899701132941003 14.38305051512948 11.482202549005967
Cr 10.471964247693755 9.915782549309263 12.45028797491384
Cr 8.00865030868445 13.773254640698584 12.320476318795505
Cr 8.19268031700129 10.996833117369459 12.794773950287372
Cr 10.410414102706024 12.276473248305669 13.667531405344274
