44
Energy = -343.37715311 eV
Cr 15.189541702509766 10.06083854386919 10.152409441267382
Cr 14.563458161932159 9.228513506804191 8.214286661620203
Cr 13.128886421716214 10.952039416769068 8.460344640147365
Cr 14.967727961577628 8.11066190842313 10.693039212948685
Cr 13.491573706449811 12.13926047465858 10.762586987164399
Cr 14.043481669016087 9.692240609570499 12.525143615707535
Cr 12.106059272051038 13.109047661627084 8.94783315182011
Cr 12.487309744884222 9.2935930004035 6.581430489105361
Cr 12.890372349467414 9.446601832023024 10.280232598450661
Cr 11.139995561816411 11.592864115108986 6.937193258384609
Cr 13.220509048771293 7.6500067866657835 8.753085416218951
Cr 11.83035156537451 11.238273093458904 12.184447652279433
Cr 12.812306185803992 7.316912198335081 11.540228013082094
Cr 10.814124733507576 11.403887883485947 9.773924038198441
Cr 9.838782661000835 13.533374217576378 8.5039793407039
Cr 11.78965042810044 8.960703251363366 12.97200695542466
Cr 10.805967579627698 13.476613944383102 11.231813147842812
Cr 10.78329248726741 7.443935070801239 7.254977795404628
Cr 10.998416639471113 9.36297765661995 8.360032445023247
Cr 10.37743936441203 9.528925687373498 5.960051152722632
Cr 10.505100903224841 8.906206479541943 11.107180232929922
Cr 11.317642223446935 7.131762649884353 9.892804290520447
Cr 9.187413076679833 11.48928947553186 7.817191566370296
Cr 10.400929508602571 6.9645136821599625 12.625282023309712
Cr 10.921899843795307 13.067660555977895 13.63627566916003
Cr 11.724051214896592 11.009435827816693 14.308704480585284
Cr 8.54547454013836 12.644109157608666 10.35136884665261
Cr 8.386189751230964 14.94015468048919 10.074975728088324
Cr 8.55278820780092 9.219600554362858 7.463897250295928
Cr 8.897143377597791 7.449293072506274 8.721756532761402
Cr 8.586279714091717 9.926123429857268 9.869347867462999
Cr 8.896465108924392 6.53364158172829 10.874537993199162
Cr 7.498085692376395 13.772642293580718 8.373643898192016
Cr 9.539814837885633 11.054744138246301 12.362341699172061
Cr 8.932029071945253 14.09131603127325 12.627840030840494
Cr 9.559268299687906 9.252558729247943 13.936637346167226
Cr 8.294668711100211 8.573331194321497 12.092223848447754
Cr 6.980285755145077 11.29777829458339 8.78276167766239
Cr 9.139164864635903 11.920229249183837 14.50823729877017
Cr 6.492923972157673 13.397280079807615 10.379100661139784
Cr 6.965596893092127 8.547501138993425 10.036204592769874
Cr 7.191404845515551 10.681362627405017 11.633328270776289
Cr 7.533143564221246 10.33696146974194 13.882751342171945
Cr 7.066872798626586 12.597309920588447 12.911949149955666
