45
Energy = -354.25300975 eV
Cr 10.829303151470686 7.651626931939512 11.836552317458302
Cr 13.056167652985462 7.8758691737082485 8.623771632779384
Cr 11.069661489040355 7.581744260804419 9.1965355485599
Cr 13.128809230666628 7.969971479121636 11.089687127727586
Cr 8.623175796214541 7.124395013275968 12.709559967561983
Cr 13.70222599380133 10.219542919421368 7.060439094894732
Cr 9.280202776572544 8.5699851638802 10.454771394390816
Cr 11.808882331845462 9.883128862794235 7.7447480835964475
Cr 11.77715199705376 9.27301781885216 13.059281637259941
Cr 9.811398479093725 10.418420472505737 9.064103488472687
Cr 14.12780390423465 9.990830374187572 9.342874128018833
Cr 11.97327016463437 9.82670923530968 10.40947773470065
Cr 7.4379523533631975 9.2181566319497 11.962594714026237
Cr 13.936933114623308 10.029282877460494 12.099658570966266
Cr 9.404155919236638 8.591311425562935 13.973594181397575
Cr 12.518667714582845 12.029463499437313 8.686847448937954
Cr 8.21109956232618 11.189047413113503 10.614323174406088
Cr 15.175157189226898 11.978540900372483 8.631710306053245
Cr 10.218842253886823 12.198758428503279 7.572217422774462
Cr 10.016172951396104 10.157508128075017 11.868323184147759
Cr 8.800943001636448 12.979465029162116 9.175066675861723
Cr 13.54044777641761 12.083475559771111 10.684663149402823
Cr 16.059815654739012 11.548921113477 10.754163173759459
Cr 14.640848163038253 12.010614550192093 12.777842494102817
Cr 13.211174577566652 10.520146550764627 14.541198107214646
Cr 8.09556336967134 10.751974191778736 13.451085194223534
Cr 6.4414284747234305 11.884328717155181 12.109947493766546
Cr 16.5478779916558 13.917682647627174 9.851731565081653
Cr 10.612798930334423 10.922724475231597 14.32846017990049
Cr 11.335206283912864 14.036725599746184 8.57790402600533
Cr 14.063506209422842 13.975109168209341 8.878290098969947
Cr 7.626517635651386 13.85694333887326 11.220266889777633
Cr 9.201264633153674 12.617232637657157 12.433071629455116
Cr 11.93676948581062 11.859203213811366 12.454548938595718
Cr 15.10563234577255 14.174436100698937 11.49163265422954
Cr 10.783147237732521 12.272920935780297 10.513870998386881
Cr 14.308641629000231 12.131460864042884 15.267282574063518
Cr 12.580573417374332 14.06921480553478 10.757567217784006
Cr 7.331100288571113 13.48885413712998 13.882258291367922
Cr 12.082669188450536 13.06666412567821 14.6936140070928
Cr 9.369242001622775 12.462653135235119 15.085642508824181
Cr 10.023974317992066 14.50792076362691 10.871843791419641
Cr 13.413357519524128 13.900656702284902 13.22473874768862
Cr 10.929818072472065 14.009524603796411 12.697081476159212
Cr 6.609400295936735 11.932588550897563 15.033909487173966
