49
Energy = -388.00625103 eV
Cr 6.086077400234234 10.641335366846645 11.302152960790364
Cr 7.692095562769734 10.361898321155978 13.092532012310143
Cr 6.567705103663386 8.04645004771277 12.705160900844334
Cr 6.402116965278687 8.28770620030067 10.303392873919801
Cr 7.451335757690176 12.020205681871872 7.737042961306253
Cr 7.576157142423813 12.92898112926594 12.337861169531617
Cr 8.661922972634711 8.773236333070477 14.477463222164781
Cr 8.07548678362156 6.541562133553971 10.599051502100616
Cr 7.719960270345008 10.644227533951067 9.588170591101802
Cr 7.440116261617216 12.975028952127044 10.461983779665035
Cr 8.971953968990583 7.025579234404112 12.647212561229283
Cr 8.34654801138406 9.100526491472099 11.31946096818683
Cr 9.521923991722591 11.415960791152767 14.088702312193261
Cr 8.769780997485034 14.047861565723483 8.294235285431942
Cr 9.431361513988682 10.48925797296644 7.458434238560749
Cr 10.067013022031958 12.549048595799729 6.643711033713315
Cr 8.423566598923909 8.544441643512778 8.711640692320023
Cr 9.724361601924363 14.197158160277256 10.932752281752443
Cr 10.682304575829146 5.730662091366033 11.578437740111067
Cr 9.560958669232216 12.263265442067635 9.169874289528765
Cr 10.377363849899686 7.8781464980803735 10.459014524352721
Cr 10.281213507337972 9.397670701794997 12.655925738959226
Cr 10.028155824373343 6.475214911162867 8.852182591645033
Cr 9.522195477608035 11.5833580854608 11.533842837517907
Cr 10.251277172737801 10.100165505695054 9.85623719292907
Cr 11.045905325095008 7.40632090614781 13.871008992936376
Cr 11.147461265317471 14.152876868355643 8.783309837495127
Cr 10.852341276813531 9.567651611840368 15.15507472005167
Cr 10.33913722031158 13.682659927741845 12.654375533380236
Cr 12.497134766864471 6.478804886935676 9.587715074096765
Cr 12.022731670371522 10.606137879076984 6.3318406607844615
Cr 11.971363240095984 11.467717940647091 8.45483347994969
Cr 11.00008947112444 8.737791416804667 7.7744550300202
Cr 12.366293313939346 7.659634151896971 11.902181764321844
Cr 11.831649584682253 12.518603358408741 10.644554804017455
Cr 11.670930404758431 11.617665712251474 13.27332724448747
Cr 11.99274432598543 10.18626630558843 11.219334490524739
Cr 13.72546515998703 9.538534433196658 7.5871488113554095
Cr 12.459080784443152 13.272157526277786 6.934409129687706
Cr 12.22745957269022 15.034613779487264 11.174370743245769
Cr 12.722122564844655 9.57281305762477 13.581417697032117
Cr 12.60078060095697 8.705199269807661 9.363262725257053
Cr 13.565884812566239 14.240709381531815 8.97672418810411
Cr 12.975820938651013 14.002951796346334 12.544147031857376
Cr 14.42598381653169 12.169052867609205 7.672126152678784
Cr 14.21661277591703 8.884466989226445 11.015697715042004
Cr 13.809440290487505 11.695653325304361 12.113956178406283
Cr 13.985986547127105 10.946885208761023 9.698790235712195
Cr 14.5027181792895 13.455546871804234 10.39174168975211
