41
Energy = -322.82953744 eV
Cr 8.951825494442051 10.4672834206947 6.261530180594897
Cr 6.935518318130446 11.80741454191762 8.55429375691772
Cr 10.881683189140544 12.584512897332813 6.526065055619101
Cr 9.439486054451578 8.438787388276326 6.693111948585008
Cr 11.43194139679565 10.113169859072533 6.161313050667909
Cr 8.952597277803322 12.285858093351939 7.770503649807968
Cr 8.401044281458185 9.763102391079352 8.700480845124318
Cr 7.235894408398996 13.797802618757576 8.98525484819841
Cr 9.39533242420478 14.143379761196488 9.057312995361055
Cr 6.809941830826148 10.294615451185475 10.569802361072087
Cr 10.59059720255547 10.551253318051629 8.482733003729466
Cr 6.575541446005022 12.604330974609237 11.152901011891238
Cr 12.841308345072385 12.25334098232386 7.11476348840944
Cr 9.864177232746968 7.884205569266826 9.15309715415946
Cr 7.962674821149343 7.6876278898025205 10.639038331990992
Cr 11.803771305566947 7.925278197903306 8.019960341165685
Cr 9.345199580082816 9.846108023819406 10.722813720412253
Cr 11.224559880358122 12.789848104371396 9.048154639239106
Cr 8.18519882079245 14.10684149070411 11.462822025884792
Cr 13.16601077979502 9.722858400964023 7.706123312274156
Cr 8.948552465436487 12.135546472665231 10.268228606522468
Cr 13.067402067172806 11.097040410670987 9.494068915597552
Cr 10.4346622087545 7.887366743050329 11.813667647461195
Cr 7.902304269498509 11.552818224534947 12.48314359416235
Cr 9.838331553248667 5.742976618550835 10.863960704631957
Cr 11.805656269260854 9.241245800247956 10.186181415299767
Cr 10.849936011487474 13.87805021841545 11.251276307700234
Cr 8.70940795738342 6.441287449241407 13.145574789430595
Cr 12.83583158608439 12.819893150733506 10.828825655667353
Cr 11.18751364334421 11.299291983794477 11.114456836066578
Cr 11.714031794843454 6.50702450317052 10.172834022572527
Cr 7.900421334101114 8.909026538135679 12.63357312810304
Cr 14.004442765080114 8.186328769256916 9.896127360489817
Cr 9.916034948384025 10.249474580766282 13.287454825673091
Cr 11.140068164153274 5.6427977838057 12.772831561515487
Cr 9.805232107402091 7.748660299528811 14.142119234018708
Cr 13.628835215815656 10.313844888759442 11.784274168001465
Cr 9.595752677137407 12.736664249665402 12.776703868824654
Cr 12.882845267511875 7.743163749100844 12.024281137162326
Cr 12.176118134631603 12.114659682017429 13.251141479342781
Cr 11.873938445192739 9.37078839020464 13.086562571948855
