44
Energy = -351.32158394 eV
Cr 7.268713487119563 7.727087634286718 4.604553181304815
Cr 8.288839629287601 11.461253636492687 5.339758051656241
Cr 11.069178284726808 8.306016111399892 4.228501342788448
Cr 8.642543757389364 9.262528599660628 4.086933136694313
Cr 10.670286988092961 9.866287922907778 5.517176174154928
Cr 7.585182320525688 5.7378618641063985 6.073387692892508
Cr 5.992662960761813 9.758096015267059 5.877661053929881
Cr 7.2252095364280855 11.918933940375947 7.521921772113671
Cr 9.47289829129389 6.536224329412858 4.198167233894549
Cr 4.914014447634024 7.302106160496764 6.048121082984926
Cr 9.461467053776477 7.456773407178852 6.322490054380013
Cr 11.882610940366424 7.641569120356339 6.616063697652735
Cr 10.765512077583576 9.46813804240571 7.881245382825422
Cr 9.985959669073237 11.880279754175879 7.148778809774237
Cr 5.595862204775537 5.737281951389566 8.00266908088812
Cr 10.720629354828562 6.88432914405216 8.767799066702306
Cr 8.370246812736331 9.768921769631753 6.693547281462357
Cr 4.646596901631463 8.433210892113166 8.20094683826967
Cr 10.218326246237716 5.262559985504061 6.954966362466775
Cr 8.186546170649505 5.725125051955369 8.246322892772284
Cr 12.720912093474158 10.446767756254022 7.158153633370852
Cr 6.934768945819467 7.729774666022287 7.083324945558919
Cr 6.43109274049373 9.90396614113341 8.459447098240812
Cr 12.538739096853996 5.58368484234149 8.86974733317862
Cr 8.680895572989428 8.367536824956952 8.707424277330727
Cr 12.459894945080466 8.510449278541497 9.421039206341343
Cr 8.87027600233658 10.913034853814018 9.123927363824361
Cr 11.247852636743758 11.077950954873089 9.669413438672308
Cr 8.963402705751514 13.13530896679698 9.592738243764238
Cr 6.501488958102409 7.432668175606087 9.466314029377232
Cr 9.785208114013521 4.779182295659152 9.742513486337227
Cr 7.02177573581882 5.287272024470032 10.445215268921107
Cr 6.622864300713876 11.342208796034832 10.278128361159546
Cr 10.330597618304667 9.013386051385957 10.535611766128097
Cr 5.019177266886897 9.233703537527015 10.789959170044842
Cr 8.782637937779253 6.803522321098284 10.651778209011923
Cr 7.721604793618429 9.238697641864285 10.781241098668355
Cr 4.567893492301921 6.8391305001814215 10.598178815972439
Cr 11.127940142014236 6.798302759281844 11.24918632138275
Cr 9.189486295699554 10.9410058765775 11.618859297907798
Cr 6.495839756834746 7.2891208959604805 12.143982488131655
Cr 8.98595270124301 8.17472845906891 12.535373205833075
Cr 6.570584865380121 9.720417454102689 12.660431833137181
Cr 4.346352401407043 8.18411984785771 12.967527172677324
