45
Energy = -352.39697483 eV
Cr 13.124367840794111 7.612853795508761 12.24221991537891
Cr 15.088260300012163 9.542044084849877 9.14320703755471
Cr 4.728283991678891 8.488122878221253 6.804166911133715
Cr 11.637129724442408 11.456726315959664 11.447190604604911
Cr 9.521796284847643 9.98289000508373 12.257448787497152
Cr 9.571669795376335 12.666985078710152 8.121356149899174
Cr 14.70443945688994 9.82731266199722 13.483479898570863
Cr 11.549753205043848 6.808305727110147 7.254460476800254
Cr 8.163939733029704 6.033591904511769 10.568326614461508
Cr 7.430268042572824 11.242728330787791 12.581929214496164
Cr 6.9622648170924455 9.79376603076138 6.5554321799147734
Cr 8.241446734924683 9.007005228595142 8.380234249336116
Cr 7.608326470336674 13.62582066336754 12.237938428350578
Cr 12.578757380120836 10.43910365286776 9.221038478008108
Cr 10.885222077752282 13.931210903872802 11.39505416758451
Cr 7.491108687309805 8.399141589171219 12.118059082505672
Cr 4.347850402388663 8.21529980134437 8.548819619512324
Cr 6.586422488332673 7.725158339369913 9.813898098254397
Cr 9.072519173977131 6.52190876039757 8.24940590252528
Cr 9.135895844439657 12.240340441690002 10.795699544430038
Cr 11.017587267830718 6.631496617045189 10.026310626644326
Cr 7.9490497569267236 11.588575001346632 8.438327298479031
Cr 6.368467457023796 12.311801552510499 10.30473620140185
Cr 7.527716821098391 10.140837706195391 10.563742058365039
Cr 13.173557510164533 12.184628588946225 12.727922449980007
Cr 13.35021219806118 8.082829591120136 9.547049571789373
Cr 9.140925082511032 7.83516610223124 6.3121896579906345
Cr 10.928018932441171 8.477420542092782 8.346202168182211
Cr 14.246841611022695 11.698986897979841 10.11696858141901
Cr 11.731013399729608 9.83556099140199 13.255619720724761
Cr 13.81196067576878 9.866751214932625 11.605145791556051
Cr 9.965659768097497 12.069024610907539 13.13960945106399
Cr 11.369627799618293 8.568430023815564 5.675830519033826
Cr 8.520829236527186 14.138711999781098 9.79699857655072
Cr 5.253026276908232 9.69744112656556 10.798058038101335
Cr 10.104562566612218 7.661217391060498 12.536993485936708
Cr 9.152242964592364 8.075429171516063 10.376945440943249
Cr 13.276333279228492 9.202991069534765 7.133132621569755
Cr 6.761614246823686 7.279154614229882 7.6664145590065855
Cr 5.923050148915628 10.170159801340416 8.518975436550111
Cr 10.013256553423851 10.386942762855252 9.626665931792049
Cr 11.28437774199719 10.850723277309541 7.150870816533755
Cr 11.507003693426814 8.778800315097497 11.002564893116107
Cr 11.581629946473704 12.500414110709842 9.25842343425052
Cr 9.55781668689035 10.352292798772535 6.801041381676487
