49
Energy = -384.62432273 eV
Cr 10.643463831196282 11.994658720427207 8.968356007797617
Cr 11.784196102558264 16.879484205886488 8.876739795292908
Cr 10.071015171634295 14.492372999749861 9.161873269735755
Cr 12.42497683542219 12.96485977211394 9.97405362892698
Cr 12.556412862181125 15.090528441710395 8.619517605157414
Cr 8.688428752566786 12.328458193581344 10.286845455824789
Cr 14.404168147075648 15.455695234005752 10.71155965831493
Cr 13.388379929986353 8.385181003066116 9.796555727177811
Cr 12.888647875310898 10.374054326769889 9.647453849481527
Cr 9.836236311744816 16.65056628733541 10.593351278158416
Cr 10.708705066341068 8.784530635761959 10.518145601145607
Cr 11.614504125459337 15.374275626837049 10.948381868317108
Cr 14.831824022275677 12.370704315743168 11.041053336647837
Cr 10.64866836419767 13.274030617230123 11.46064378091036
Cr 10.784475170706742 10.90561126086438 10.972823521120624
Cr 9.047377578157933 14.804341706543918 11.855799059485188
Cr 16.912475957391756 16.148738011813588 11.68915736060557
Cr 14.93594640536192 9.73967068931387 11.445889336568657
Cr 13.219739331870615 14.050800421841975 12.172498144910952
Cr 12.920178740958209 11.372090831549453 11.984552888097081
Cr 16.71597302673202 11.5775553255737 12.78505896907587
Cr 12.526193301029734 8.937135469792022 12.090823813198586
Cr 15.555711032330304 17.471406423838438 12.177118252169393
Cr 13.19643458595695 16.6829251115331 12.786533996089078
Cr 11.183643306012069 15.416132894069142 13.329752466743345
Cr 16.100443341368013 13.816947738104314 12.365766492404276
Cr 14.96927736834872 10.419813224868916 13.533854947966736
Cr 9.918485506733676 7.898207557716352 12.605736746191758
Cr 14.94118245488533 15.423486937104874 13.587602379604276
Cr 10.580769493575245 9.960691820685078 13.038675586214081
Cr 9.736585943296408 13.812037771281318 14.196172195626252
Cr 14.439743554378909 12.800517799413955 13.785933244335013
Cr 11.957578536782295 17.86004592796945 11.548764424208153
Cr 12.74469043643829 10.56992362592721 14.357119194674521
Cr 12.697652379822499 14.77077877382922 14.734070064391572
Cr 13.52625218042365 9.580096671199446 16.16998007647782
Cr 11.686585027953853 12.81886091626107 13.68173971287951
Cr 14.301739948451699 8.367781402962798 14.194225805330952
Cr 16.744852393776704 13.508978968013244 14.67951706932083
Cr 11.393932020323698 8.468241361322812 14.856881592054368
Cr 15.190161669266946 14.15809658120336 15.679281201721341
Cr 9.219282712433582 11.848965164658749 13.15277375150293
Cr 17.05511897234342 15.870385797024996 14.22285980679049
Cr 15.31654384682624 11.373872628529801 15.753706053429278
Cr 13.112373515397628 12.34974972106681 15.860177448956398
Cr 11.903333303898986 10.986036235758533 17.386722136292164
Cr 10.919042981078402 8.792675819593807 16.836613272844208
Cr 10.642099906091044 11.266115438759796 15.373042456639581
Cr 11.125344504665486 13.462731422812496 16.2150935022106
