43
Energy = -340.22124113 eV
Cr 11.883070629138496 7.888004319691142 14.953179600035496
Cr 13.811381165727907 9.548520093532312 13.84953522752484
Cr 13.47608009018515 7.235251249500889 13.743308484754564
Cr 11.581985896666566 10.251366475840284 14.324872443348585
Cr 9.482354698273882 8.761776273700812 14.125163750381441
Cr 13.947571933679244 8.4924338281289 11.543580848963995
Cr 11.00016347340065 6.516361943406499 13.018441957020316
Cr 11.75462808521117 8.539091778512656 12.450879490351179
Cr 12.791765716017863 10.997110951189462 11.99709416610941
Cr 8.879751435590396 11.42038552960636 13.954595630677346
Cr 12.714477096675973 6.8730921463838 10.863012187897489
Cr 7.66749658532585 10.192062923406906 12.552057010646758
Cr 11.911829298536533 9.418561051064499 10.1651993675743
Cr 9.051463414363687 7.86946302185371 12.267317268615425
Cr 14.159337196471519 10.453636571280306 10.169786177006356
Cr 10.194207072282653 10.249969688111651 12.12970798463344
Cr 13.859587324281588 8.4344382454797 8.821469675536775
Cr 10.553561876149512 7.37090960529664 10.445153699910263
Cr 10.986253047100451 12.4303627671722 12.815853560690353
Cr 9.201620798879716 9.53586578546453 10.198989405483413
Cr 11.006938945726562 11.51836604155365 10.201913552361592
Cr 12.754815057634374 12.848402769207896 10.366778298878573
Cr 8.855378412874664 13.898929613508033 13.265660257911383
Cr 6.813415759323324 12.381014758204334 12.319130986442007
Cr 8.863775506293758 12.158443743460648 11.190467299661945
Cr 11.95216240188693 7.713219197245162 8.225875962666215
Cr 12.770414516299136 9.550425650623854 6.410173288087664
Cr 10.880568216735998 10.663155226023136 7.850399539294818
Cr 7.365766085811055 9.728183290141278 7.944867306925733
Cr 13.029897863948264 11.316362248203442 8.435136515604471
Cr 8.810282346496114 11.416133292646993 8.792287894190377
Cr 9.623561270158595 8.594037702941037 8.10660410825425
Cr 6.694954578082995 12.853819679965678 9.873682389144617
Cr 6.800006257722157 10.439424078119094 10.277938899500557
Cr 10.507711369400338 13.886191739311734 11.09441796920889
Cr 10.903386768647536 8.973202020131563 5.84262565796081
Cr 8.03470676767706 14.713796977569253 11.530159491717049
Cr 11.022513173156124 13.207648894737261 8.342905077309576
Cr 11.177114111944432 11.754660097576236 6.012316130254591
Cr 6.702947014683865 12.11209230737751 7.524835038453308
Cr 8.808395790294878 10.550218244419655 6.210356349255737
Cr 8.413932243887837 13.969881624763639 9.217825943180753
Cr 9.166984734307484 12.774233982471896 6.94372346092323
