43
Energy = -341.19778808 eV
Cr 6.638298680106408 11.193484991632252 9.007536318577513
Cr 7.9815101255629575 12.632053613033191 10.30530929255688
Cr 7.780440964652218 13.433759879998364 7.979698740950367
Cr 8.08620572754865 10.917852368922473 12.126484959078587
Cr 9.600911340620355 14.46105859038176 11.135509987622598
Cr 7.528518723515977 11.327536417012954 6.526749044083718
Cr 8.362006015766866 9.867739478970158 9.93876393951394
Cr 9.087963897085016 12.864762994648972 12.831801444145189
Cr 6.76712056262285 8.924986322655025 10.93705231115977
Cr 7.763164858149907 9.032675717867031 7.777522934713778
Cr 6.701786487940696 8.826996090542268 13.387641371179933
Cr 10.345445295579289 12.03352104718009 10.397243110121735
Cr 8.693013393787053 9.477026987762319 14.25409805425993
Cr 9.865989456916182 14.009937742218808 8.808367225403659
Cr 9.3901526453154 11.267084775277644 8.321770168458402
Cr 11.418100300402536 12.888150170012835 12.709270938322469
Cr 7.23278214424531 6.66890687232839 12.326907143548059
Cr 10.084238926254212 12.678587432214993 6.551512327238084
Cr 10.485453650472161 10.624374930818327 12.649215531499074
Cr 9.816892923825495 9.819936474821649 6.232607897164957
Cr 12.072166333166608 13.74070063468282 10.598362241539384
Cr 8.144428999313533 7.170765733610339 9.818465792960291
Cr 10.617510741963866 9.571899302993934 10.276833814826286
Cr 12.631621194271961 11.038906396149844 10.986710637130521
Cr 9.23208903959915 8.310272509050995 12.061708736170864
Cr 12.105805493219219 12.77292444772987 7.976955282279268
Cr 11.891788780432341 10.92691466592517 5.7667935279504725
Cr 14.042877272952088 12.716646044277121 11.916105666364075
Cr 9.142741819065122 5.422130240146055 11.79667603775977
Cr 11.683287612474098 10.641781493658376 8.312362312563286
Cr 10.03418125475467 8.54202829282766 8.14704652364784
Cr 12.71728032937956 10.554003178652826 13.363102121565806
Cr 10.43022076537843 6.967529968287105 10.433436908289885
Cr 8.636296776608415 6.968181757673329 14.324078849801964
Cr 12.141099964929662 8.538315573002514 12.10295399545593
Cr 10.946602093358898 8.68289711357954 14.208381488997873
Cr 13.957976786203874 12.24451872072521 9.280602375592544
Cr 13.899376322239737 11.270532049279183 6.7337253699912525
Cr 10.660141396642839 6.511582044004544 13.231588419297863
Cr 14.368716957511792 9.497764386911728 11.26393956120487
Cr 12.335556839079935 8.33707154772277 9.684503160028388
Cr 12.430290448715274 8.693918141523454 6.791590365312418
Cr 13.96567203503905 9.760225998648865 8.670008002109762
