42
Energy = -315.14127576 eV
Cr 17.54276508866991 16.91469494050328 17.3919144605024
Cr 13.56470887485052 12.963254360539569 21.134032168502046
Cr 21.282929632707244 20.663514885696824 14.635280994863217
Cr 17.62028213004261 15.108663420997981 13.997438304110876
Cr 15.445434248417984 16.406821924043793 12.682482834778481
Cr 16.99214482659041 14.156245319116236 11.888639593143443
Cr 13.78874274435279 18.38721937243804 11.994336263845367
Cr 11.515848371593096 17.878086361055082 12.665405334363031
Cr 15.835085214593141 16.970030874143237 20.88550170545401
Cr 20.989639509648622 20.781665789591912 12.308711751802281
Cr 15.449026286934345 16.00372251131151 18.0756866149387
Cr 13.670169484114425 15.756126514299304 20.17093626978586
Cr 15.324483873732122 18.925281046203633 14.000087389108714
Cr 14.746523826810481 13.26192968300468 18.59283226098806
Cr 12.427641710645993 11.758705615034703 0.611155774528702
Cr 20.0687515510436 15.158984311946487 20.623705014755277
Cr 14.56064362463279 18.06838733429755 18.860236027250767
Cr 17.459408101558882 18.7091592985708 15.546617542346823
Cr 17.15877166690251 16.04909858853207 10.801846699274273
Cr 19.57253768220283 17.372699883559036 18.617285613182734
Cr 16.13634273207453 16.437351703593308 15.320481064794407
Cr 19.414397693776554 14.247147785281522 11.125061201907103
Cr 16.2150942749998 19.918141947860548 17.259866464337208
Cr 18.232256191484858 14.704042581313118 21.934992168957578
Cr 15.104104805367507 18.100542056167363 16.381796223233543
Cr 12.856492588047736 11.781765799444198 19.262418886862722
Cr 18.916109666759482 17.22214326157437 15.116744313879174
Cr 13.405085569706737 17.482421442847908 14.468440678604546
Cr 17.54314240468385 15.663519526520615 19.764842591806353
Cr 12.789382464034079 19.673299065137545 14.22204607101912
Cr 17.071900262176396 18.358453043542703 19.398433103391486
Cr 18.797193226454443 17.364646886021948 20.923293002654283
Cr 19.035894044132185 19.79988420127794 14.175542969919087
Cr 19.07722265022184 19.225767451818186 17.043683884736243
Cr 13.208266232153816 19.192268015244537 17.05378239246005
Cr 17.36875868972643 17.850514907820422 13.151692564369847
Cr 20.405208665184713 18.425305128426288 13.063297108932119
Cr 18.908472100689256 16.218625781468432 12.432438588615602
Cr 12.433051745168031 10.400042386514738 21.188385753057357
Cr 15.538095999433288 14.311571183813353 20.387486657669342
Cr 12.763657022453875 18.472297792735635 19.935585961404104
Cr 18.004261164017326 14.058941931336145 9.332941475362178
