44
Energy = -348.77671692 eV
Cr 9.640740170121454 10.023887910111117 4.948018693787617
Cr 7.048017541186969 8.979188029345908 5.404949242217727
Cr 7.920283357596697 12.069268328034434 5.82766033038742
Cr 11.40607172958328 7.9099343482267 5.123253276131692
Cr 12.232126996555614 10.82216386735732 5.517068316644364
Cr 9.056518326883163 7.660128229223159 6.003509256731002
Cr 10.294180275224399 11.857209515209707 6.511298252285727
Cr 8.361727111981322 10.181505687850297 6.939639693581601
Cr 6.053558841806817 10.473099432748928 7.657594318746387
Cr 12.6060502946197 10.900242641531628 7.710082577061632
Cr 6.799163788759187 8.073715840845107 7.541067719381983
Cr 10.879348595177746 9.271492546080934 6.929290711584382
Cr 11.075523446966224 7.04085919191015 7.690645988061401
Cr 8.327844280824605 6.208586020913745 7.790971830257308
Cr 11.469092199487616 12.90861649658901 8.211745993066563
Cr 8.346732953827848 12.114177376001727 8.652997169524106
Cr 13.20864173531463 8.721232357877147 7.342329679640735
Cr 9.225690858708361 8.427708777038713 8.500616836504689
Cr 5.592010552031821 8.429136007298261 9.77992685208662
Cr 10.053461814642887 10.871800549181192 9.010244391533975
Cr 14.084811795206239 10.228766965057291 9.447065616166503
Cr 7.38089070066649 9.941262044728573 9.345033058228566
Cr 11.734177460583194 8.976560927574182 9.54304675557035
Cr 12.823662501839815 7.454204505808717 10.069170011243827
Cr 12.543447775241152 11.670964446586348 10.17142601819388
Cr 7.635878067657919 7.151765907681602 9.961401997168734
Cr 6.187167190210783 11.106503868536953 11.024579801341693
Cr 9.271459212793276 8.986561356308464 10.681901427178385
Cr 10.147008463448548 6.751465410837746 10.183029898326174
Cr 10.289732313866617 12.731170527301083 10.630047519982655
Cr 6.971010406399969 9.043818435792698 11.779241011365562
Cr 12.955945830389666 9.523626508836296 11.772594639109395
Cr 8.453656437583893 7.1111614091229605 12.30280693259278
Cr 8.414577233448625 11.402965118466845 11.150261102393952
Cr 10.866749258356265 10.616548118244916 11.696026858594989
Cr 11.139689089267861 7.96367051588078 12.120111498213111
Cr 9.004917436852715 9.5521784998455 12.946052700743731
Cr 12.49421605557049 12.217622142646627 12.391644155534015
Cr 7.238176788367775 11.00907789278305 13.626605526592735
Cr 6.910659250206415 8.625890050910384 14.163777920857543
Cr 9.562834247963067 12.090944053386266 13.202430955832217
Cr 11.338286865145864 9.75375619720571 13.961643573279478
Cr 9.438897269771807 8.178478275285102 14.622861101226421
Cr 8.797379872561084 10.249100062495783 15.396345185746423
