44
Energy = -347.7829801 eV
Cr 8.412857928254038 5.865035587809368 10.719438197897038
Cr 7.520623879011827 7.958750818490227 10.579463460421199
Cr 8.424517655042614 8.572144704365694 14.369138981666175
Cr 8.405720215477936 6.205193689099808 8.61361841069764
Cr 6.917579665719531 9.514686620731611 12.25651661283242
Cr 8.346891019136653 7.180065635755763 12.960907170757517
Cr 8.043987827823244 10.970424633728264 13.210088225193537
Cr 10.28110263988168 10.277485300233964 14.01201550293446
Cr 7.1894886342320765 12.01469800554216 10.951514953637295
Cr 10.572653834562987 5.621014499834488 9.013191486509676
Cr 7.890373784226277 11.849605571020387 8.242451958146212
Cr 11.000422614568052 7.990058705075219 13.749173925916514
Cr 10.466754478166258 6.400237012851762 11.475886538685982
Cr 7.691464563657673 8.874163485371172 8.288399421602502
Cr 9.742317346364045 7.9465622299339325 9.792954763573206
Cr 9.567571526484853 9.040829168857165 11.977730259491238
Cr 9.900741509054734 11.759427227334342 11.494267236889833
Cr 10.415277889154147 7.4524640811583875 7.291904915700071
Cr 9.703516261707898 12.773332022242512 13.977969123826123
Cr 8.36913590481291 13.455685191049845 12.670076947879593
Cr 12.010495869229024 8.16877220619124 11.573982113951004
Cr 8.537492365657757 10.407189551404278 10.180501570805413
Cr 12.191958295647794 7.497992626434803 9.405067294773572
Cr 11.154512252408217 9.970819077967207 10.006200502661734
Cr 9.502154163568619 9.755883480306194 7.749929842265075
Cr 8.738684352096083 13.227945935538504 10.054808627770926
Cr 11.85933842603048 10.295419941703978 12.47695384187281
Cr 10.805126425464938 14.06855786213769 11.854940317282036
Cr 10.399625553901167 11.764145366741323 8.74728592817705
Cr 11.900354138432224 9.229111124536196 8.065611726362688
Cr 9.582888415850897 13.953424412960047 7.666210984699454
Cr 9.449788971267365 11.80434389139535 6.162716280771217
Cr 13.548728775505769 9.750596127758843 10.23361718288129
Cr 12.150296528826239 12.49047909049854 12.969430603925385
Cr 12.356083846513497 12.08700879973257 10.735048607044341
Cr 11.311616984037284 10.860663752562902 6.271555030404774
Cr 14.117627358015874 10.511970413825114 12.318344023986173
Cr 11.272577895802083 13.764023535986377 9.625607914760602
Cr 12.976290611766231 14.58663233437172 11.39954792202074
Cr 12.76659688062407 11.54192446216536 8.28780184420199
Cr 11.539207340268906 13.50773235556199 7.101357856163944
Cr 14.53578624938069 11.824708509997098 9.866568499372432
Cr 14.446626508791148 12.888259891164262 11.942591625617151
Cr 13.54744746411709 13.960927901872225 9.383540120036367
