47
Energy = -372.98522267 eV
Cr 9.535698745819857 9.45628061448626 5.262501559253634
Cr 7.140324300775895 10.079951206923473 5.739859762905005
Cr 9.81628326045253 7.038985743441001 5.057936143987145
Cr 7.711031125647541 7.59645756403703 6.2962270535562235
Cr 12.015017660613179 8.573652960878444 6.011812853868484
Cr 8.996808675028074 11.955037172235311 6.305825737523892
Cr 5.991793320548812 8.956373810147495 7.958513062199182
Cr 10.847406972700774 10.486028296787683 7.080814457281702
Cr 14.302144961456193 8.344132493237934 7.424167936174412
Cr 10.0711187416379 7.944436434301352 7.319046649627936
Cr 8.33421475191266 9.80188382320707 7.542846253661953
Cr 6.018557730503585 7.902293133352174 10.318596832221841
Cr 9.610715795693997 5.877842368067957 7.61880483192778
Cr 12.113387304186977 8.35930508518438 8.666577544805499
Cr 12.254618824211173 6.541018359698839 6.649330765348109
Cr 8.01106711476499 13.9692574104118 7.842463889332309
Cr 9.15088275565741 11.839117934767119 8.922149928529802
Cr 6.714764405127785 11.617751745693873 7.915148226364221
Cr 11.064489382077044 12.778618412062544 7.955536052404803
Cr 14.402783490412299 7.035501924454802 8.650130227006406
Cr 11.887940667947756 10.949186958718151 9.579407521367902
Cr 5.261309840512847 10.443296790312782 9.79787959309699
Cr 7.902606657287663 7.6676655589515335 8.788971968885587
Cr 9.788718843558135 9.375623445471813 9.220516527914782
Cr 10.229449396597284 6.80340568548341 9.717751682935024
Cr 8.938538582921241 14.351631406209153 9.333588194690577
Cr 3.7214368062106242 9.268327658002761 11.24584082883521
Cr 12.128355648487418 5.8041676046190025 8.858279558824076
Cr 10.65981611639372 12.805525612469015 10.636871273215393
Cr 6.783644210299739 12.77867559364355 10.045846514800497
Cr 12.79918755548883 6.857456539039903 10.840789218302211
Cr 7.602781313262413 10.102656157387424 10.193450215386672
Cr 13.818942337974727 9.089995376727796 10.30941646093843
Cr 8.232479840974788 6.112745248865861 10.650969221324763
Cr 11.255315420739977 8.81380623292006 10.825358318707892
Cr 8.783238983134359 8.237923403726446 11.415218544591479
Cr 5.790402337687383 11.201641373288338 11.962654267009725
Cr 6.120512677197549 8.661274054795605 11.981826865978432
Cr 9.884197046483273 10.841988726460396 11.34665265563265
Cr 10.601728267799762 6.66114755085053 12.19018636368155
Cr 8.038129310269833 12.615856118005444 11.33946449075414
Cr 12.2547445682183 10.920865975684505 12.013106292656353
Cr 12.432469042243182 8.638951972269885 12.870207810823464
Cr 7.787937119888094 10.375067022461653 12.856125518265468
Cr 7.953697472357803 7.728767810186009 13.479915768220968
Cr 10.184291370103253 9.302917909788865 13.201693637470633
Cr 9.593618718658185 11.974105192209992 13.298320389635213
