49
Energy = -389.93279373 eV
Cr 13.139494353816367 15.685937821580133 12.485492083995409
Cr 13.421468576966426 14.485474592719406 9.806868794624286
Cr 15.3959005257701 14.30035006201846 11.802030735215357
Cr 13.595402961217472 14.677758726444605 14.108988654088863
Cr 9.160915059619036 14.420180361312374 12.10424207553517
Cr 11.432994955553468 14.575685151378753 10.878212904284965
Cr 8.752365946296505 14.227236333932742 10.133639951569295
Cr 10.886162482671033 13.583515492587464 8.795550678423794
Cr 11.35921948458815 13.805870608848915 13.496253918646946
Cr 15.516126940720799 12.787926571403341 13.471745890749371
Cr 15.025730295769103 12.678628885109998 9.82628134479254
Cr 13.406223609423922 12.524063085734307 7.678974440908367
Cr 13.277778633900079 13.190677534024708 11.953742118805309
Cr 6.656341233232147 13.41673822175253 12.613937570424335
Cr 16.884471387563718 12.21436058778697 11.507781585358769
Cr 10.770294899717603 12.352074408234591 11.325191679535914
Cr 9.25597830213442 12.419440859617158 13.444370159465599
Cr 12.411519906206651 12.087709703995586 9.720999180269011
Cr 13.432600213654876 11.988537708340536 14.301984052464677
Cr 8.619703045634482 12.126618156531386 8.708628426662118
Cr 11.01319232624844 11.551214135858661 7.384707592146449
Cr 6.4380282039068435 13.060196395229722 9.697780896071736
Cr 11.302600835600423 12.680034908264354 15.251733432183254
Cr 11.693790444604554 11.233866489585935 13.063022415233638
Cr 14.190296483859596 11.273033137289023 11.737875273402151
Cr 6.107699241789736 11.302204699414931 11.352740488028962
Cr 12.164887377888238 10.013565483932936 15.317771013084368
Cr 8.2686684331515 11.942386592504803 11.206336282425543
Cr 7.558935443698071 10.949565942788025 13.668881680444292
Cr 12.136320075613336 9.722342429769034 10.960100842319926
Cr 16.462849048445097 10.444846306539032 10.717891253879623
Cr 9.950368055116344 10.715414642053645 14.901872043436462
Cr 15.82149256070582 10.374787875489954 13.436972069859682
Cr 14.284346080798082 10.409201174955705 9.34541678027144
Cr 7.313425072604843 10.416149591963586 9.163393083590455
Cr 10.038567058088711 10.625969203515771 9.66465610677102
Cr 12.069380948057741 10.062039423630502 8.213724460916
Cr 13.63560006584272 9.382981825663467 13.221000397676939
Cr 9.395612167566544 9.599579285057118 7.455046314398715
Cr 9.555029381058118 10.179165196183188 11.958083876033097
Cr 14.773769444842358 8.78875943926147 11.402895026682932
Cr 7.466880608017092 9.182585702064037 11.715149053698264
Cr 13.523317662392161 8.11984520359108 9.398055212450412
Cr 8.788302620529414 8.626268347371507 13.877726320565865
Cr 8.722233095172959 8.635693139478622 9.848670010962998
Cr 11.238048627516545 8.994068577106349 13.45357729228411
Cr 11.069512407085941 8.159125664742637 9.484178166612043
Cr 12.550977949456938 7.565691806144548 11.65801060408815
Cr 9.719043593541032 7.616571391950799 11.80936690604292
