43
Energy = -338.51993679 eV
Cr 12.594106460626275 11.465895082734786 6.988652818288284
Cr 14.02090269520149 11.098867813195518 8.824537513106346
Cr 14.163297241200343 9.453195716675395 10.86791616943247
Cr 11.577403832263268 12.211580993184127 9.106316816573305
Cr 13.917625218282378 9.01763504568313 7.860873276737706
Cr 10.427164118466608 12.475969973675172 6.631398874482599
Cr 13.235369919212692 7.634993094099348 9.690373671973727
Cr 10.012266168606866 10.43277810116816 6.4133368551575165
Cr 13.420328393546905 11.95316206913575 10.855034694519395
Cr 11.507781568155975 9.532274027351065 8.15128105974121
Cr 12.75311894188324 14.152778186445065 10.581140699135227
Cr 12.118523179284107 7.967584667730571 11.878407325339385
Cr 9.433606259316536 11.300493474296683 8.87027812013661
Cr 11.699815644967375 14.251651817825921 8.137053096637809
Cr 11.808671560982143 9.933626860210422 10.349173101824766
Cr 10.39301680212499 11.70204016667569 11.382535787755078
Cr 9.269567286532364 13.838199501253394 8.63229305460455
Cr 11.162168715522192 7.399824518405455 9.415428671221628
Cr 12.880061005255364 10.446539016536322 12.79370406248519
Cr 14.31828077289847 8.133028931818702 12.308596608714076
Cr 11.944005298283097 12.919900319588404 12.736857656284249
Cr 10.600335020051364 14.191892656611419 10.712502559638482
Cr 7.970135617986296 12.382952400088913 6.762496382073018
Cr 9.77816034614867 7.591342045459355 11.706332090302904
Cr 9.296518714914152 8.337860352273754 7.8163958828920235
Cr 6.7926209272990725 12.556740455058808 8.51303453224019
Cr 10.957549371885886 13.596091635252911 14.483022465980632
Cr 9.232199248013906 13.263050358548693 12.803631916874055
Cr 8.154222330387737 12.998893273402034 10.347660423715716
Cr 9.187653248509106 9.367715420272612 10.176602269611235
Cr 10.668230983721088 9.849002242515741 12.788597881246664
Cr 11.683416239755598 11.234990092189223 14.821740066996016
Cr 12.423974971331553 8.566574504372257 14.251820239003301
Cr 7.648421856635496 10.068911002900496 7.718056327297751
Cr 8.525356438938196 6.7879263316800635 9.585958695645164
Cr 6.868512805310468 10.63340203335104 9.902107907521826
Cr 10.493175115682487 7.3340089276921345 13.889370829560274
Cr 8.307221148789157 11.018799473971182 11.729121883142806
Cr 6.836622974899866 8.016759641141904 8.874438802873309
Cr 9.434248512779732 11.379089110006076 14.002824748929042
Cr 9.752382636860384 9.123324976171354 15.10082485195829
Cr 7.2499598139356225 8.3735562941458 11.409692359754688
Cr 8.43817059827991 8.96126739993183 13.08474695331883
