49
Energy = -386.49214859 eV
Cr 14.611787141091634 7.470253273526064 8.59174706802681
Cr 11.839626222813228 6.743845641431112 6.084617770481126
Cr 7.470105669955212 11.228239593787643 6.3882649273866
Cr 12.108003213327157 10.092570722746798 11.14861549174597
Cr 11.79565020422097 10.940831833945449 6.853733079530476
Cr 6.504616307033143 6.048562431314271 10.33676868876548
Cr 8.8988967875817 12.95137840122432 12.903531045735882
Cr 7.439359691219015 10.565378515770773 8.942122489332942
Cr 14.165804873090629 8.80351617909637 11.431006384767674
Cr 9.194144297437937 8.481760371406613 13.080839483582679
Cr 8.348883981876808 8.2235936491786 9.124070395107706
Cr 7.387001770869814 10.567835929367376 13.292233551855777
Cr 13.55089127626835 10.096607782842423 9.037138957012074
Cr 11.65206414277406 7.969720631793631 12.152573808133486
Cr 6.409887108985181 6.619311344750198 8.277993795225303
Cr 7.796892257680791 9.199688668137133 11.321962289548212
Cr 10.611996866941437 4.975928400183906 8.061145312277958
Cr 5.874458913384928 8.568400581430113 9.61704596392214
Cr 11.063585108906096 12.332120833007862 11.388110456909498
Cr 5.705324141003291 10.573609657702104 11.042590718730755
Cr 10.645267680754836 8.857595632264635 5.930211122758505
Cr 7.6255173590042915 12.880884198925507 8.581028003256113
Cr 8.760693675617434 6.013103288084669 8.94200091996836
Cr 6.850623608880416 8.690722476302911 7.0749862064023565
Cr 11.602428778771937 12.126053861028021 9.618412616347543
Cr 8.889565177730983 7.033876462015282 6.755115357135882
Cr 12.741640015168429 7.883404720348832 9.873057831640844
Cr 8.580575171237735 6.560370985022125 11.286308500646372
Cr 10.249961496446598 8.330439981961627 10.689520273704266
Cr 11.253360505504144 9.732678152634637 8.690076976067056
Cr 11.01896508601105 5.894362939901623 10.318183931804219
Cr 5.691969197964594 12.48150465598089 9.891947937347265
Cr 9.538074739228797 11.328710355013481 5.394208873868913
Cr 12.778127212896445 5.869795015195637 8.171090867247713
Cr 9.191052366795425 9.659452267157894 7.478415148595945
Cr 9.620826978063665 10.644782196770286 10.048240726217001
Cr 9.841264114981257 10.322444277689119 12.562391303166685
Cr 13.263084647344836 5.868338320262292 10.688685788097793
Cr 8.01149605380625 11.831564790414221 11.050693092991402
Cr 5.519211258338525 9.893902439001055 5.53127942203122
Cr 8.133529385072592 9.081750809282196 5.120280404718371
Cr 9.688560099332335 11.90891526953389 7.821718527325567
Cr 10.828691178373216 7.491215026246015 8.28026036879836
Cr 9.272958272592795 13.328340618332888 10.107833051276582
Cr 13.001195909673221 8.46541558725183 7.241692388315407
Cr 7.046245360155332 14.210047122831876 11.00413231307284
Cr 6.104137944994712 7.909905683912401 11.874730056881486
Cr 5.429596855485381 10.531884972284029 8.181590407321602
Cr 6.298078667856165 12.621062226253668 12.621474679461343
