48
Energy = -379.10009157 eV
Cr 12.407228904841803 10.0674154851245 8.47386891289383
Cr 8.692673030696508 9.051603657785352 7.0474681139932045
Cr 11.32096970342523 9.644058028278113 6.5670164464640965
Cr 14.139534719671849 6.489860048195065 10.802544048618431
Cr 12.526409651504615 7.699143282799072 8.272369268329765
Cr 14.38906075696424 8.45479501014464 9.596985339749503
Cr 8.001051634528473 9.66232521951479 9.235834098336715
Cr 12.107727713522038 12.284693124434547 8.539846180961606
Cr 7.569982305287505 11.533479869550664 7.439569354127835
Cr 10.34689688277879 8.477946148769027 8.588715604346339
Cr 6.0359091233518924 11.052705618140664 9.869439439373869
Cr 14.148063980641352 11.134292540406928 10.095483134957346
Cr 11.958774069165711 6.960404233028798 10.465436038992905
Cr 9.93147862246412 11.137283728775197 7.851447443743128
Cr 15.144952417641507 9.106570768545543 11.503761691780701
Cr 9.29674586622992 13.606617101230084 8.052508827327852
Cr 10.391128940155884 10.463358101869185 10.204564920309735
Cr 6.908011935654999 13.284089397554045 8.866046600988032
Cr 14.238957684191332 13.151201224946087 10.000980370308767
Cr 9.535917296742312 8.298006704106596 11.131716824428157
Cr 11.021059403051948 7.336622932653985 12.759258609604894
Cr 13.253281573703953 8.001547551581105 12.596306300350388
Cr 8.50556633499349 11.79527188908061 9.868816274429973
Cr 12.425733024851976 9.192767379821582 10.675355285960292
Cr 13.729572573611716 10.649661248507766 12.848537907404904
Cr 12.11767738642797 11.892604774484802 11.281279434349242
Cr 8.504857321828577 10.018050522670066 11.992576544817734
Cr 15.515727388068106 11.934327896592634 12.088472513711254
Cr 8.478022510462932 14.259222467303465 10.765280774023937
Cr 11.104915061717735 9.846821164712361 12.570466469969132
Cr 10.509839161387285 13.09894015126007 9.882809627954005
Cr 14.825592386581766 9.190023696343452 14.2531654376322
Cr 12.353943228916775 14.719583546155274 10.109038004159475
Cr 6.994699453503921 12.432036352782427 11.571822217867329
Cr 9.6317132467689 12.135214884098225 12.238455775416773
Cr 13.39351815262701 13.473642928888433 12.289684239325954
Cr 9.403078063224838 8.769640063016709 14.105747765098975
Cr 13.536096404052307 11.404580015538334 15.413758420206706
Cr 12.00415836707416 9.47028987464356 14.420034524310347
Cr 14.952418933936507 12.519919568813306 14.459066658953393
Cr 10.573078346107105 15.653164494845525 10.17030422323561
Cr 9.231801598459931 15.858896427176338 12.494339148048564
Cr 12.711928463010338 14.014922347410897 14.496051496196653
Cr 11.687574424890995 12.03019248784659 13.882245162008997
Cr 9.609817833473114 11.267481220669048 14.285049135208899
Cr 10.900555747403398 14.199628313228548 12.323581727715936
Cr 8.284900390677702 13.697521244706559 13.403649698598636
Cr 9.929297996688328 13.85947527893215 14.431143980370509
