44
Energy = -347.37535147 eV
Cr 7.4625793983969615 9.211684085714293 4.18427462706762
Cr 6.681929552960015 7.654625701451046 5.6281742995977755
Cr 9.818731606259263 8.628451482897251 3.7641222476202936
Cr 4.900070295536679 8.949623090729206 5.774914347965095
Cr 8.784452304356902 6.708018856214543 4.572118840606781
Cr 10.941246526814504 10.2594597905975 5.6637458810116765
Cr 9.221347511154303 10.935253864625519 5.316427511673208
Cr 7.008604236801523 10.178931588662548 6.470411606221648
Cr 11.52693178965558 7.746585479747639 5.8379565972292475
Cr 11.013540858750861 12.051663324598827 7.555362523369192
Cr 8.9467704019593 4.465349096736707 9.114005690720864
Cr 7.988105996834779 6.049608075855038 7.073610847488023
Cr 5.539260088942757 8.494359750559848 8.088647462529531
Cr 9.107504785377564 8.501291055404359 6.163378864632432
Cr 5.124587160296487 11.038183656273103 7.68269548852001
Cr 9.84553323532253 6.105796036678869 7.025789084047754
Cr 12.638049502202481 9.855902414634034 7.420925585067005
Cr 5.202715546984743 6.236338910817403 6.822975076027646
Cr 9.328416314112568 10.571669683339158 7.818490311135562
Cr 7.744813732990152 12.314669088985854 7.414076152874447
Cr 7.190294240032956 10.315092089933756 9.005498874383644
Cr 6.44148661015628 4.171358102606501 7.962736957489734
Cr 11.549801904586674 6.164755581573107 8.739801632003225
Cr 7.961993259238105 8.321016733367783 7.998574538386297
Cr 6.483740966039514 12.084788143728565 9.940544155483227
Cr 11.464128543600857 10.497813742556016 9.589613562290587
Cr 5.066397757715929 9.802594668896976 10.318056670621996
Cr 6.583803874606193 6.222992762867764 9.180716916535832
Cr 10.548009774802866 8.44582943759651 8.112860285642114
Cr 4.375207077848071 4.640235552675606 9.116368037453068
Cr 12.99650950536118 8.45282389107729 8.507834455072462
Cr 6.564184631067546 3.697611432495644 10.350208337671045
Cr 9.20635600675758 11.824855950882407 9.85688841358118
Cr 4.123938867987506 7.397140874822466 9.405795841991685
Cr 10.524046663140549 5.8765930187276325 10.859138377638827
Cr 9.223255266265832 6.922880366200213 9.407114986627228
Cr 9.193114769626737 9.335515245319463 10.122401002004713
Cr 6.842537241758251 8.178715050031885 10.514842734077533
Cr 7.512041656630155 10.266445073331315 11.619806929291029
Cr 10.470680048326765 10.354954056959137 11.855840121434229
Cr 11.336284308231763 8.176017255392585 10.496541151144706
Cr 5.031499226591825 5.811602020839802 10.829818326514351
Cr 7.800815998002716 5.569242190011004 11.104903599724222
Cr 8.902588974161713 7.729569741829353 11.929899065778574
