42
Energy = -331.42832245 eV
Cr 7.505351464375739 7.4078066566127125 9.421893873367388
Cr 7.5755791150451595 8.386869525726794 12.067329580864415
Cr 6.991460628620107 10.831285657145513 12.747008888316504
Cr 7.405774403201631 9.875310240962643 9.836999027147622
Cr 7.994748760840302 10.68482940257625 7.599191713672253
Cr 9.378776212181288 8.280444464496128 10.582666676085324
Cr 8.531434714142577 9.912018061542682 14.094230487073874
Cr 10.260012424002229 6.668493795268472 8.95396567923504
Cr 6.672492869688085 11.877308920196132 10.612903542868063
Cr 9.152041541545938 8.802488779788723 8.009301316114598
Cr 11.13524673407533 8.254977312881808 6.754257524405912
Cr 10.097287343983242 8.967817438903973 13.067948961120438
Cr 9.905538273692164 10.36902821694813 9.304776550462014
Cr 8.393055089208111 12.14961877690254 9.428316970341172
Cr 11.137064391859647 7.0912077009314 11.565968293147675
Cr 8.61203890505053 12.579805368443905 14.310128694150109
Cr 10.780245644578665 10.617797861704426 7.16456564821978
Cr 8.816151377202035 10.657148269738187 11.546855068675452
Cr 10.447018375016615 11.642489990373376 13.20752034295937
Cr 10.574225762719099 12.909143321110836 8.441709401180105
Cr 11.738878119304298 8.606281107336175 9.286259126635743
Cr 10.637557619638125 12.338829351239545 10.764792575671862
Cr 12.393472664581335 11.295649558463188 9.210879671139912
Cr 12.935066618881935 9.962641931094105 7.597027984999654
Cr 9.032233291103253 14.367366724040588 10.106421541535155
Cr 11.32638465942523 9.905581037367844 11.293650138535618
Cr 10.89929209023331 14.76419960499558 9.852127853370382
Cr 10.920619610932745 10.335257277568251 15.223575977988032
Cr 12.866466408064774 12.305843768225017 6.873914847643576
Cr 12.975802230752477 8.483809058219387 11.942053406211448
Cr 8.374747773789665 12.930956054175402 12.030568557437403
Cr 12.431897056120127 10.077481276264958 13.83923811275778
Cr 12.034127780582642 7.688292155029162 14.280407711519247
Cr 12.482484462393929 12.600252441516156 13.9133690689519
Cr 14.968626051874347 11.274056478232144 8.314473341034834
Cr 12.60110855293977 13.478251624848408 10.92431809403305
Cr 10.421249992495058 13.977320018468642 12.398499319722772
Cr 13.853161761596489 9.649914599502955 10.093655166501337
Cr 14.770656808068102 10.041711371627047 12.738675421817657
Cr 13.11560305017363 13.819505582210523 8.58592466248977
Cr 13.037337401465827 11.483748551014127 11.84798879983396
Cr 14.731494274876935 12.309144077502308 10.168092894889174
