42
Energy = -330.34531949 eV
Cr 10.471286036365015 13.913762224157974 6.928493588035502
Cr 13.57126758975316 7.240615165289502 12.36064738133765
Cr 10.44502584484358 9.71381407875648 11.913632903175488
Cr 15.077179474737077 8.920948302909332 10.829614324877712
Cr 12.008607359083785 11.193300051836385 10.031152814736474
Cr 7.455946365141176 12.15468482784298 8.871517087584737
Cr 7.719187005570402 10.77018057976085 7.214942561604687
Cr 13.286406598543266 12.985281548686448 10.668629422320128
Cr 11.074980112084155 13.67005667098027 11.762693698659355
Cr 6.535206937125745 8.686323083459559 11.39280176216021
Cr 13.525993320858465 11.389939993781828 14.60738463192527
Cr 9.189191426064845 13.950191655647984 9.574625990647252
Cr 12.370930589040345 12.286523238437649 7.6323416016055425
Cr 9.736290475934567 11.869498550876958 10.877199260981538
Cr 9.58999573108724 9.021671877427533 14.200616149913497
Cr 9.287107840467636 9.251731775990853 7.626603673127053
Cr 8.31583043794099 13.463949851199134 7.038351141658954
Cr 11.923284477882088 11.530817843805407 12.546211710228658
Cr 9.837878892937166 11.630188532680455 8.359484154959148
Cr 12.400200547363022 9.258208535840144 13.637621754575205
Cr 7.786215408095501 12.314623452849002 11.59203311615435
Cr 11.18121402118194 7.5295061771377245 12.909633603039044
Cr 12.89190609328391 8.743746716658123 9.090161149042626
Cr 13.44815242013399 13.547492873009832 13.121070850765246
Cr 11.22872060830073 7.216078289261992 10.722044827869151
Cr 14.751336927667746 9.098157102397842 13.189696951064306
Cr 8.529400470667417 7.5765470332131 9.51019646185038
Cr 8.934112406450435 7.932152530554418 11.56320025186416
Cr 8.318706213182937 10.09438565349516 10.015818785089412
Cr 14.052616118311146 10.596673100739304 9.325264045802882
Cr 8.161835639314912 10.313574636949232 12.476187839499243
Cr 11.224830625999916 13.63154555525931 9.30339699721632
Cr 9.744361114411657 11.885312556758738 13.530232523469838
Cr 6.235495532255254 10.848627549873465 10.485423253889191
Cr 12.84127857705742 9.084993606332297 11.249140423353312
Cr 11.655789160519726 13.549504316829685 14.284888915339259
Cr 10.565391533056449 9.258959377734548 9.582223666690439
Cr 11.441237777624737 10.955395929416015 15.165750680543434
Cr 11.850864945475807 10.214066619238123 7.4157354141100384
Cr 14.096570792142053 11.137092117570393 11.921976681778752
Cr 6.53410756047324 9.365211492385704 8.633770174940347
Cr 9.92642829352737 11.382413829105289 6.048601713043777
