47
Energy = -373.70356074 eV
Cr 9.280275934598343 12.572884894330555 14.045014299067399
Cr 9.223167453985115 9.995145863825691 8.576214901815554
Cr 8.176011569262657 7.869306330977949 9.740637166156278
Cr 11.246702370925693 8.764121222838353 13.386806313449593
Cr 10.732752378600274 11.525485422472963 12.441359998478482
Cr 11.267049393038475 10.882344896720843 14.98545432016644
Cr 13.470868624486263 14.156331697958052 12.914262470408215
Cr 10.999877905267565 13.352089064547414 10.442996825005581
Cr 9.465709635117124 9.506549787427106 11.298690808904661
Cr 6.676698397684022 12.64282522865354 10.835464957936813
Cr 12.7465967952749 8.706430501119899 8.760083219685733
Cr 6.407313161093829 9.405685199417853 8.37339441370035
Cr 8.78579098559113 13.684955433986723 11.888744030401236
Cr 5.364895857821426 11.654218515760641 8.801317393547722
Cr 12.96316007998744 12.02961544248313 11.33517771583068
Cr 7.78764655725173 9.880615873000501 6.48395677414933
Cr 13.246089983321824 8.992306181338654 15.146571547375297
Cr 13.190891787893516 10.642064969442778 13.255355159542834
Cr 13.171888796845613 14.487452311887182 10.517364943649925
Cr 7.8966823859747866 11.22556371389421 12.565847318528105
Cr 8.571329340939768 7.7130678580993095 7.816885437672036
Cr 13.971640519352098 11.00066932562665 15.781865707047265
Cr 14.008985122722741 9.919214664048123 10.647178195984788
Cr 11.096768133279573 13.944544119842316 12.494083841071332
Cr 15.755125301263538 10.677482455370837 12.057684320056312
Cr 11.447877748037307 10.491130072066367 7.260670484863077
Cr 8.964850254125816 14.140112611995834 9.506685060396336
Cr 14.074702098988721 8.408486210510778 12.542572529008904
Cr 15.654344763251075 9.724826643562954 13.99669826788645
Cr 7.622200150981264 12.005903841318002 8.291830346299111
Cr 10.087865942747142 7.292851385012832 11.719966995618988
Cr 9.175034874888588 9.764555909069689 13.784902116368393
Cr 10.68299872055978 8.198988281485798 9.363631641068658
Cr 7.184425232739913 10.255041887017736 10.278759042234741
Cr 14.59311125100856 12.119237357018026 13.879599198037864
Cr 12.082497907233611 12.547922991525509 14.552811178712291
Cr 7.273988999674971 8.806160049489277 12.046377188728178
Cr 9.111287864981259 11.744269866201897 10.432778464294097
Cr 9.290238224714948 11.336221099815566 6.217335591950791
Cr 12.612562063709065 12.838761156903292 8.591537676037323
Cr 11.900799916336563 9.335474943394082 11.321519377546647
Cr 15.432834134207848 13.315769876856624 11.671035646759321
Cr 10.471155408598893 8.739025700580566 6.7075847152677675
Cr 13.621449320454243 11.036606117440051 8.5020617797594
Cr 9.982094644131106 12.457661145355496 8.206739386416489
Cr 11.37621069662616 10.852175231708154 9.780389051541162
Cr 15.02210076580707 12.526396101982392 9.920651636953433
