49
Energy = -384.34951247 eV
Cr 10.12683422567434 11.5089768697155 8.625919060086147
Cr 15.46250495630046 14.309728330265559 9.760572887584509
Cr 11.702565046822366 15.710653907533867 9.408214977640512
Cr 9.391988521148978 15.487575846748921 10.351870980102888
Cr 13.316562221220002 13.340750740827142 8.875689876995201
Cr 12.382499709225394 11.052673912708354 9.20628767276665
Cr 10.983795684566855 13.381610248331766 9.648706633013697
Cr 11.38120137644744 9.089507559221396 10.436468130254262
Cr 14.204479157312335 9.561117276131258 10.168075893425467
Cr 10.322460214968627 10.957227441614807 10.71594366082185
Cr 8.89124409992031 13.149432716252482 10.664440964723797
Cr 17.286986820098697 12.765015415560311 11.592938715488607
Cr 12.531175637905424 16.76998031625676 12.143308189978129
Cr 15.188358055198064 13.668207876443647 11.967648255444326
Cr 10.793879514133586 14.800196374891792 11.783474054945236
Cr 12.484525693442842 12.499221475506763 11.42537960935045
Cr 12.822050585006723 10.243547520204142 11.717905926140233
Cr 14.582766735740622 11.873147483327635 10.481584516571871
Cr 15.223636793038347 16.268479436596117 10.95800703392223
Cr 14.748762011439183 8.705697805796463 12.521538769889522
Cr 10.643213530426678 16.202217091273276 13.495031306436285
Cr 11.819713688449685 8.085264175709364 12.81332146326859
Cr 13.175702443349806 14.807288444499708 10.800762617404407
Cr 15.985889617943924 10.809364433625818 11.914357562590798
Cr 16.69479855657242 12.464070163759782 13.925966665115215
Cr 14.523783059397198 11.71393679760955 13.370433409742631
Cr 8.44306753464534 14.771834090870428 12.725074329373017
Cr 12.037564733901974 11.588932826513616 14.118530291248648
Cr 10.59620621820283 9.955120490164811 13.001116140784605
Cr 14.33019866024062 15.886928679778816 13.080041040881703
Cr 15.793598052902043 9.771974647708266 14.363445297409458
Cr 10.288537908772701 12.581169513599635 12.631226646833635
Cr 13.170864669949042 9.53322058170537 14.12404698363875
Cr 8.030592585523324 12.946488502664232 13.634955843203155
Cr 15.684538455761714 17.438231818764816 13.781161984472277
Cr 12.743797666600033 15.77477722769355 14.876111572149568
Cr 16.6808294329742 14.864521559467534 13.401099840831442
Cr 11.028108625481845 9.334732251457785 15.377475114286119
Cr 10.347246452989943 14.157850131274168 14.42642688606543
Cr 12.61544751833956 14.067266801839178 13.378062296105684
Cr 15.198615155742583 15.786681923864592 15.581614478125333
Cr 14.339534566820953 11.449188315463246 15.783951063335515
Cr 9.793597282273927 11.626402079872442 15.100583372861596
Cr 14.18852870358639 9.233600820778685 16.110878334180203
Cr 14.706191958403467 13.94170924396533 14.704897823194555
Cr 12.270396631366623 13.251897360213508 15.772378522393556
Cr 10.142154581048393 13.047915525465315 16.649812606870334
Cr 11.972101163974001 10.712313594560824 16.44308658892404
Cr 13.74615563455626 13.871604501710069 16.979426258936584
