49
Energy = -391.2140485 eV
Cr 14.185146329349973 11.24187084061536 13.929474605785156
Cr 13.588515958329811 12.714466673527848 12.002164552326558
Cr 14.752362059375864 10.086033101795186 11.819666039285487
Cr 15.24802206969319 11.399185669063568 10.34452884912262
Cr 13.573470454810954 8.997898251829175 13.798890848544078
Cr 12.0054837719926 12.259905303129079 14.543662072000785
Cr 11.83064753347751 9.82074376220909 14.991671274883414
Cr 11.902731296236654 10.832381859860481 12.412239607851054
Cr 14.441345229136216 8.998748582547138 9.28964570706867
Cr 11.296409775007474 13.604182834178298 12.663751225259725
Cr 12.860550177676556 8.58555398399254 11.166991122056647
Cr 13.767232725880367 13.266612089355055 9.334600381560879
Cr 13.699360590360403 11.320304128573445 7.672538024377263
Cr 12.957566661265105 10.95043647772676 10.165887162450275
Cr 11.114208630000174 8.656518242379398 13.035431360294728
Cr 9.808438943458906 11.389726211806458 14.077884733456447
Cr 10.709672209875022 9.600819844575302 10.387409354870819
Cr 12.195663808858988 9.460099799113083 8.421670580520372
Cr 12.032658918271903 13.61867381039161 7.661256518931342
Cr 11.345354097864606 12.575080144613695 10.319866861780444
Cr 12.30501499561545 14.83006660075397 10.237138940684666
Cr 9.670925516698988 14.554243183202392 11.07669112414139
Cr 9.145118114658825 9.221059723807413 14.779239362503159
Cr 9.244946269434644 13.554929009026282 13.751249671238476
Cr 10.943093564700119 11.56717516060119 8.466047247018093
Cr 10.449780747583336 14.448856476966602 8.590448489795456
Cr 9.538766985204447 11.921576395082816 11.71070720909104
Cr 11.885319640945252 7.186081187548829 9.22426002845182
Cr 7.508870831266733 11.206177965920816 13.431213483745625
Cr 9.77964043753095 8.070879374881976 8.46371221239447
Cr 10.432990782704659 7.341155384169692 11.130452720082808
Cr 8.64071173666389 7.2509089645702 12.585513950202442
Cr 6.420136079527368 8.970554013951661 11.84013115650084
Cr 11.216178934821572 8.252501106655513 6.499660980672345
Cr 9.144314389933017 9.627654604089802 12.22677467267318
Cr 7.321462258705025 13.2638435138096 11.436451832167844
Cr 8.814680076581464 12.733186772169368 9.583032228827493
Cr 8.862660307469516 10.498425184936194 9.208752013658614
Cr 10.057134576489469 10.288312781453794 6.714354144821818
Cr 9.003068887513765 12.563420384521569 7.114427167465463
Cr 8.961010534843046 6.161084506223203 9.942305456012045
Cr 9.633199055655494 6.040090193213672 7.169326315497008
Cr 7.205704258862673 11.04272273682311 11.041310730203188
Cr 8.06052302369303 8.406966001531666 10.407846943042689
Cr 6.689570295772085 11.928262285375562 8.895228758869887
Cr 8.66495173318272 7.862035219392106 6.002335483004371
Cr 7.338287656984624 7.469463450451393 8.151597258108318
Cr 6.222958535276943 9.537540576179 8.955034872345747
Cr 7.778853558750506 9.917482743857137 7.096628562976069
