43
Energy = -340.86044832 eV
Cr 13.65049718876529 8.49457510439776 8.878158901801182
Cr 14.388626173133094 7.290836374909876 11.324749366198304
Cr 11.559686536679507 7.749031204239301 7.380665598864384
Cr 15.330649257948227 8.918512023219348 10.933685149449763
Cr 11.784759556031933 7.4074097386179405 9.794954986282047
Cr 12.973813501855604 10.506136091375943 7.629565811798738
Cr 8.873916528826552 7.473070682420367 6.505749564323644
Cr 10.766626017992305 9.25573097730494 6.375950286867344
Cr 9.741951288547389 6.374828219674089 8.849856638061505
Cr 13.956628283349955 8.919601305558977 13.365053816221504
Cr 13.711439452338448 11.095167647674364 10.040064531501114
Cr 11.475215998102737 9.893961890411948 8.953826340638944
Cr 11.933608796766782 7.16592802273534 12.081372022087802
Cr 12.848223937881771 9.370509872287787 11.173123985924358
Cr 9.452909929996073 7.141026099869543 11.179462228819494
Cr 14.612776554755582 11.013397505844639 12.332222553141168
Cr 9.35790967180875 8.74970943174382 8.914496709589818
Cr 7.3889129916340766 7.462813966711604 7.66800500527022
Cr 11.698317217097953 12.465494838868572 8.729160577464997
Cr 10.21035441217459 11.437218331442134 7.335603579680137
Cr 8.235883669959616 10.002431592142301 7.196445650876537
Cr 8.735082109689879 8.324059921587983 13.103869592630932
Cr 9.172175178881012 11.306344277696354 9.48437617751223
Cr 9.474194325206586 13.613195065865801 7.757500739258591
Cr 6.897002874622194 9.709229070853747 8.861550410126652
Cr 7.373190185133812 7.823844309719117 10.268315673203942
Cr 11.15677234918798 11.512309976321694 10.906238716220921
Cr 11.28362369169794 8.992011954110616 13.498108802729321
Cr 7.548355313731618 12.244106248133425 8.063139553628718
Cr 12.47691761939705 13.37177378509226 11.262275312675882
Cr 8.17770062150941 9.706039036719755 11.22419208392745
Cr 10.472680384681965 9.230305907200414 11.201475426602958
Cr 10.132002595600246 13.832151534594372 10.15482191644033
Cr 12.367035296605032 11.099444343887194 12.821320942281774
Cr 8.655586418047536 12.320064840314485 11.66487336987983
Cr 7.95473731042204 13.83395528949789 9.859499828049982
Cr 6.647859431497524 11.537578716258981 10.383106558835077
Cr 9.777780593509254 10.846791189843106 13.078031687142591
Cr 10.753857651265644 13.235880959798907 12.872757384835147
Cr 7.154424285293136 10.954777893581547 13.028454005659349
Cr 8.764566683647791 14.892268912160702 12.201666220342354
Cr 6.991442351015083 14.062078870948165 12.350499156273283
Cr 8.81584927959701 13.07551173907302 14.167279808196177
