45
Energy = -355.49890345 eV
Cr 11.985298681654209 13.536934268056923 10.315854796433525
Cr 13.622252924019561 12.28196884721722 10.527651824222197
Cr 13.62166673551168 13.265019804268864 12.88860358149184
Cr 10.675699362979572 11.408127202004856 6.2783226012306725
Cr 12.162048378230045 11.499593385715148 8.655199277052624
Cr 14.08004417629477 10.562644385898826 12.053672370599742
Cr 11.397105109606915 14.357211392416835 12.808219084549865
Cr 12.74612861977511 9.916631123101544 6.8884949975918985
Cr 9.803218134952962 12.754314140446661 8.379315690794913
Cr 14.230917605484821 9.9728919149658 9.33746708843752
Cr 9.728748135566338 13.935351069085735 11.256013911422398
Cr 11.599835494559173 11.767048651599854 12.270645792401227
Cr 11.351072075249277 13.079910269090526 14.616969126668488
Cr 10.316806981207824 9.201456129731536 5.6894737301039005
Cr 12.968576309417985 11.540883822853536 14.338863636720859
Cr 10.09212032899063 11.655531263769124 10.347020322321518
Cr 14.432534448116588 8.175376701907096 7.920698080026245
Cr 11.947109895433464 10.18465029923946 10.521050381057492
Cr 8.635323001910253 11.183841715608542 6.51774884639421
Cr 10.370470706693835 10.164659611811624 8.027751861466376
Cr 9.161821907727619 14.551463023719478 14.024719473825359
Cr 12.270291757406955 7.616891632109196 6.430182772007898
Cr 7.665654778968782 12.772415867089007 10.385549074815644
Cr 12.7181266725506 9.367863856833681 12.888927560209199
Cr 7.6809479407231755 14.337261294196317 12.195445394259602
Cr 9.322495684251248 12.304973593249505 12.92143658173208
Cr 12.113599501290247 8.343289146780995 8.925899847603123
Cr 12.563896328891522 6.405380251251453 8.399686092961993
Cr 8.123290013457458 11.01177148697905 8.824876323366263
Cr 10.924428419568814 10.381231551792341 14.469948502773464
Cr 10.081796369413622 9.849109105945482 12.423425726566771
Cr 13.669237415570414 8.115648547683252 10.658397221145249
Cr 10.165802703770375 7.312707796326765 7.822750820437565
Cr 9.619526837932877 8.914022380141072 9.932460561274214
Cr 9.04257341631871 12.110733297407537 15.426483265627256
Cr 6.718360667890367 11.635766510035268 12.406971170001135
Cr 7.160907085288212 12.717324313176098 14.284450200744283
Cr 8.37652025871975 8.798681654671482 7.437465650347809
Cr 8.065846399286684 10.434405520457878 11.133181625937912
Cr 11.326942198730462 7.862938412387695 11.592226167162078
Cr 10.799529626973 6.487951896820639 10.130040448124253
Cr 8.24929112211064 10.26448132824197 13.75944317624235
Cr 7.099597160149337 8.720190095334116 9.367596437633823
Cr 8.71055257699303 7.8992283654060405 11.823499753385653
Cr 8.313916413522808 6.793386155282661 9.307201967088657
