41
Energy = -320.050628 eV
Cr 8.370187980437736 8.064596353532849 5.080946840332171
Cr 8.918702620399621 5.351480501927719 4.693740218613487
Cr 8.680875520206905 10.717272508487786 5.093488488050449
Cr 10.23030213527796 9.269340836038912 6.495733358602242
Cr 10.892667049007052 7.616406093726464 4.771787087753638
Cr 7.130682232242952 6.164419750631132 5.942372474250498
Cr 11.176460550895397 5.473593561008441 5.812581276417171
Cr 8.072453305432454 4.776579946632431 7.470142605416808
Cr 10.300833419857593 11.733778210257467 7.075668179198441
Cr 6.804636816478213 8.895163215719625 5.7178780253564
Cr 9.591401837753606 6.590162458260286 6.808157109629015
Cr 7.755608785155726 12.627419676788998 6.964232111875441
Cr 7.945346284052441 10.612648207432507 7.3549299659277
Cr 5.86686113566604 11.194530970376574 6.060978997030521
Cr 6.223259797797326 6.9258405024128065 7.846579585070636
Cr 12.112680710733969 9.719031349842918 7.980547987650437
Cr 8.543672349395003 12.218492126452594 9.341111201588665
Cr 12.160161355550448 7.136753730287466 7.12634488888677
Cr 5.854649152169922 11.60949853249702 8.775532045084766
Cr 5.67972384719574 9.41004974216891 7.9634598521694375
Cr 11.06790284335858 11.470626323931992 9.848781706042532
Cr 8.080071412242303 8.177368885609226 7.854694156859544
Cr 4.224779756584933 8.078147011274426 9.363795392473005
Cr 9.876023456833602 10.122024798163544 8.949919592972964
Cr 10.609196919762876 7.738090052232599 8.730714250060439
Cr 10.71456242802778 5.211928370500239 8.468813712123815
Cr 7.476043544169725 10.03758334340754 9.696045703848547
Cr 5.104513825744439 9.943555877882613 10.555348682726196
Cr 8.53314503008516 6.024021481516233 9.36348176698496
Cr 6.469966085204143 7.688968268157081 10.017084059580101
Cr 12.42547297148778 6.46862644463709 9.741780575958586
Cr 6.370440554082029 5.371083323508792 10.026827849185244
Cr 8.939080347423207 8.269497337263768 10.263668115501044
Cr 11.481848919999345 8.902769084189623 10.65361053833478
Cr 9.318870579844514 10.563408044510387 11.478402854278995
Cr 5.27642985325602 8.066280662450797 12.031166585758426
Cr 10.480305946432406 6.304715603055944 10.973121532862205
Cr 7.294880793335425 9.232492316963098 12.091455246011398
Cr 7.838354915858504 6.805445465024648 12.037373068425548
Cr 6.6268563546827695 11.492570383005193 11.512301189348866
Cr 9.902717710672482 8.34636978302547 12.38803225655114
