44
Energy = -346.10261924 eV
Cr 7.780778771443089 10.869864893698473 12.547169134779335
Cr 6.781706103530699 8.814410693121845 11.339303876547325
Cr 5.716814641922103 10.532882857895748 11.438361367964974
Cr 6.752498478872635 10.423533137039126 9.213613868156575
Cr 7.331054171406738 8.282293339973444 9.133609087510667
Cr 8.50648030833358 12.240329386934109 14.28039851338293
Cr 8.940806970785518 8.732875434345827 12.731314081230549
Cr 9.163211720148183 7.785897438864353 10.316283974731094
Cr 9.866002072601331 10.491576514224027 13.969067674768153
Cr 7.286536064742377 12.18215492673803 10.579400078442408
Cr 8.862699832265239 10.122482247783692 10.48088148825223
Cr 11.529532405531958 7.188669491292573 11.114849734415218
Cr 9.641594102714672 12.077361397899137 11.875915953761126
Cr 8.940507178657795 11.751719111946686 8.272722411011358
Cr 9.086189166585893 9.421963988629528 8.1447266379677
Cr 11.336529676533347 8.17012776029688 13.62796772710527
Cr 9.224758700739061 7.017045758815405 8.039293595876282
Cr 7.717432924972402 13.713889498462578 12.30329483374866
Cr 11.125681137859063 12.34301735568798 15.309455564436037
Cr 13.27408630540816 7.708085767489519 12.078813993967632
Cr 11.292163504045698 9.683557061635074 11.883824536185557
Cr 9.235012765096842 13.200970845655448 9.865173800869927
Cr 12.28643246177734 9.925891877754898 14.529472424101915
Cr 10.105913374945272 13.621299057246029 13.464535834257202
Cr 11.046356538922579 8.826891656356183 9.225933214397651
Cr 9.965163063569273 14.798415826569366 11.304933698516374
Cr 13.723619555929897 10.025239430033853 12.831244335974445
Cr 11.24533412417279 12.915482123365715 8.271278531872426
Cr 11.087220227208505 10.689053051852996 7.134248184404708
Cr 10.728363964377099 8.535111178868444 6.633409541655856
Cr 11.053449147264054 11.176574211844171 9.912246755902844
Cr 11.027167170056243 6.596728799468059 8.445605671180756
Cr 13.893827474041936 12.077021894389235 13.477971790501703
Cr 11.833693436624243 11.874001258199215 12.979541091348592
Cr 13.076963474895344 9.305371225403695 10.301252590406795
Cr 13.199793526853508 11.494745102572837 10.962065809527884
Cr 11.709612951263885 13.47013167807318 10.977039957158569
Cr 12.998293080647846 10.899910813066025 8.409334821824986
Cr 11.627156365001985 15.002261688971423 9.084237627545109
Cr 12.914691914657613 10.223831302762294 5.7943158899172005
Cr 12.853209869695688 12.821297264205883 6.683286074032861
Cr 12.67390767697344 8.474181614566483 7.585265696885577
Cr 13.17773697113083 7.0278718834577925 9.490069302037048
Cr 13.67060685886356 12.978650553203877 9.345419304685626
