46
Energy = -364.95388497 eV
Cr 10.882193116449267 6.828967365206908 10.624569276140425
Cr 8.67092930724207 10.648010649501936 9.900094450399282
Cr 8.1968174002363 9.034505415829909 13.575636893654659
Cr 12.739383697754908 9.123865471507095 7.583621119862628
Cr 13.072898777940189 13.122761218015643 9.893257737552235
Cr 8.476445485918804 6.4363434717929415 11.231212119537053
Cr 8.950713781981571 12.264893095592821 6.4369824803046445
Cr 6.638626651190066 9.275346863698365 8.958971324077574
Cr 10.929056505760215 6.942534300101101 8.172120817336467
Cr 9.149726950029278 13.14299435115586 9.044594433194552
Cr 8.802968831958614 8.035811681707285 8.992823240707986
Cr 11.186239023266818 9.154113081096899 9.357341949038938
Cr 12.352777127243012 10.516419874529381 13.809455347513039
Cr 12.341390303218962 11.400546225231468 8.210190891906201
Cr 13.315328525442998 13.036212792349165 14.089952205119376
Cr 10.06697205972923 10.761858094090572 7.8482239973684464
Cr 10.805765837867336 8.580952571816697 13.951907374370231
Cr 11.351565896525056 13.921431075550208 10.78585557558388
Cr 10.149665622054307 10.71781882324719 12.740262636351067
Cr 7.181076469146156 8.875233166634832 11.233451525781728
Cr 10.444217364674513 8.65915179360955 6.7516002060469695
Cr 12.001772147339565 10.491626316211883 5.62578832122642
Cr 10.949979245681787 12.874471207715224 12.905538962850157
Cr 13.428054616980095 14.101844146546913 12.470970688505533
Cr 12.916228812343434 7.618982725346117 10.02823235602012
Cr 10.934430944619232 11.47492622974461 10.401585003203671
Cr 9.373819498687192 10.267129098263897 5.313132926024709
Cr 9.849040525019932 6.94539996146698 13.174929276277979
Cr 12.76615778642024 11.726315982864161 11.823737222259565
Cr 9.154032185179588 12.891368943640881 11.535146335120032
Cr 6.569974859437644 7.161503309971185 7.884947324776573
Cr 7.912910643834248 9.71478964619989 7.130346318698326
Cr 13.398975219013325 10.306737590406863 10.099138641215335
Cr 5.994763850043982 11.23476647381968 10.290561788323892
Cr 7.234233102260829 6.697565836233177 12.809983881897478
Cr 6.990212777829585 13.001899225126767 10.360332664354098
Cr 12.156909259702692 9.030340185966926 11.80074903578905
Cr 10.986856231921706 13.419195461211904 8.213388904514984
Cr 6.371476920702768 6.91881723232246 10.093546400801225
Cr 9.701143944019638 8.84893485050667 11.31900305182972
Cr 8.524456798027982 5.765214469281771 8.841212409873746
Cr 7.829804724862216 11.13651737110821 12.134885802674475
Cr 11.345908778222897 12.33344789500139 5.913562824255901
Cr 12.452944162644908 6.873480591040186 12.544961518264207
Cr 7.419261330908861 11.683333199615085 8.127988373053665
Cr 8.532240948744972 7.501968718200133 6.464552416422419
