43
Energy = -338.36634359 eV
Cr 12.794105829448814 6.997308439848048 9.691012590510242
Cr 14.247456882357092 8.861821048483549 10.472722622955251
Cr 13.925080245470172 10.67988642777071 8.551815872093652
Cr 16.01209519616521 10.581695332947525 9.885826123870418
Cr 11.591380660481402 11.17938798858118 7.613054974323576
Cr 11.902384319560541 9.149954487853977 9.065997339735345
Cr 11.094156234423552 5.899765570296504 10.850425496767029
Cr 12.06589672225588 8.198006968781376 11.589708888737558
Cr 15.00772855985186 12.182519236981472 10.52059418498774
Cr 13.114363289407171 8.263791720239487 13.528401979943572
Cr 12.947530026669357 12.77748402413747 9.193875257813538
Cr 10.176871557908779 7.634666131050016 9.765316742859104
Cr 12.394271305413843 10.80026363784421 10.65055011277033
Cr 9.406932096536666 9.93287682775315 8.65386247776684
Cr 14.035201219029497 14.511823554703517 10.950409600087728
Cr 10.338596102151508 11.841645785256251 9.640671537210894
Cr 10.845989521034529 13.643555044060793 7.97326894320185
Cr 14.292979257023626 10.147601612588463 12.057501109133158
Cr 9.167474619991411 7.546271152609402 11.953163093063525
Cr 10.249895667864145 9.66261800163528 11.076322002840755
Cr 10.85835660400514 6.739710778010346 13.17697542805632
Cr 12.46339966338065 15.37028834112739 8.928490889558649
Cr 9.503812935208853 11.792796325093446 7.0847603639506875
Cr 10.455896612767841 9.130202749577236 13.548977812398654
Cr 13.100885563897304 12.606570847714869 12.152160144979444
Cr 8.220644793987429 10.067468952128147 12.757208521082724
Cr 8.422178755057853 7.819364888594558 14.131733606257121
Cr 11.436580294026022 13.612136178746438 10.830861954350082
Cr 11.862747803096926 16.218351870046337 10.658734016921013
Cr 12.189174632383253 10.39009891980879 13.31176491468859
Cr 10.44442210206711 11.606196580098967 12.294535871543303
Cr 8.32287665277334 12.75362010433403 8.963618255150786
Cr 8.131928086218686 10.951565323245328 10.911425969905263
Cr 8.726765376495429 10.257940966817054 15.050135256185452
Cr 9.810122972659762 14.763262299745348 9.434895884415639
Cr 12.56775401225383 15.08867480190596 12.82525553155677
Cr 8.857102828365571 13.296894326059249 11.384598160895147
Cr 12.41802649151451 12.714471591771478 14.284901269804145
Cr 8.28613341905163 12.558955751795672 13.499066307423435
Cr 10.405954873862763 11.424161715182294 14.965843071524532
Cr 9.919762208099646 15.460476245703234 12.106802854139428
Cr 10.437388857387724 13.56448212658526 13.505976405841853
Cr 11.562692604348486 15.470359177391396 14.52713497488558
