44
Energy = -344.80002033 eV
Cr 13.32971087952364 9.016829489313126 13.432541148233613
Cr 13.684983015527912 7.871943407600684 9.758230668652148
Cr 12.595839397753677 7.336934284567194 11.466144797662512
Cr 14.449679826742225 9.827344784628135 11.467865167701122
Cr 12.351428993178645 8.163941673293847 15.572807151746098
Cr 12.563402601987216 8.346097156120397 7.365123358209886
Cr 11.181640332976656 8.361959560232982 13.140608088474416
Cr 11.259035159282348 8.731313685611871 9.378252847091025
Cr 13.439870293388452 11.574492308708281 12.821381219796331
Cr 10.026394453470916 7.978926698704957 11.056834716857407
Cr 13.660115490192434 10.023638783739626 8.776535744172705
Cr 12.296204651421661 9.92315279482448 11.206865953131224
Cr 10.685596401392942 9.243808330234094 15.597498062036335
Cr 13.914060951018644 11.744862522680982 10.229325728067476
Cr 12.644904628562 10.859037474278061 15.018890997591644
Cr 10.380557001292589 9.518365833196173 7.048327323615946
Cr 8.852018941686136 9.137892329184542 13.250336980723036
Cr 12.423215541870649 10.592472736456857 6.380798568177259
Cr 8.876496187195025 8.00389455499835 8.932927263930512
Cr 11.164889826218742 10.5975156364071 13.450856895450318
Cr 7.640026857607652 9.080425097061719 10.719367956614107
Cr 11.49673684189167 11.105120497958442 8.950684935510175
Cr 13.271853454509916 12.519178064965784 7.373873999168099
Cr 12.559116730507704 13.303929701847759 9.38222189990105
Cr 13.5654637406928 13.542355861832577 11.887254453055002
Cr 10.299157613652634 12.088253384759263 15.469607333949625
Cr 8.812970793708445 10.735549873732495 15.000859964403835
Cr 10.882483606680383 12.772439305064912 5.5981956205882115
Cr 11.514348781151876 13.04107027861023 13.675334410903185
Cr 9.069986988083786 10.137602040718553 8.735731387161703
Cr 9.520830523713325 11.88972471316671 7.05495822615057
Cr 7.264920056489213 10.68779403999041 12.5082192716151
Cr 9.190309840141408 12.02281393789476 13.04613789451072
Cr 11.425314580413673 12.44554306873249 11.37911735260211
Cr 11.059304910404105 14.046376386920796 7.80578758449809
Cr 9.777365049584832 10.306952663376084 11.187199276387409
Cr 13.617615231392755 15.10308463407945 10.171194030797619
Cr 9.83127668432207 12.703795394687274 9.383125905416845
Cr 7.920148714623822 13.288942972471462 14.48619356409394
Cr 11.563871926594476 15.135002257738005 12.188701136801566
Cr 9.783574471791606 14.555703714459952 14.151914465297754
Cr 7.964056235840603 11.89390194932625 10.559967429113492
Cr 10.940722946468826 15.026257049634394 10.182851181121825
Cr 9.336975569732584 13.802235790869489 11.837824763697121
