44
Energy = -344.78306756 eV
Cr 9.017608904880225 12.074196704519526 12.583772839754333
Cr 10.12025026671322 15.044421639212134 9.699532766394185
Cr 6.16085962146459 11.227624840389598 10.293669767131462
Cr 7.839269584501513 13.810694679496278 10.841105978798637
Cr 9.266220032935442 13.692994134790794 8.453782544430142
Cr 7.74142362778565 10.02163116609596 12.007143711936047
Cr 9.878394686798059 14.31660547639396 12.460768677455059
Cr 12.682793895039918 13.701976785019358 10.803733209684738
Cr 6.8151063933685245 12.281846168182177 12.382548633896034
Cr 10.764225007777636 12.964684574307615 14.602126960579236
Cr 8.35328135206993 11.617667836714846 10.156730185679512
Cr 7.099656878094846 9.527328723683553 8.494401605405598
Cr 10.566478218197497 11.363657051948602 8.761414267374915
Cr 12.085793713843577 13.260010225776869 8.490865553675455
Cr 9.745252550653204 10.327381354501501 14.044143377755628
Cr 9.375167038190261 9.29440478353806 9.521410086239666
Cr 10.508815707802686 12.83226917804326 10.670948865101195
Cr 13.363122585152746 12.95029110312902 14.572957131759672
Cr 6.902661180187397 8.42682062033431 10.134512397401283
Cr 8.819273853638062 8.255653842576848 12.227695299057386
Cr 8.447706289768815 11.40042088757656 7.792661794826657
Cr 11.522231146729956 12.127369253722566 12.747794206186436
Cr 12.558029724746923 14.397213941068348 13.040191744491937
Cr 8.437256503951568 7.507827519369606 7.978465662410596
Cr 10.459144989901274 10.192009373030704 11.319915212068311
Cr 9.546736412246142 9.412744824566353 7.066385902222996
Cr 12.518709663828643 11.180273008564965 10.250250405336985
Cr 13.071309920713977 11.749413359629747 7.784742455175452
Cr 14.539062167160601 12.783491276689677 9.814173780803667
Cr 12.51647260340266 10.8289316556773 14.624395896072965
Cr 8.723945185213356 6.898412946768238 10.131192234890477
Cr 11.001436183204238 8.78979740046936 13.638882021015968
Cr 14.930811459171023 13.974290419827591 12.171149258533507
Cr 11.736200821761551 9.482430447951128 8.070322210870891
Cr 13.900287133078573 12.063327630151791 12.50651681614674
Cr 11.085127633296315 7.828775441935613 11.144931482029218
Cr 14.95853615117003 10.649964448603484 10.94639197717372
Cr 13.777085609508402 8.51578691592408 14.021477503637898
Cr 10.860556831005562 7.547475065700678 8.696181353628528
Cr 14.511099612068499 9.97965863427921 8.860366547446231
Cr 12.882359987412327 9.68291601800976 12.420208453820537
Cr 12.874546474985566 8.864980075232019 10.021747698482164
Cr 14.742757097189543 8.414678920670749 11.452521699370587
Cr 14.892524748799772 10.335239095334668 13.895459273255668
