40
Energy = -313.17770113 eV
Cr 15.242691060544532 11.169268489782342 11.204942543810683
Cr 10.441731490016783 10.607199478541771 8.260148610167457
Cr 14.330193014570145 10.348284569724818 9.278424766377931
Cr 6.825151879929004 11.97862847766586 12.036172641012993
Cr 9.750602840092627 7.616241997843321 13.735591342164005
Cr 11.872723231902599 7.409015185918308 9.282208354400572
Cr 10.550849395192955 13.74724994934179 10.761676899113509
Cr 11.47847281108817 12.440062317045637 12.618332451470124
Cr 14.227560997827872 12.921678973647262 12.363831324530045
Cr 9.45168221004941 15.224504501830728 9.48779872352295
Cr 12.7413922875468 11.971402782269072 10.666632169387125
Cr 9.15063609079372 6.796314508989828 9.12887341986073
Cr 8.164387996288335 9.231764110255119 7.953804623658268
Cr 8.018014249966006 13.232763841380468 10.798044157370242
Cr 8.268241734644615 10.26323118183265 11.637117535445316
Cr 13.404355473169765 9.432793281431255 11.600127106620594
Cr 12.526926691924839 14.636607498180833 11.15281981086537
Cr 8.418033147913372 8.047301063885188 11.875132043516416
Cr 8.009897905567989 11.35308128495082 9.537262750938671
Cr 14.11999018109819 8.12888184017552 9.260767541904727
Cr 12.980610347633862 8.95428770281338 7.4020542226392925
Cr 10.676344026870682 8.1689016498728 7.753341689236164
Cr 9.148567511049098 12.269106656859382 12.899308336974903
Cr 12.013517955898495 9.644738750905338 9.645501279361977
Cr 9.767523278049314 8.782503846675874 10.139175295080323
Cr 9.241857481738709 13.026700195837794 8.313685275919843
Cr 10.10835124824468 11.409652018353027 10.250345671237573
Cr 7.168691593029436 8.771015968025958 9.62382971432458
Cr 11.142580217940957 7.8288401299547115 11.775132002143971
Cr 9.699602906576269 13.074628468020148 14.804670564987164
Cr 13.33756079232935 10.99301384465994 13.25345401847079
Cr 11.56721679258733 13.083880854849767 8.807510213769454
Cr 12.959984563013176 11.494088523438315 7.826466064903367
Cr 11.011611330525856 10.090353108430811 12.15509586168918
Cr 9.912874400140582 14.752414747835196 12.662014163473554
Cr 14.44153152528495 13.034121974759524 9.489052851769046
Cr 9.004580367385493 9.99194478410159 13.922642362750508
Cr 11.706781254998237 9.028594486338235 14.1690476037575
Cr 12.275562842497044 14.028389661332197 13.97861409704351
Cr 10.988444625693417 11.163877043859916 14.636679645945549
