41
Energy = -320.01396707 eV
Cr 12.138671577931376 12.742377985775455 7.615338505468156
Cr 13.801684494976655 13.490201653731132 8.767518669041271
Cr 12.944508384704964 10.889726622470075 9.644006957602643
Cr 10.48656405038375 11.507230391424773 8.743300001737026
Cr 16.80422386462471 13.646394403715213 10.548328558498651
Cr 11.46220333770824 13.298255475485592 10.127009885521206
Cr 12.760827098704393 15.747582219114799 10.067945046554753
Cr 15.594607629034877 15.523516058817037 10.303990336281112
Cr 12.722507010388062 12.015191188606286 11.440694357321544
Cr 14.266303738463591 9.766591722963433 11.680644623251748
Cr 15.240814354287131 11.767709181344017 10.36934699020755
Cr 14.258651583662903 13.82795204483961 11.061576130011106
Cr 10.56073822051831 10.961038623780983 11.475253360961393
Cr 10.055413197775838 15.381463997317768 11.124418145962812
Cr 13.422000228595854 7.466851079179076 12.853246660770832
Cr 12.149356774649945 14.919354099521957 12.037489688384976
Cr 9.305059577036065 13.158330770978443 10.975345460820659
Cr 14.234943919964158 15.821931702092744 12.751405062770393
Cr 12.253293907783615 9.46531268771248 11.695830125960965
Cr 10.698392610738487 13.15950199932111 12.675664369718918
Cr 11.768540910600807 17.266005848126056 12.370351006558415
Cr 16.955912371505015 11.830475322373116 12.618116135063232
Cr 15.864601146937034 13.935489197946598 12.725794004178848
Cr 9.99038750018611 15.393293431326162 13.634804228451747
Cr 10.077781402216408 15.33064533142968 16.055755586390024
Cr 13.529148585270537 13.47007511721248 13.550689544768709
Cr 11.898134734678314 11.200970794687613 13.630083872644011
Cr 11.583104974273775 9.103244882786544 13.942994134996916
Cr 11.51836147017913 13.562535416731864 15.055431597903617
Cr 14.70526506140723 11.513727377669165 12.904641594430178
Cr 13.617599870467972 9.480769834263352 14.085774386322647
Cr 12.196474826990865 15.740553906219436 14.382317433653439
Cr 15.725137732519142 10.546253665170468 14.982842132778726
Cr 15.973656724604169 12.761648938118114 14.994242867848277
Cr 9.079304334177936 13.029022836333967 14.725265023236085
Cr 10.856822871504164 11.27520850265903 15.684729336284637
Cr 13.538043568626248 11.750508074677223 15.473972388402522
Cr 9.494724475111012 13.084959544093026 16.84907965276472
Cr 14.177856788713449 14.309888279295334 15.387072149160947
Cr 12.116427718618795 13.137294724719824 17.1498627035791
Cr 12.488806013442964 10.037773709933452 16.15468592769934
