55
Energy = -436.06248417 eV
Cr 13.714566516291018 13.960781074991333 13.588864661564907
Cr 9.39583579882692 9.6131537856446 11.911913242066355
Cr 13.43423045323648 9.895105704639006 15.865270428431293
Cr 9.683201793550719 13.87245593787853 14.03512810861046
Cr 13.485581481783571 12.498503489083504 11.514329233002892
Cr 14.031436637728781 12.584289641080222 15.671502292413155
Cr 13.596253660780722 16.754299871057942 13.623757676538599
Cr 13.566576425760639 15.39651562413793 11.693606402274433
Cr 16.00413496216966 16.50548259916261 14.762032356751016
Cr 13.713493209815923 11.106655735021068 13.621633101864877
Cr 13.619484014227789 9.623824555399697 11.653005249242824
Cr 11.769035483724409 13.780227088121407 15.792716484682884
Cr 9.746147162311718 11.077926420411009 14.017649971866206
Cr 15.434793085003818 13.965223872726293 11.315783292246214
Cr 9.978314071057154 12.542407425054389 15.971520858612221
Cr 13.587136390725798 8.32162312106831 13.616914658618697
Cr 15.552179720151216 11.156369793852498 11.312716325066662
Cr 15.892940064313503 11.439166576942537 15.183622671699124
Cr 11.722756868883325 12.487928028875894 13.806760336098437
Cr 9.242465561358534 13.616145469011638 10.07238230204638
Cr 15.70336005729244 9.047568984769681 14.918405372006692
Cr 11.563642243962109 15.378809841864989 13.749478206085282
Cr 9.204533188377125 11.337470429027885 10.231924488574899
Cr 13.700216644660768 15.226802730786748 15.463267809495278
Cr 11.627741092673233 9.59031030399513 13.668919471264038
Cr 11.400582964706912 12.467417535767348 9.586224490608856
Cr 16.00367218352483 13.904375805649057 15.20335404783336
Cr 15.68237339231551 12.533118812807196 13.158603591640388
Cr 15.262445315523617 12.491816843244136 9.380374158707696
Cr 9.21443082411158 12.331715564191288 7.829819878335188
Cr 15.896421189686214 15.474886200438194 13.257222079187432
Cr 11.36784998130823 15.294346613099535 9.895336207755593
Cr 9.636184194243443 14.850882781749997 7.800876063404753
Cr 15.988688055267831 9.686025132343598 13.225317457591798
Cr 9.249932983629568 16.17104413665766 10.321350934528896
Cr 9.430682259593596 10.528725550919644 8.0943222796939
Cr 11.473148600092546 13.910152111813144 11.800242627596235
Cr 11.365537808225573 9.749600815115368 9.754430788483488
Cr 11.248088367950704 14.11146385146827 7.455516801085186
Cr 11.561142920024203 16.717861364721657 11.83591504168914
Cr 9.192129934879478 8.774947672186657 10.246247438595764
Cr 11.809343235922066 11.340323233078575 7.396932452754858
Cr 11.495703763164355 11.090361844246528 11.741236665518956
Cr 13.30421097597809 14.009403259948279 9.555456277107735
Cr 13.322501435686931 12.366314985008492 7.530629137250547
Cr 11.561220493785143 8.269203551305184 11.698641124479877
Cr 13.42293128148629 11.039738378055116 9.594670874565855
Cr 15.856298502441312 12.520683956417422 17.564050166871876
Cr 9.443179529905269 12.547316834578762 12.16440631822761
Cr 11.857574468954967 10.911522286760698 15.733656637815658
Cr 15.365150057746773 14.787792878446824 16.822917331334043
Cr 9.330705725021 15.350616848493953 11.992011405520733
Cr 13.387118278096276 13.79666018459182 17.941957176681374
Cr 15.153012254487635 10.84308313973978 17.4330789472984
Cr 12.575806755772774 12.17767404475089 17.7502209189123
