5
Energy = -33.08501315 eV
Cr 7.151102328346181 7.638412520647981 9.06981050261401
Cr 9.321236777936653 7.71043738510627 6.02570485277362
Cr 7.9348221358420075 6.436610256144289 7.094088035717839
Cr 8.638211482883614 8.929760035997065 7.9133689051988565
Cr 7.546012423758057 9.75093736084952 10.344026927693552
