51
Energy = -404.00930464 eV
Cr 12.839841085222035 9.358070195761737 15.536309920055396
Cr 11.649430660680041 8.24921331767545 13.271475957815795
Cr 13.94155736777918 8.017500123109805 13.846193850177118
Cr 10.725573246846764 10.27203490925664 14.846557716006071
Cr 15.186366302244314 10.038270929020971 14.243613226763268
Cr 8.912396657038878 9.202950564258582 13.325597147988818
Cr 9.78768024806905 7.876121063366497 11.756820737824595
Cr 13.188045382670195 12.111411205805931 15.080648019451596
Cr 12.56706397470078 7.092776527257623 11.428234599432013
Cr 7.143788827726645 8.29324671692582 11.379557379276266
Cr 12.968853669784217 10.421300785290287 13.315937353368026
Cr 14.140037558421255 8.932008436453431 11.724921332423031
Cr 10.877328414772666 10.442074527782498 12.317401114482584
Cr 10.69792505562494 12.612438155237653 13.915890711265156
Cr 14.699396406141913 12.584055131350121 13.954905700430892
Cr 8.471218093430915 8.048623976901895 9.314947424685794
Cr 6.8827133696080445 10.18197130946337 11.834814730101616
Cr 10.721156323333387 6.95376257243653 9.597895273692757
Cr 8.682197668935316 11.553211586803796 12.960568389065374
Cr 9.150318625944537 9.979312233693374 10.628778522741491
Cr 15.142766068200714 11.040276832117353 11.909787661955734
Cr 10.713206315116768 8.991050895867497 8.63862791903445
Cr 13.35596864522273 7.996104712988278 9.14272861355519
Cr 11.718581000708864 9.129876428254821 10.75733590920344
Cr 12.714069938886478 14.557130754223016 14.039288599332211
Cr 12.878784784038922 11.116504378926573 10.548121531057982
Cr 14.938136495694582 10.45105411229959 9.373934076607608
Cr 10.550354234555675 12.486922236380662 11.380347053312125
Cr 12.761676899765899 12.473815980488007 12.443516645538699
Cr 13.876722503732994 14.74937545792036 12.493862621327846
Cr 11.802688544957716 7.929876137684931 6.841360835041218
Cr 6.887353744537546 9.923644706243536 9.113898307706336
Cr 6.176644954977119 12.794805520261082 11.880013702963472
Cr 12.911106226417107 10.065390451665055 7.939377343232733
Cr 8.779993064550323 10.569109512515153 8.032192877241288
Cr 5.449269231933467 11.75266195362253 10.389995033718131
Cr 14.662889408707873 13.003067648866626 10.763824137573751
Cr 11.083836762081086 14.768424389380097 12.062883215853702
Cr 10.860031220567294 11.543725494469872 9.430293524084906
Cr 8.17450823629326 12.07224396786511 10.229101172083572
Cr 10.68587336916223 9.927052205556171 6.020940364781075
Cr 8.85560699898328 8.467988353346053 7.192862051582449
Cr 8.511741819580736 13.60144255521703 12.15862927052143
Cr 13.160425268431233 12.488862611773312 8.44649701378832
Cr 10.942776644983235 11.585504614552532 7.007597080359814
Cr 12.463314739649629 13.83038745890757 10.253422198619516
Cr 6.490103546971487 12.10296106393356 8.137616679942543
Cr 9.861373871276875 14.101848821948165 9.65552636400432
Cr 6.982431585501889 13.960230063651075 9.661429707153392
Cr 8.58982433040245 12.823565778386474 7.705309377027137
Cr 10.964482199200575 13.816641524559563 8.048198942272828
