50
Energy = -391.44832818 eV
Cr 9.92342100262197 9.713466327282356 4.778496935813812
Cr 9.888311563057568 12.11711201791797 5.47378882415183
Cr 13.586185165631498 7.323732565290922 5.934095937914359
Cr 12.36425810063585 9.463615501912908 6.141591352292113
Cr 10.746621180773758 7.612810822393167 5.554834463759834
Cr 6.150779474066358 9.252294704235359 7.359541859037775
Cr 7.714968202200294 10.209524727992841 5.942202302798727
Cr 10.150323951421164 13.546228342926693 8.111258991388862
Cr 13.919760641561787 6.365463556072405 8.562917624957537
Cr 8.863165658198115 8.059182228801966 6.949096442838227
Cr 6.201329858156013 11.590797256132934 7.944250613716942
Cr 11.502209663646218 11.997098173386131 7.277957413324892
Cr 10.253389777275947 10.031728532627852 7.1195813025955506
Cr 14.048808162013719 10.785136126084042 7.559387874155484
Cr 12.017712013135146 5.780881832189479 7.101345408822504
Cr 14.270899544998757 8.712213414131886 8.062736111736978
Cr 8.521139351553092 11.963761050356842 7.306372323698754
Cr 11.883700104282008 7.93229767504932 7.822617247415698
Cr 5.491662345778931 9.468902857867162 9.59852844275944
Cr 7.489473784237554 7.68985499666156 9.371269938867947
Cr 8.063181210052003 9.78140160082505 8.60201667163229
Cr 9.493360874924521 6.280543212768818 8.032407090825904
Cr 12.151114134199128 10.049374901233273 8.750808887150429
Cr 8.109522406124123 12.735743388717044 9.783770858229666
Cr 9.876032582374767 11.13588681098615 9.423541332231258
Cr 10.149004646023828 8.32097976515516 9.387847995542845
Cr 11.542042253681727 6.1888021911745525 9.938959871822911
Cr 10.283056965417023 13.630544648716826 10.377225757227508
Cr 5.250040710228684 12.078574258297321 10.393631909332264
Cr 12.747984731366138 7.916846663451919 10.221694294155055
Cr 11.969660071327864 12.198111882801259 9.66438302875914
Cr 7.2498916016971995 10.66328243790581 10.619484984467128
Cr 8.972386078276205 6.667203375862567 10.823494710006123
Cr 13.852527018379977 10.101140609983627 10.482671546963752
Cr 11.280476180286243 9.96182792493874 10.957806256565874
Cr 8.932516582813188 9.162202243685318 11.211494926138357
Cr 6.766802923957062 8.164363028220372 11.553244916821674
Cr 9.482698083435007 11.67669344213726 11.844309393392173
Cr 10.760469422689162 7.587383093196731 12.035556096777912
Cr 5.332381282004217 10.35520136110747 12.320679304299233
Cr 7.127240412122315 12.44165263634245 12.36643277175407
Cr 12.681534451839491 9.477420082602613 12.755769996408658
Cr 7.88439611917892 10.158742455534512 13.217286698988392
Cr 11.58478661125547 11.934272728391216 12.315530277550238
Cr 8.706549343081303 7.656846549092521 13.317207572110936
Cr 10.41227479646332 9.681782052727106 13.301278226850949
Cr 6.343511342636454 8.526435379229705 14.161214529808326
Cr 9.167028055153075 11.65238519867211 14.001267308024985
Cr 6.424300656482652 11.028593758374987 14.896579577113787
Cr 8.593363254754673 9.347913956027385 15.448786144472988
