51
Energy = -406.94075862 eV
Cr 8.695124626665384 9.973962239921475 14.94094835964739
Cr 12.911332207150082 8.142632844313841 6.9304558206617095
Cr 9.711175440676008 13.19523234562271 10.572900987600828
Cr 9.790993938159382 6.864057882626974 10.782231931693065
Cr 13.257543461750545 7.556224899567411 11.952733099245055
Cr 12.740433282128802 11.772511681450124 12.87728389680697
Cr 7.115404340763903 13.358164214173579 10.984779663537523
Cr 13.917522188661376 13.964527277793328 11.703605302319763
Cr 8.028104465551525 6.945565402781706 12.114998834515475
Cr 9.222294601246059 13.303492631455047 6.907579588858309
Cr 7.087504283100127 9.685689911346945 8.578730745307022
Cr 9.269573842067219 9.24714214648043 9.51063932971094
Cr 10.358906947454358 9.020858857312543 7.289064347960199
Cr 8.363115558521462 10.85259070304784 7.307065599420792
Cr 9.22686507257071 9.015859018765394 12.435832015193505
Cr 11.284872154168934 8.66474959007766 10.90237397182685
Cr 8.94169060922071 7.189128099178321 14.271813525700773
Cr 10.755382214537438 7.0144046822623665 12.882127745873186
Cr 11.367604666272946 7.424915284504045 8.729969889428663
Cr 8.222215083710335 11.07042100700503 10.73857481074801
Cr 13.26705282450864 10.102269449335942 11.155209089503831
Cr 10.620559390137716 10.919061191343376 11.21772453890954
Cr 9.014783798880151 12.737467194488957 12.744714067365111
Cr 10.783001987961256 11.510468849423297 6.438121140050531
Cr 5.663187353920245 11.212244279662531 9.977690778589206
Cr 12.31848863207976 6.33153864492035 10.765274697387502
Cr 10.434839447084672 8.7000877095947 14.887219316861296
Cr 6.928079385585553 9.16999489321533 11.060003611488659
Cr 14.521903509423357 10.97249512983539 9.278315888026158
Cr 7.342207394785671 7.425865164944742 9.683446398847373
Cr 8.203396484012032 8.188810791799682 7.150301968609012
Cr 11.924195695422101 10.011723565508056 8.866996857227331
Cr 8.665424685526686 14.55119162220725 8.969924945330083
Cr 10.093598810593207 11.441397729039211 8.761270505116356
Cr 5.680184646718075 11.347173532006277 11.91708809012343
Cr 12.311537219848494 12.173805179335206 10.231706000955532
Cr 14.581188419295154 10.025859019885706 7.56709348486927
Cr 7.734124678398308 10.786613907696537 13.088908513914125
Cr 10.33068549617051 11.092703682655587 13.704140709824822
Cr 11.499413890264732 13.206321992845005 12.440754166247478
Cr 14.849808880554997 12.360803249179767 11.164601475675536
Cr 13.796291101612136 13.554406706478703 8.975672081714569
Cr 11.840553395671012 9.358836507652407 13.184393438217976
Cr 7.598837625307896 12.46862088694076 8.91591910028376
Cr 12.632192480512073 11.934313628225706 7.622493679087345
Cr 13.564227068469968 8.403232222809567 9.467991155459591
Cr 11.087484667512992 13.592841673591124 8.335210774116936
Cr 11.989043900148548 14.79545825310385 10.23593954839894
Cr 12.455277359919519 9.769525310580883 5.975965550154602
Cr 9.154410427075984 6.727916646464109 8.360602871450665
Cr 6.676299877247129 8.694760184568251 13.271535609161718
