52
Energy = -415.92725605 eV
Cr 8.34517173588421 8.051508224834222 4.858563468145439
Cr 9.918663368185872 10.279056837534156 5.174995497283253
Cr 11.160441489699462 12.173233486794857 6.128094627494422
Cr 7.774247961215183 9.874049715415511 6.46912755370711
Cr 10.669294852385185 7.904644586816339 5.204287167046801
Cr 8.700536341531535 12.364290018945738 6.46807281753258
Cr 12.050847180882077 9.60763531501426 6.499400151028467
Cr 6.8179575361448945 7.529021720550415 7.121189781672975
Cr 8.838973317428524 6.318765464702661 6.551279080393084
Cr 6.553842093170327 12.265512503796495 7.5797385655687535
Cr 13.306173235132327 7.9897024189110555 6.327108810030918
Cr 9.50990311640223 8.581796742961096 7.311438128718712
Cr 10.439010089387246 10.792280917678054 7.8119174773904305
Cr 11.244253657823826 6.524707089693342 7.0887319852818
Cr 5.69917945338044 9.99509322931124 7.831506266363632
Cr 10.671146295321556 13.370830246375434 8.229868437129337
Cr 12.934101018608152 11.782093164383886 7.937027594911118
Cr 8.213097592971042 10.847853550668141 8.61956455168573
Cr 11.906067556810664 8.363733779614307 8.700977059035887
Cr 7.387621417502152 6.0188679971757395 8.99821216041854
Cr 9.337476675372605 4.705974346687827 8.1637087530081
Cr 8.074374391607444 13.493469522944709 9.013362206261853
Cr 14.040755051282181 9.260449034486452 8.4437673032921
Cr 5.0273256678728115 7.692696915283674 8.762532746825013
Cr 7.427584075179986 8.702968346354377 9.144109838681311
Cr 9.812599418202456 6.929893749404458 9.106151551121167
Cr 9.821388361611234 9.397500463745073 9.631742830699883
Cr 7.962903026693512 10.198245054666705 11.195595247277897
Cr 6.146828151921246 11.740434234727374 9.954100050588059
Cr 13.408194554714699 8.513025463320595 10.952308609635848
Cr 11.944625543335496 10.33997134250695 9.899009768915343
Cr 9.969348893326702 13.999167968316124 10.613220001885505
Cr 6.20543042317067 6.66136341178712 10.70501754950423
Cr 14.029979401852513 11.10599531675017 10.189541055648261
Cr 11.166324090394209 7.853054276008924 11.22822586074091
Cr 8.694773487032906 7.758071496056205 10.961765398665598
Cr 9.82252995194225 11.89728964228644 10.196616894107972
Cr 7.963871581005909 12.76958116223944 11.699514584893516
Cr 5.527743344756924 9.227280894209992 10.510333982028111
Cr 8.58163453935079 5.122994327120737 10.77960859838595
Cr 12.23611896729305 12.84471595203213 10.447800957726406
Cr 6.25682003830596 10.96536932653864 12.250226958628735
Cr 6.8557861810302745 8.503936623318978 12.844492969795153
Cr 11.76632232447249 8.410447414217224 13.511627922647753
Cr 10.384959828119191 9.97666916126118 11.81279862610989
Cr 12.799669463268406 10.85410446198724 12.37452013700162
Cr 7.671231089240328 6.205390108245089 12.64712711073782
Cr 10.066575017773795 6.289980806575431 12.904137053614184
Cr 10.556537963660311 12.531438113368672 12.614693478647013
Cr 8.505155760616242 10.776168821454057 13.624979415627099
Cr 10.978930026095508 10.622569405019169 14.004434267435492
Cr 9.253077341754693 8.452509768023711 13.339231031145403
