5
Energy = -30.35252831 eV
Cr 11.239092181350118 11.22129414168777 15.826366533417817
Cr 12.800922415860137 10.769648041241838 7.147401417648269
Cr 11.628689379908764 13.218921206179472 15.058971709002668
Cr 11.478507661046015 11.053979872386305 6.144238084879713
Cr 10.081363680897166 10.81852511805264 13.886548723022624
