53
Energy = -422.33152484 eV
Cr 14.475949155218592 11.137455245686747 13.817207506551208
Cr 14.244054288699115 13.627684552446377 12.208796612616164
Cr 12.997443567795056 13.618632111419064 14.609702548070697
Cr 11.704970875127485 11.312131433646098 15.235019721312327
Cr 14.719848045431451 11.63959123186052 11.493775013435492
Cr 14.77010151253217 12.70666961374649 9.512720078567233
Cr 13.753101373911417 9.370751968699631 12.118902873810597
Cr 13.032611873666559 15.540275824817025 13.401220883780509
Cr 12.349567335270315 9.186665350517131 13.686133136888897
Cr 12.546133322420282 12.741379225898028 10.538186097463395
Cr 15.433571332483105 9.813907610244648 10.116493397008833
Cr 11.017910419003258 15.397978855738325 14.494035966289157
Cr 12.46972178107217 11.792554361678365 13.041636277744104
Cr 10.35630897564201 12.880776179137877 14.160909269565746
Cr 10.042065922338079 9.383301346435898 15.411538106776026
Cr 9.03325953597086 11.051624162535898 15.237238847195783
Cr 11.479829650688592 7.890821825552957 11.841414231033497
Cr 10.190929485107832 10.288733360683356 12.970125278509745
Cr 14.348264511576442 10.83900177506921 7.45447655283592
Cr 13.348310349049415 10.555485093968832 9.378223177128758
Cr 13.061842574637941 8.196497720936609 10.008871853626488
Cr 11.76459319145634 10.360005962809419 11.250868615326043
Cr 10.931392354971422 16.344392075814472 11.951246800153628
Cr 11.691988083805409 14.156247505130578 12.44177608706899
Cr 9.944031565142128 15.158680665823141 10.61071058012183
Cr 14.300876458366869 8.487128812729765 8.082771928284988
Cr 12.999774135802857 12.792136132074242 7.9027177379830515
Cr 10.01089649730087 7.644206911913897 13.499823629447164
Cr 11.623750763057851 6.52845034853573 9.304402335541274
Cr 12.698325712140246 14.938236021381602 10.054999250864974
Cr 12.066947137291463 10.353836873518702 7.125256001591442
Cr 9.025098163890464 14.342319479546724 12.97255017651024
Cr 10.926517507024213 11.497842541865975 8.979652566958185
Cr 9.303099101171695 8.827806263141547 11.222664950466122
Cr 10.325076569584942 12.613866834174955 11.445797134670206
Cr 12.052981112970828 8.04917454115981 7.465693317622987
Cr 7.927743695535896 9.279729236254994 13.50118014110697
Cr 8.251014891224367 11.684661621308011 12.99693992540409
Cr 9.88514529037642 6.25449303527535 11.09038804920961
Cr 10.934561471031092 9.063934286015122 9.32907974004097
Cr 10.82871354267238 13.829801278062055 8.82918560343613
Cr 10.98096143737071 12.49780681941994 6.59848840803871
Cr 9.154676640090429 10.917422119010487 10.421715112588025
Cr 7.643991516335303 7.199571261283712 12.206363951896405
Cr 9.600862075358375 7.306637311024847 8.609786455717916
Cr 9.84866453429198 9.746396923219946 7.1533177990315355
Cr 7.4351682600417 12.690925360119266 11.35994155253078
Cr 6.991281282422509 9.8460252027389 11.435916543277333
Cr 8.784730317720946 13.230747262685046 9.46494310333408
Cr 7.22937911022894 7.525937719107093 10.32998680322688
Cr 8.79280835915393 11.758168982761957 7.841797661921792
Cr 8.1953848450073 9.222885805672343 8.885973644591855
Cr 6.983951080992588 11.135435397866546 9.287838188407225
