53
Energy = -423.77870901 eV
Cr 7.8602651000322 14.182603944789257 9.407653648668656
Cr 10.12887452474782 10.732310760711947 12.895025556875902
Cr 13.609387694873583 7.253472485406108 7.980730720109518
Cr 10.885870240286504 13.162788501241677 11.83098401197873
Cr 9.53007155204817 11.268383970140345 15.583056718203883
Cr 6.2114898000493595 11.841938566574319 12.066204369838864
Cr 9.98329392693774 8.580197853784906 11.432058171383918
Cr 11.558948976170132 7.059053990249545 11.807702520431473
Cr 13.952903941182392 8.30390285349369 11.573960383517283
Cr 7.211545331498987 13.160971248638464 7.314207648061369
Cr 10.107454856086022 6.629568407500779 9.678580523274734
Cr 13.608194611529786 10.293378200107506 14.236517416167
Cr 11.405749426935959 9.4762108292193 14.832849937760184
Cr 7.924226156646138 7.979634107571881 10.036605870206614
Cr 14.71243462300399 8.681965440399784 9.391952085120598
Cr 9.381363952859122 13.286730723941705 13.80577802288194
Cr 8.765718532074674 12.478918550982751 11.214198242968504
Cr 8.149956322367183 10.284097064680772 10.87526421219261
Cr 13.500769476802768 12.42344211935613 7.574798714081418
Cr 12.030685165311919 13.473032557399597 7.253141119059727
Cr 9.835496983974359 9.282049526997353 9.09112788769113
Cr 8.023298155620038 11.422280048642646 13.429452144515022
Cr 10.776807632338759 10.988991294143975 10.471002746258227
Cr 11.25598425583245 6.329972329651839 8.281042812843756
Cr 14.873291668480077 8.09380161695837 13.95913423432398
Cr 6.577763264988372 12.12538397660324 9.742936024575123
Cr 11.610800915363509 12.046478936746754 14.236497347181903
Cr 10.393090273187648 8.223890482486611 13.824102273655221
Cr 9.530476710324303 10.014430742417765 6.710453708840946
Cr 5.444519183873385 11.349929323965904 7.868345999262712
Cr 9.79531666610809 12.598395155505687 6.576630060493123
Cr 7.670754177711225 11.206191311622007 6.180638876251724
Cr 8.75545955264961 9.66441591558755 15.145284883956899
Cr 13.10866924692687 7.6203659915166275 14.051316994515858
Cr 12.008126914335927 8.635987152506466 9.696808748872884
Cr 9.015257310820601 7.860558005401976 7.386064015130824
Cr 11.711664630418301 10.932719499630073 5.9868244903637
Cr 13.005789230380557 6.502284675208808 10.121677545818923
Cr 8.74010217532755 11.575712334373922 8.680678776978993
Cr 12.713748677935564 11.778604883918902 12.16439375573211
Cr 13.532129724836798 9.92159801619355 7.935361843164786
Cr 7.310470201789448 9.782014951851608 8.319734287184987
Cr 12.187974130261978 9.495861169040131 12.286245458881988
Cr 11.66749860743028 8.624691814050703 7.220133448034335
Cr 10.239562223385674 13.23332504901488 9.208926890114457
Cr 14.71357642040275 10.325957023583348 12.219938765285415
Cr 11.334668421665897 11.106704263716374 8.220308070686066
Cr 7.010128295557702 13.590430923403837 12.103297347401623
Cr 12.40626875283351 13.104293748283013 9.901028009247986
Cr 7.86798036116601 9.059349904692688 12.764390769290998
Cr 13.154533347308375 10.777632593247937 10.083766102759817
Cr 5.8349965565479724 9.866130287620262 10.264658484584631
Cr 9.471229170568042 14.403602927020302 7.1731653551137
