54
Energy = -433.32344036 eV
Cr 15.692061556433512 11.902578746399962 13.918699670194709
Cr 16.6903889495851 11.395898110883032 11.686934508949673
Cr 14.976261616300373 9.626318072557893 12.282464326916378
Cr 15.438392331820168 13.972949215824007 12.9654940986348
Cr 14.120264734949359 10.029766405761775 14.23285913665647
Cr 13.456205344199624 12.690515970429749 14.611664409269979
Cr 15.36908763672899 8.666270406546454 10.1428832786318
Cr 13.078738711408986 8.058796120643859 12.330374666030306
Cr 15.206543733415343 11.091602263239476 9.941921099102574
Cr 14.170287459136357 11.976344627034761 12.206936551750564
Cr 14.96058526092488 13.294305460893689 10.098149501043572
Cr 13.169148670494227 14.932355576557645 13.680669263658693
Cr 12.29548201924675 8.290974134011602 14.524745225740283
Cr 13.140177142665115 9.956920569674208 10.582035790432718
Cr 12.377850679409267 10.432270680233584 12.801310986418958
Cr 11.562531602582036 10.65321634522012 15.119848096861997
Cr 13.118673773903689 14.365450758442881 11.64303356070778
Cr 14.022102105951685 9.225907166735977 8.213723700127725
Cr 11.772983151035131 12.805566104965168 13.028863608092532
Cr 13.562799145682947 11.636604977772317 8.27474334190323
Cr 11.03262621515996 6.836468963480573 11.997781139415121
Cr 10.425743618656309 13.248085207534183 14.895974663150211
Cr 12.694724242115434 12.168715265159262 10.472604137741113
Cr 12.721198152964117 7.659655853923627 9.507986387530615
Cr 10.73902352727879 15.043053861149993 12.800116826132202
Cr 10.602025221867597 11.210405484716656 11.397579727055001
Cr 10.581657208511672 8.876646996023657 13.263119745139534
Cr 10.89684359984781 8.756570171766718 10.81561606640883
Cr 10.807607042763992 13.881907157412378 10.80353004262766
Cr 11.662345905368452 10.054384336706526 8.769890161751926
Cr 9.089411916632796 13.25913320203939 12.673738210097328
Cr 8.712493671261646 7.351721729204992 12.037244097412756
Cr 9.805626742475926 11.123588677315905 13.762214270233498
Cr 8.708648371919235 9.705873631856987 11.737094362365704
Cr 11.897379069552818 11.652336079198053 6.717636679289776
Cr 8.173803615078675 9.38676958620908 14.142422492799664
Cr 12.21306792305969 14.153391596234549 8.832279521241563
Cr 10.241011386481018 8.122525951567269 8.273827822156543
Cr 10.690925129294506 12.052101652987812 8.943211688133752
Cr 9.128710183447728 10.132631998472876 9.336397178526425
Cr 9.115838444060334 7.24966917668365 9.672581668624547
Cr 8.743445949032356 12.38898226747841 10.536490594760323
Cr 8.54660456851163 14.934174450142931 11.219663859057
Cr 10.042586309303918 10.444743166679508 6.976664810419467
Cr 6.534274203098252 13.497955766490833 11.580218765130084
Cr 6.287396846539176 9.13743290441509 12.010905331928228
Cr 6.941706213406722 8.398364819881628 10.283258594807554
Cr 7.351199134675066 11.503552121084082 12.684568302571547
Cr 9.987403352798827 13.435798375271556 7.160854538460586
Cr 9.35561613014809 14.30440886063714 8.835095566516936
Cr 6.774026535772236 11.099281826272613 10.18965486176688
Cr 7.541959597553715 9.27406057571632 8.093261426917053
Cr 6.739984158993782 13.57858105532754 9.634678107604985
Cr 8.099865970584373 11.980132989090894 8.088272921595536
