54
Energy = -422.73352098 eV
Cr 9.941303820239822 15.192707297143293 11.108846331468825
Cr 14.081583018442386 10.657678186885345 7.975935488614858
Cr 8.222606651984467 14.043009121472666 9.290659170374356
Cr 10.506472792318217 13.83108177420119 8.958849099687635
Cr 12.725622430259897 12.039274841930473 12.842705845346115
Cr 8.639298590161747 13.072532764351541 7.254522078565682
Cr 13.88702852418843 11.46474757994583 10.352376610173835
Cr 8.540245752261038 14.886990255104724 11.963358190306094
Cr 10.804532276062604 13.670355013824388 12.997267161426281
Cr 12.382067277821983 14.143285469335591 10.768422654882011
Cr 14.147848036970247 9.670764914275116 12.197021494215164
Cr 12.533822827278684 12.54497934451372 8.330729454812836
Cr 11.956975040194962 10.228095313300214 6.616304598652375
Cr 7.000461647059996 11.805839731249025 9.227780372179508
Cr 11.746450128280172 10.371327404008623 9.074069143189542
Cr 9.439672772960554 11.429276966568823 9.210757623822193
Cr 10.27503262250641 12.010447479756156 7.189352679683985
Cr 12.32444411105696 9.865853414584134 11.513079245204151
Cr 12.140731346033828 9.461818623938369 14.000181467169794
Cr 6.6471797947960765 13.044685874287353 11.37694931218752
Cr 13.706213544833435 8.808154369933696 9.586275549659
Cr 8.085789869129751 10.51272575339557 7.065507709329888
Cr 8.493512936056302 12.633914398811008 13.582011792336147
Cr 9.206697421040891 12.613511092790926 11.103893586628994
Cr 10.834635729295044 11.996778962066296 14.930421339590467
Cr 10.42501250842754 11.046828555585938 12.933987791616042
Cr 11.566189741252435 12.205129595931462 10.791174218924805
Cr 7.482483616175113 5.765732898855346 11.270941962690221
Cr 10.475648626395856 6.397894066568002 8.045323900122447
Cr 7.066199348045345 6.524894318002593 8.927680285214358
Cr 8.409235559289415 5.844278122908496 6.7239265696802875
Cr 10.179322829880128 6.041721681217987 11.855124771288867
Cr 6.152188693563067 7.150403631248151 6.282829006640118
Cr 11.08803877864462 5.407602952116758 10.59940504805827
Cr 6.12693629491317 8.002111599168337 10.628813882112656
Cr 8.208134889744606 7.989982747367585 11.869327643621876
Cr 9.1296271037972 7.323081786234116 9.823810674979917
Cr 12.681108633596025 7.294766386725083 11.953546507478356
Cr 8.989286516683505 4.795587271152132 9.157048370052692
Cr 10.496204239423104 7.76512268133317 6.028636970244433
Cr 6.209493925403104 9.02712412266262 7.9969760483011125
Cr 12.459194366273522 8.293616404039833 7.598405270859247
Cr 8.442068449021605 7.976706704313892 7.272779449919926
Cr 9.31518420728276 10.04545891418358 5.885602329344838
Cr 11.432454948197673 7.963999406782121 10.06175843227306
Cr 10.699741738627 8.357988500176733 12.713907814432188
Cr 5.800531097086984 10.68236073851027 10.313396425457993
Cr 12.71626244901975 6.313273714654085 8.826143290107932
Cr 7.050527842037796 8.29347256946123 5.371972412532741
Cr 7.865172052937681 10.856328101720132 11.709462803082818
Cr 7.818545436272006 9.294709741613431 9.4865866672182
Cr 8.838918427211905 9.669310123152535 13.613375352464912
Cr 9.789366740745944 9.811077693185599 10.869493506994926
Cr 10.144724040023792 9.187631084663643 8.199316655984665
