52
Energy = -414.62100658 eV
Cr 8.388844527729633 11.138022316111442 14.864540621332113
Cr 6.379595894196193 10.167246888764968 11.375425955620484
Cr 7.423163243853863 12.221911373358266 10.206883060204344
Cr 6.793725555204394 9.333382797922843 13.855625719287278
Cr 6.928285323663089 9.6262825585473 8.988404017435922
Cr 7.00032783454778 12.714887597422045 12.590149943256186
Cr 9.040575661812895 13.146907462031274 13.699583922253868
Cr 8.320131675852311 14.690810848372037 11.469994010962266
Cr 7.892118809158665 11.596721031931343 7.8297322166610686
Cr 8.67972650514888 13.995760740467738 9.154635389338155
Cr 9.816157119292205 16.26756661915863 10.318931218784376
Cr 10.502893188839407 10.85306385919029 14.07430406582019
Cr 8.324204316115308 8.340639706596885 11.50005444039831
Cr 8.331446508288366 10.837867545831005 12.435205407531619
Cr 8.770899595940827 10.175771319598365 9.966769729392178
Cr 9.187140422544871 8.839407471345735 13.606271566871321
Cr 9.3476686599555 9.523411717306015 7.646736783179342
Cr 9.527488092063473 12.569867937241787 11.404251472953169
Cr 11.639588861498119 12.82695364732675 12.726557260941123
Cr 10.531244589197968 14.894388025819664 12.812376236682882
Cr 10.01358955016744 12.05787682221875 8.97872137803317
Cr 10.707125277597564 10.152019608245114 11.56424285411898
Cr 10.923705518481391 12.964619945492112 15.05479730386702
Cr 10.905777492084935 14.22106720212979 10.370277642655353
Cr 8.384792114456634 7.638539602526102 9.0568347756808
Cr 10.125754641029411 6.890650413423836 11.887858781912504
Cr 11.441018133621318 8.553822955676806 13.005915032824348
Cr 12.928944123363218 10.670236359560812 12.809535739441504
Cr 12.113479748727725 9.266568929645555 6.891797867085008
Cr 12.126783104521252 12.17771012432026 10.422122785062056
Cr 11.955017748318985 9.403694928271017 15.093824773594585
Cr 10.6469033347364 11.439934953613133 6.666278478270243
Cr 10.663141377212272 8.16415359672574 10.07481545089186
Cr 11.419057119850692 13.757283763329646 8.178004245765907
Cr 11.348639681718074 10.023846665216055 8.857895265706217
Cr 12.839546424286025 7.532354227345296 11.346491973260312
Cr 13.48505921511695 13.706184653262728 13.885089340739295
Cr 13.183519337933916 10.052695666957966 10.354202195931018
Cr 10.759178912764964 7.7060727804125 7.684667439702453
Cr 13.010016845476839 11.581318446046199 14.866874184433234
Cr 13.03867681205866 14.601433288798551 11.464640899633586
Cr 12.718624650970655 11.777561313364243 8.103171848031536
Cr 14.226448226748879 9.13689652522275 13.545190281978519
Cr 15.115264781317384 11.425199682320144 13.888791372792307
Cr 14.247025029204336 12.382133361064671 11.735663971003062
Cr 14.533302414790166 10.14395129375796 7.284289739983731
Cr 14.770107635170223 7.915184148730913 10.893629987300173
Cr 13.537345403913442 14.080787612988182 9.582647729745466
Cr 13.187719750755791 8.211760789273551 8.680503317459154
Cr 14.631072205481432 11.806123641675223 9.482917382055604
Cr 15.340687652589539 10.157228958368066 11.565348104318575
Cr 15.509891176209239 9.354485657416346 8.967027437425843
