50
Energy = -394.2302245 eV
Cr 8.453258621144782 11.019841248249598 13.617530712143404
Cr 7.6698186822643555 8.671667641675064 12.32899010155339
Cr 9.196055727676123 8.26967359733329 10.46475559981845
Cr 9.145021255381454 12.881092838047852 12.157002655858655
Cr 10.183078039710445 10.421223646136628 6.01753842462587
Cr 6.380889294216901 11.33080962352358 9.07033965830882
Cr 9.006385687087775 8.959715743168518 14.249233173112232
Cr 10.569155877396662 7.173110106659376 8.783758777654954
Cr 10.341693130092143 7.982644689913895 12.55780504159817
Cr 10.363017860195082 7.991282710678864 6.080402228901817
Cr 9.524835890671644 12.695619924466548 14.982202436468583
Cr 10.064978846804419 12.3041942876365 7.90155899138229
Cr 11.204303348946828 11.839272416133834 13.364833627889775
Cr 10.15125765107232 14.37184345746211 13.538832244750912
Cr 13.308597674718483 7.047475147135905 8.929218027380609
Cr 12.262201306722877 8.487143033708074 7.538232958874002
Cr 11.534953576514097 9.322401234549393 10.387284172167906
Cr 10.4647183258201 9.72597888167335 8.097527149555926
Cr 9.648817861705258 14.238830377081172 8.57803180795418
Cr 8.992018721697658 10.70439639963514 9.618304959047974
Cr 13.612261517503065 12.516044644688593 10.23105195811365
Cr 15.483139571307525 13.674416356570413 10.61193235409584
Cr 14.118580116953003 8.619352669142542 10.529621068031513
Cr 8.573980521155825 8.454908878369036 7.714078275739123
Cr 13.812008910205375 9.883692222919295 9.145352065921205
Cr 7.9665009716126205 10.75065791216478 7.363803644317077
Cr 12.110452910110961 11.499530435564647 8.66751452138517
Cr 11.843691860990091 7.066693311383219 10.777449281251714
Cr 12.898193011375023 10.868492180475519 11.754516860211549
Cr 14.899518599501242 12.615012203287591 12.61415853313509
Cr 7.03613732638415 9.205981940149043 9.559978058193401
Cr 10.754537381725996 12.066071700483763 10.47986615602236
Cr 11.880491979425281 14.115801794541913 9.170890413042434
Cr 13.057014164761966 8.489993743241811 12.684279668120006
Cr 15.475572805424385 10.92192830996914 10.781793646848923
Cr 15.291076954626286 9.998361774288963 12.380220319249538
Cr 11.446143815434333 16.23466981504099 12.244590002359741
Cr 11.878933083043005 13.638748806526804 11.665241089850952
Cr 10.002762283745257 10.226868128582378 11.990910264753504
Cr 8.180610798754683 12.733758771575733 9.864709079261429
Cr 9.790938183118147 14.71112810687911 10.894426465247761
Cr 13.712867667919497 14.869380912043647 11.614633627699197
Cr 13.769029318703966 10.849989167862269 14.277595825259237
Cr 11.676269380316109 9.540410493963726 13.93555386325308
Cr 11.651121639249299 13.578084362688971 15.61362136830092
Cr 7.478542764697948 10.658288322745907 11.479914862278727
Cr 12.73253389404408 11.296851461070071 15.745902368302248
Cr 13.101774548913435 13.334852838645023 13.99556891836945
Cr 12.304595028616545 15.75844703883375 13.795775876743857
Cr 10.323988187560555 10.573797657840347 15.688815369163073
