5
Energy = -33.82335815 eV
Cr 7.7897547037502655 8.987441589185051 6.511479920654636
Cr 8.883484875723417 8.794301382647438 8.640222101450826
Cr 6.687037389517682 7.966149713107763 9.156182336789048
Cr 6.777430535866011 6.869576723669382 7.0214242514833325
Cr 9.017617495142286 6.537855591390584 7.826016389622152
