54
Energy = -430.09927034 eV
Cr 12.92139047079659 13.990327834041354 6.495537346875712
Cr 11.112697471150078 13.732894061750834 5.8953873472209954
Cr 11.554962052451552 15.22361124241913 8.481241320299295
Cr 13.480353097587956 13.808366029549395 9.020382954873824
Cr 12.341104493607439 11.250231998361878 6.428155356679095
Cr 12.217295368236208 15.52658105057556 11.025159968622056
Cr 14.014247921845067 11.980539806688897 7.807775211976362
Cr 9.378273586710595 13.967900716836406 8.085345623924978
Cr 9.762566911126857 14.922482130312716 10.34443709608336
Cr 11.380549671184633 12.618453614101023 8.226261100096623
Cr 9.505404854597602 11.733133130834446 6.517591905595126
Cr 14.314624577389601 13.161893443018373 11.466284638514987
Cr 12.015622713994848 13.297614675991563 10.874382493482274
Cr 12.77364768057961 11.202323308256233 9.782835263733128
Cr 15.020937930181237 11.317904678740323 10.47650109950063
Cr 12.868360322574956 9.471618428507327 8.323672282108452
Cr 12.414078218125828 13.778578062729528 13.352790626807357
Cr 7.574235675947356 13.354285866546045 10.212838969615753
Cr 9.580157334095698 14.100446499370024 12.11122513683987
Cr 10.392104977618347 9.680675779903048 6.190981165650666
Cr 8.285658648395586 11.441425293566748 8.694783193260411
Cr 10.002058289848607 12.305624535206364 10.07508775409654
Cr 14.613475250892156 13.000618575181909 13.972487513132819
Cr 8.494271458768164 9.315666876441007 7.420721571086165
Cr 10.817106266571074 10.34254498677421 8.360017165866495
Cr 15.350200398260691 11.219927795851541 12.971825276687882
Cr 10.992784183186703 10.45627067571618 11.198429732798322
Cr 11.860854946460751 12.449548740503802 15.068914181701695
Cr 13.873450067153032 10.885949738444896 15.230470360610088
Cr 8.334084567793127 11.56155223662917 11.650773799400726
Cr 10.595157953360301 12.154968737737873 12.872149902015222
Cr 10.361156213639463 7.979523884095361 8.466519152468729
Cr 9.047581439553502 9.597679540695317 10.057105805894038
Cr 13.084057188380752 11.390794684571606 12.536121039486535
Cr 11.718753772442728 8.493231080162465 10.055933196043005
Cr 13.815450822202175 9.385782285391333 11.384106292260093
Cr 11.972329664238247 8.642877934861374 12.682233963230374
Cr 9.118312039023278 11.982842245254732 14.198820480444443
Cr 11.447544558004306 10.362096426636294 14.295599043361548
Cr 8.090538166390512 7.363442854834686 9.213591220549958
Cr 6.5096031307728115 8.495997427311377 9.292476872821933
Cr 9.791218144635991 7.809010859995733 11.364961042715283
Cr 6.514878623069694 10.820581973711386 10.391968212881192
Cr 9.435804667556086 9.689583679975467 12.931117567617497
Cr 10.06903687088084 6.004728798436502 9.980764934127299
Cr 13.861987496048863 9.283403196841915 14.16884583320125
Cr 12.01808356925355 6.58389394868124 11.929321392606573
Cr 9.254700000038643 9.599220093459525 15.017536005578334
Cr 7.5383733638417665 6.335013984385971 11.373360561396202
Cr 6.988667628614378 10.454781745349345 13.336894573879505
Cr 7.3126360314512056 8.87446658045518 11.687750080660901
Cr 10.62722650341971 7.699395039685044 14.1334046869986
Cr 9.549694520877926 5.786203956798798 12.792978101359042
Cr 8.00730247693233 7.69278825159933 13.646011402897269
