5
Energy = -32.60224417 eV
Cr 7.445124136199745 9.852073663529008 8.50891780771569
Cr 8.98772124492574 10.389077239769016 9.241287949127093
Cr 9.450625066670733 8.10415697596278 7.9443905544657785
Cr 10.997610228920855 8.666766680682073 9.379500715423921
Cr 8.259009886400792 8.023295214414984 9.982682526460312
