54
Energy = -427.22530831 eV
Cr 8.705287597259721 9.216398272578994 4.6201504518357925
Cr 11.11404143984923 10.095840187817796 5.084129797709916
Cr 11.084298964145361 8.420259585329568 5.796633527481697
Cr 9.643134072044784 11.837867252151256 6.098859335499249
Cr 6.269928727302109 5.978174605226071 6.247328638183204
Cr 8.754039025837344 7.089169318966047 6.1103595814036264
Cr 12.509706221722368 11.855540375024356 6.426433558593402
Cr 6.7013034159125855 8.420110407052311 6.372781271287173
Cr 7.003194425196844 11.13238103132073 6.678784374769135
Cr 8.970087412183572 9.6251546738255 6.78416220731178
Cr 8.034119992190888 13.792858474565556 7.703854505457157
Cr 12.665898158089732 6.5092408631820415 7.295945960564692
Cr 13.117563092929615 9.25692654943526 7.553567546239128
Cr 9.979813818061709 5.547436597631222 7.4979573427938835
Cr 11.114241187831427 10.644317165500556 7.791447209725117
Cr 10.75492241320836 13.201455958646285 8.417167171493366
Cr 7.261229596894467 5.27845489089604 7.545940630132639
Cr 4.718985082965808 9.55928269027691 7.932505931144195
Cr 8.699402858772304 11.803885703506081 8.37549492842867
Cr 5.936830188167049 7.383030104131101 8.503761442426757
Cr 10.779967399291023 7.804637792350807 8.069781525285896
Cr 6.923696078622567 9.794977468360443 8.583941746210408
Cr 6.311156000840797 12.377243118883111 9.14412888804206
Cr 8.305250026764584 7.574077390292524 8.374026538402575
Cr 12.932009577403683 11.811154203975793 9.15658297106174
Cr 13.122911535631857 7.584329113595216 9.356137657560373
Cr 9.387120606211933 9.56358854456052 9.21211569981844
Cr 11.54975123357596 5.7801971301660515 9.758314992795219
Cr 9.174240914568975 5.889829807842742 9.811737440655072
Cr 5.292141055969918 11.278823588255868 10.124167228583394
Cr 10.476989990848244 11.5185543249908 10.355580807339681
Cr 11.897159669776993 9.535875440466533 9.91213249598173
Cr 6.801855726153989 6.0297074219863385 10.222941620296554
Cr 5.196207018008141 8.696208594160963 10.390212355597773
Cr 14.4083008975212 9.413419941196201 10.397661932100506
Cr 7.82607648332862 10.841804796989857 10.624313070650734
Cr 10.57144466585316 7.89239158119489 10.77927814600837
Cr 11.443384492438614 13.89223049454077 10.43724054048966
Cr 13.150931381985519 11.707739157312052 10.936105889814513
Cr 7.732454828433682 8.309536755568216 10.753787381033446
Cr 8.80118810842774 13.188575962190765 10.526251179369678
Cr 12.944149521207539 7.395947335466949 11.681656702981556
Cr 9.793847189154842 9.803172454722542 11.655550120083984
Cr 6.699349762582974 12.766927289452077 11.909494222958816
Cr 11.0847453434401 5.702165146072738 12.088574561115147
Cr 6.444488937475591 10.091771953689499 12.189402417507917
Cr 8.838962463204998 6.586785111306164 12.115214214482938
Cr 12.197172924896437 9.643528422127394 12.248934113733112
Cr 11.128343202060082 12.107403584999712 12.532674553321746
Cr 6.3230552271509755 7.925327777099127 12.286884217048355
Cr 8.393567898121606 11.730963519647231 12.889413026794607
Cr 10.889033198850594 8.046715862463442 13.325865523103317
Cr 8.229132748280007 8.968798127375756 13.498578941840753
Cr 10.120104519929852 10.306024398211278 14.022270184027041
