55
Energy = -428.28023337 eV
Cr 12.618505149591934 15.296271246768944 9.439055324414117
Cr 12.945248371340984 13.41742780557508 10.657825992659285
Cr 10.335070264227506 12.65465197998011 10.955815803800105
Cr 9.77580230508134 11.017346790593281 9.393137400863768
Cr 10.650854330478829 14.997027909496861 11.546097560772662
Cr 12.96699030263564 15.83824258659568 11.456044482027803
Cr 16.85261179693926 10.663896566238211 11.830517447534952
Cr 15.15086452920709 11.931740927007926 11.89925151561388
Cr 16.937577290121332 13.232430309875607 11.326904062712424
Cr 15.337824550054703 15.087706326468295 10.89347841242508
Cr 17.492793534897938 16.186083389486022 11.484079865379757
Cr 19.354418649718788 16.20954596625623 13.306934209889087
Cr 19.116814924754852 14.23616050149271 12.111485170536033
Cr 12.056620538461774 13.697370790004893 12.730472198092867
Cr 8.284426468109793 10.928596168012517 10.996369481222791
Cr 10.61586348172197 9.576365093978671 11.187685565524992
Cr 12.60532485376852 11.296916959502934 11.411745806631355
Cr 15.041459824547138 16.80270430936309 12.556839335170018
Cr 11.617777446010717 17.366933640773993 12.311126855320904
Cr 9.671004094219468 13.6880254226208 13.833155213560916
Cr 14.490090971126039 14.149494031173008 12.741121337325367
Cr 17.48882300063237 12.17975698484229 13.4965563254913
Cr 9.13647304052317 9.20716144270594 12.730513110156878
Cr 8.408299528827595 13.028340018408048 11.96107637531687
Cr 15.385037698965474 12.85126253292285 14.558959926954621
Cr 10.482693135280595 11.48531841448367 12.925711464860571
Cr 17.033139714872743 14.72250126696657 13.148253210236662
Cr 13.118753354776386 11.783546832642823 13.595751646574357
Cr 16.32451309286674 18.851827548826574 13.545110968283833
Cr 10.7522952993905 17.703113707182176 15.386852739858618
Cr 17.067838230882852 16.814597956707377 14.245443829666739
Cr 8.40990728570463 11.339976440663897 13.72208186744131
Cr 13.1308241713291 16.05916271167082 14.006309246835697
Cr 15.181592455954188 15.44866998506764 14.862132298600384
Cr 15.008757123002857 10.570729513863844 14.097861490008109
Cr 12.480997150324008 9.55880114207264 13.406843978831118
Cr 10.918513220884316 15.522649231940552 13.868223297078769
Cr 14.955736338753713 17.868914652632224 15.144292013723257
Cr 19.275881989192957 13.695638056626755 14.148781654708106
Cr 13.297074693689757 8.860559284196867 15.440893316915536
Cr 17.13608758677624 14.174653534705898 15.668326229427047
Cr 11.232574886369047 10.854500417939324 15.175831801142015
Cr 12.578693743130598 18.343847366893392 14.700789876830223
Cr 14.412271721336829 10.097380748389897 17.557357198598385
Cr 13.472435901508813 11.289094832397979 16.00468426982641
Cr 11.378381690981472 13.048012677653313 15.33210171564914
Cr 13.355503814617938 13.911103092926895 15.22704820439493
Cr 18.937354744706802 15.535455138409521 15.371226350644802
Cr 16.147737115732706 16.70891556830156 16.691509666475625
Cr 13.249541088119603 16.297157720056504 16.47218215247784
Cr 10.552499579134023 15.307849364534485 16.19787451257004
Cr 15.75959428465257 12.03326501446676 16.727902001496005
Cr 12.990004831669925 12.760525177390903 17.669899974313484
Cr 14.963057063781827 14.487025191519779 17.02063604453853
Cr 15.012260690560737 12.276840654672824 18.774931144543153
