52
Energy = -413.09400913 eV
Cr 16.850103088113254 9.593458598283458 15.451035041231167
Cr 16.76457454386539 11.697442169973858 13.523945174433363
Cr 16.56811862535113 9.6699807407939 13.18611278989766
Cr 15.559420707667186 11.479325534275954 15.570275910325327
Cr 15.47411685417239 13.135432732572102 11.600014903312646
Cr 15.385551255999975 10.541605709929472 11.096367109596184
Cr 14.407183328648712 9.107262589359665 14.811923089011618
Cr 15.045234457281701 12.57657342197458 9.39367871290786
Cr 14.688662830461425 8.199387209055397 12.472728677585376
Cr 14.700090422683507 13.273523436699794 13.777651982523835
Cr 14.729672415229357 15.054517237907696 9.855140994130362
Cr 14.433663322946087 13.937643352250955 7.345377590141782
Cr 13.225465372864988 9.737549073256275 11.23103684079646
Cr 14.324692640634549 10.935769333931935 13.220142669116964
Cr 14.22812787469091 13.551897518196839 16.035862914682518
Cr 12.467411472546148 8.965330543924722 13.692452742096563
Cr 13.316072779559459 10.83826611726316 9.190741560000712
Cr 13.458888568343479 12.299671180299766 11.46450468288236
Cr 13.537118574753313 14.874739217549516 11.893458725317172
Cr 11.984288360252545 12.850766671681379 16.493862430370648
Cr 13.536928035999031 12.346763633695 7.1890488292631884
Cr 12.870618308125017 15.634207974315421 8.317123588160888
Cr 13.1393032261571 11.22521233609587 15.18882072819263
Cr 12.69575276828481 13.448966331811407 9.552232818722892
Cr 13.031154977155236 15.308350078960283 14.774772004571016
Cr 12.534570435818432 7.275414823544096 11.763588818134112
Cr 11.212862130210787 13.581027138664856 11.609556976312055
Cr 11.604485705195687 14.069706097315391 7.126462348985677
Cr 12.471949585866989 13.27691551140042 13.735153038931683
Cr 10.913326849873432 14.579290105988143 15.594253098648709
Cr 11.646755224506208 11.160441413742216 13.019614600232934
Cr 11.576203411013482 9.843426614560181 15.540318675270536
Cr 11.405129329669391 15.591989677477192 13.095300411159862
Cr 11.128516964049227 12.014222127353001 8.419215153068473
Cr 11.21516872839106 9.277980147440761 9.451133768268095
Cr 11.881104894590774 15.859159637100081 10.445552779028299
Cr 11.152937632329019 11.399863502129936 10.572546178125647
Cr 9.261825043449507 12.058349409674397 12.418121071060723
Cr 10.473949207499865 11.914400382223326 14.90204238617417
Cr 10.937554463102112 8.893070723882119 11.683924461993039
Cr 9.322453810092176 14.818436057112796 11.301133202336946
Cr 9.217235201762715 10.567729008297578 8.822744120004655
Cr 10.48268605996607 14.654328726778193 9.196927444799224
Cr 9.695206159568963 14.017584754060504 13.736099417976236
Cr 9.58151834065007 9.756717861470237 13.817405921205419
Cr 7.209831417852372 13.66095916938512 12.38841884731263
Cr 9.022378193419398 10.076211067456057 11.113242711694184
Cr 8.987050914656102 12.668604976156491 10.150070865705137
Cr 7.656361202406242 10.081872172743024 13.226999759447757
Cr 8.14256031338824 12.018666637749483 14.62212137445011
Cr 7.170108871146365 11.345937267026875 10.667064319969024
Cr 6.183493114513607 12.228378710389304 12.791821404143084
