52
Energy = -413.9102835 eV
Cr 12.711060453815834 13.270051419901472 7.712879292136727
Cr 10.491851706657304 12.075679781725768 6.487893351376844
Cr 10.675180690553027 14.249105639156165 7.50469004415973
Cr 10.229987766194025 9.954129593512945 7.127124349928979
Cr 7.781047320832022 9.003548922202468 7.344756863185789
Cr 11.930150468075947 8.117923330436815 7.530737727425603
Cr 12.492392267367286 10.893393634205035 7.427920190945327
Cr 10.167580899420782 7.811550119488694 8.205496684810734
Cr 8.40664630737143 11.632935810430068 7.2993692753214905
Cr 14.818645738899065 11.977526319237384 8.510458343894499
Cr 12.307442400473981 15.99007182690801 8.394227373501174
Cr 8.738189398054205 13.759756308072001 8.45862427165479
Cr 8.07351984811534 7.767615734250236 9.92826614867663
Cr 13.909042344204344 9.823098420065678 8.379346429042
Cr 11.47614500592822 13.924200486612445 9.935091165343753
Cr 11.745740785174831 6.950564547708024 9.942728088859528
Cr 10.402771297842387 11.985922679517595 8.933921100720973
Cr 9.768850408904877 15.630739439799543 9.794533044873715
Cr 6.784755912721494 9.939180759441934 8.670277392745104
Cr 13.722274706679913 14.173101698080703 9.584310104979323
Cr 9.224834421669865 10.012379902258903 9.175459698574453
Cr 11.628313781415374 9.64939120113829 9.481953912078685
Cr 13.372649853540997 7.874622684038861 10.151842381247892
Cr 9.985895877512185 8.402902250992556 10.950236314298301
Cr 7.940566555765285 12.059946329148866 9.841033992667958
Cr 12.718012208078777 11.76625169085062 9.901968890828202
Cr 7.817088446054826 9.931777699069503 11.289958654783039
Cr 12.445473838427377 16.415972816930395 10.204238843132387
Cr 9.244328990188047 13.53493304499158 11.105444765650414
Cr 14.142528752430835 10.356435751408874 11.02347042513951
Cr 11.310652836092526 14.73633382081839 12.167106284086573
Cr 13.258447555496474 14.679511163803465 11.788328866827513
Cr 9.902983660570829 6.255457513231554 11.991594130361511
Cr 10.202632205652032 11.09451523600937 11.253466395243683
Cr 14.66330710134645 12.530687111857219 11.376883162239269
Cr 7.945664604938933 7.587464584816855 12.541639286428033
Cr 12.037908365062124 9.783440073720396 11.793883279138816
Cr 12.06289408366317 7.3998191491823695 12.45872204155635
Cr 12.382676773636293 12.34099202911934 12.257674156875604
Cr 9.521449099742325 9.340951451887264 13.14914266699468
Cr 6.898683159374719 9.470080177211809 13.7502173383193
Cr 7.913830678144858 11.528763839470908 12.369269547552678
Cr 14.010460210618685 8.309050166857837 12.598047903904419
Cr 10.085974713578553 12.542519251218872 13.073687485837405
Cr 13.862730157877285 10.975092295563764 13.370150502547416
Cr 8.204663842287202 6.012837054859284 14.263641393211977
Cr 11.337591388027876 10.827349636242639 14.182448706147326
Cr 8.646862058516453 10.845953210666869 14.806690434954666
Cr 10.108264501177597 7.34213348311409 14.33047657212634
Cr 7.6938865234477705 8.276405171840521 15.148259910533795
Cr 12.083068612215763 9.101555563897119 14.337793374123004
Cr 9.822689924971625 9.194668681837689 15.802907947812242
