50
Energy = -397.1282631 eV
Cr 12.113383787131804 13.686262594572117 5.950267114572518
Cr 9.664688711995193 12.992922182159367 6.081374724799759
Cr 11.398653013164356 11.052122106195778 6.404679302078959
Cr 13.902222420771533 10.248133660563434 7.294555954459511
Cr 9.08885896153994 10.6517286812585 7.413774474991883
Cr 12.521476639517413 14.605881575037905 7.553682226713422
Cr 13.576236325989013 12.11391122387728 7.3628157279293704
Cr 11.297451163564142 9.541944852812346 8.435719384791264
Cr 8.252246191390617 12.174664750361513 8.17930846117453
Cr 9.745501554354519 14.337760981936526 7.418696022932687
Cr 11.107682117220142 12.388084637733485 8.257337814119285
Cr 14.929241358556242 8.849904632343087 9.193805530995329
Cr 13.340627789347836 8.081356075686525 8.49062538521098
Cr 7.438161740830659 10.03467101946672 9.521167978846947
Cr 9.095768547196712 8.682377460040383 9.233757524350413
Cr 13.439536018224024 13.281014420786699 9.5593170560182
Cr 12.835709260721917 10.680618839535668 9.778258971486803
Cr 9.927752094716602 11.093106760070338 9.822801622452827
Cr 11.132236625699798 14.624382779993379 9.643130758663904
Cr 15.197129279317904 11.390813032627777 9.377616978721974
Cr 11.26564116450835 7.2278436745899715 9.894633636986429
Cr 9.274595911037474 13.462661151276905 10.144688855123363
Cr 13.033210175816459 8.595277299913201 10.939270925102718
Cr 11.565540947271979 12.355045222142103 10.920159236988631
Cr 7.567185056367928 11.903006127655026 10.720379382834713
Cr 8.471991133136756 9.61984434328652 11.687532657145496
Cr 14.830913465078288 9.99636980745948 11.484533735569933
Cr 14.12053324752825 12.297273842100969 11.694075456364914
Cr 9.284476036093698 7.829920226103205 11.682881357904305
Cr 7.798533214002649 13.738987836891523 12.3936687016504
Cr 12.581023088796597 14.722481501798859 11.41782580477691
Cr 10.962569617800275 9.522516475709876 11.196230200126653
Cr 12.299700128987611 10.753065976570685 12.636044877165013
Cr 9.625369819545172 11.729621504761996 12.307611960173409
Cr 7.1456208228133296 11.27671079194071 13.151267048004312
Cr 11.435378288740555 7.393237688907302 12.648687393349793
Cr 8.011673568520157 8.500086326419265 13.887050427214021
Cr 13.02274327809678 8.732438835119137 13.502250490170233
Cr 9.626311160836014 7.073360375753292 14.269268411032925
Cr 10.411907681389039 13.890845877088731 12.156843900492257
Cr 14.539968191497577 11.308975806401056 13.749573764488867
Cr 10.360514580966251 9.551396801220779 13.733599091674634
Cr 12.641609374457529 13.134910341442934 13.282252293192078
Cr 8.624736302914968 13.588383717334088 14.080558400194937
Cr 11.495656707179226 8.364595492964 15.336053396946488
Cr 12.24978311185561 10.881570185799259 15.134171706376877
Cr 8.430984203024664 11.004966160005685 14.561145822380398
Cr 10.733794257167453 12.11411038339634 14.439506830217987
Cr 9.037527914335728 8.977047061084239 16.12291044607346
Cr 10.101277364458968 10.497120313278616 16.40796419044353
