50
Energy = -396.96192954 eV
Cr 14.821020086238828 8.872402174563321 11.593453842023845
Cr 15.770903243540186 11.680644017434004 11.471782162411127
Cr 14.098976693999035 10.66111590071184 13.664055486040846
Cr 15.187307302743754 9.916171266939902 9.335147829267598
Cr 13.01073586702549 8.2815193423316 10.231774728867304
Cr 12.673524508506821 8.9626696328453 12.824442539053663
Cr 11.890987307969574 9.798799096055678 15.075699754125438
Cr 13.668094114719233 10.89698150823497 11.17576132600154
Cr 10.73339523205793 7.409866188670721 14.170942787667904
Cr 12.18406808612064 12.651420288599814 14.887217960664042
Cr 11.053464001412788 7.542976284938847 11.592060993731524
Cr 14.06523779078876 12.78074791441826 13.203349092727661
Cr 12.962524002696265 10.031712617461961 8.669686633174505
Cr 14.468584010508204 12.176409177933202 8.950385764191026
Cr 10.912357563715116 8.328680531657497 9.106315441353646
Cr 11.747685493019395 11.516288524208166 12.92021664580881
Cr 10.273759955443763 9.59869437695173 13.071681072617318
Cr 9.378112403833976 8.41620199958836 15.176621833978604
Cr 9.976944433762194 11.003416102793695 14.926062018688949
Cr 11.487968439607721 10.136792759824123 10.87167966279183
Cr 13.190533132240274 13.223135427972812 11.241306498962812
Cr 8.40707584263899 7.587508561341834 12.521477503665169
Cr 12.548989387253442 11.44727717893072 6.9749476413730545
Cr 11.527456045100214 14.194877655736716 12.755128684529815
Cr 9.929339568615067 13.3567438491527 13.50175966570825
Cr 9.071856734190309 11.410077537435626 12.25745669821682
Cr 9.442116106312191 9.176670321970631 10.821233101478201
Cr 7.719327929923747 9.405478499774297 12.983175537304659
Cr 12.186383643014386 12.411588381327984 9.29853218694084
Cr 8.620125306629179 7.038321690063421 9.902133957344216
Cr 9.486893731019677 14.945286073143203 11.233393710466245
Cr 9.502285251028482 6.924865672055521 7.395442434929091
Cr 11.278649722153405 9.03313149930041 6.879828597588956
Cr 10.592417848333621 12.586244277211868 11.05519415648365
Cr 11.375191177096585 14.710809542361318 9.535978047250376
Cr 8.455744622670883 11.138825004801825 10.008191693084058
Cr 10.464604086982217 10.867517295756928 8.731713617899626
Cr 7.058177119959681 8.793881660247447 10.289483111735855
Cr 8.088784646234924 13.467130816460974 11.282503220849692
Cr 8.829463457877697 9.289388181818444 8.264248533126937
Cr 6.540496413462641 11.173336754654345 11.37447610197195
Cr 6.898254738465744 7.891905811615923 7.876462231717901
Cr 10.944704875727574 12.917564393022698 7.2409851366374
Cr 9.495573018347203 13.286818235457927 8.975207194555127
Cr 8.888468562456415 8.056375257012853 5.888933352563882
Cr 10.003929838814582 10.532084526554332 6.212667937773888
Cr 6.324824175847912 10.451624214160839 8.659454111889527
Cr 8.318513406860454 11.833924246826816 7.505012070866982
Cr 6.842509142817014 12.5785458906309 9.017410676582395
Cr 7.218575280916232 9.891585228836595 6.484509475245992
