52
Energy = -410.27779866 eV
Cr 11.474176019348192 8.122494376621487 6.34140479042831
Cr 11.193140881843778 10.588186654314164 6.324482492128083
Cr 13.552740140516732 9.865497727276344 6.056122253861131
Cr 11.498735669467147 12.63626880989756 7.655697540778547
Cr 9.21580213304821 13.408406217034182 8.024723102885389
Cr 9.469287670800382 11.01364760691924 7.992113904553692
Cr 13.597873022119764 11.668761419332752 7.333943529630192
Cr 10.009637115744583 8.690083843938671 8.145295228285333
Cr 13.550197159953303 8.091772244115942 7.48804574400943
Cr 6.965429513312361 12.071338793745628 8.577290746317663
Cr 11.755828573802948 6.995334634201191 8.926630677269797
Cr 7.724651168156263 9.76297352702073 9.193617897092459
Cr 11.997706108294416 9.747851172684594 8.429416472215374
Cr 13.62710539173335 13.963592208471145 8.393603858209538
Cr 14.489736797434059 10.330650829252704 8.931957030554594
Cr 12.340075720684013 11.876038675162091 9.723482577697109
Cr 8.177205888964185 14.67582737681543 9.765980008723842
Cr 10.892866536500724 15.256876757905015 8.694870644335083
Cr 8.798124281032457 7.731670607847051 10.077046699722324
Cr 10.119759349589769 10.322985350504892 10.27790461834967
Cr 10.307870411684668 13.102825554661338 10.081152890163168
Cr 14.626523514636158 13.044145690992245 9.59488847740956
Cr 13.699269510254007 8.248275949552177 10.129031411082712
Cr 6.3565718831787965 13.25617161480683 11.341885781436165
Cr 11.00158670914103 8.204649207950416 10.697738350391985
Cr 8.266928133322724 12.036521653987938 10.440532340951318
Cr 9.988758739199149 15.7441468041092 10.80653546896837
Cr 12.680720753668092 10.032791660770622 11.101494353677822
Cr 14.678855007126895 11.106347092441421 11.200182564317977
Cr 6.436682258569009 10.405042424463701 11.034898015609134
Cr 8.703632240492766 13.939463873221833 12.194355928257592
Cr 14.810678616362969 9.05268061588861 12.509664603417608
Cr 12.336977860691581 14.458050714290374 10.358446169185562
Cr 8.678302143243041 9.638218995507975 11.762391678268404
Cr 12.849294887681747 8.005718670654886 12.630589214540512
Cr 9.151361382118099 7.0514595651629275 12.349927362592732
Cr 10.669855978241147 11.892820074940822 12.149946346472706
Cr 11.462282438855258 6.282319426348829 11.95083119834806
Cr 13.121644828097761 12.638579887152787 11.973244867807145
Cr 7.677444558487543 11.693871995611392 12.950723216841704
Cr 10.819386084274702 9.433274350281465 13.010242466407062
Cr 6.841236913910339 7.909663183159486 12.05722080298893
Cr 11.17086263895194 14.407465177880322 12.38880999090278
Cr 13.002058911203758 10.64618126598242 13.44653589396493
Cr 6.515778801416863 9.421780900589251 13.434997042380235
Cr 12.757795006850216 8.624880258003051 14.810974875101495
Cr 9.195179607016907 13.568467117884211 13.930738220526344
Cr 10.967577623513803 7.164852734976752 14.36465465487714
Cr 8.678827880003354 8.341971824982712 14.149443286196739
Cr 8.91592184446979 10.944321368013282 14.09116268460993
Cr 11.322814582430043 11.997371808977656 14.309110403652843
Cr 10.747996308100445 9.77616690323257 15.284776821143927
