52
Energy = -411.03878707 eV
Cr 14.417917269563844 14.523556479582671 8.90110692335066
Cr 11.810852910028471 15.67133820089773 9.560876534760148
Cr 12.008653908406199 14.88272545747888 7.924051579181632
Cr 14.705758408186895 12.216563346226867 8.384380302174392
Cr 12.934334382538427 13.306864412213836 10.274327332350833
Cr 10.787504789395859 14.533021155762649 11.7784692936643
Cr 12.746605336183837 12.58249134353463 7.448859846148332
Cr 13.704570948110415 14.759563495288154 11.646391319857171
Cr 9.260791770413705 14.931809416142418 7.63362133319512
Cr 9.280554639752825 15.267577992864812 9.877929973891613
Cr 14.415373775445254 12.271692823923892 12.655230832689552
Cr 10.73882944109757 12.12489548601967 11.03387022889219
Cr 8.347195920338448 11.571623501606105 6.786921490006965
Cr 8.094120096173897 12.983782406296713 8.703350888963957
Cr 9.399171278490378 13.121238023383222 13.046312823090709
Cr 13.091568923891284 8.715299929541317 10.160549964784693
Cr 11.05236016277727 10.520994829715363 6.836269779440211
Cr 13.656772364631715 9.87328073940832 7.699993807255202
Cr 12.767628283851906 10.71392186268887 11.874310563471596
Cr 8.309979433888874 13.39936429327251 11.020852081314667
Cr 7.3385849666979155 10.563268187131952 9.223601385963365
Cr 7.501495293049182 8.450760436148741 14.074211616423018
Cr 10.304279648170352 12.812377902615097 6.920388966772346
Cr 9.239284446617637 11.80173004738311 15.394247453156853
Cr 9.681856597830395 9.349270772887474 15.136262134208069
Cr 9.006554863865007 8.724688883778912 7.74542893497233
Cr 11.010215685105404 13.470581931294701 14.758479967455882
Cr 7.992648632875869 11.068160771676872 13.595140654165721
Cr 12.325654198569428 13.157127809655929 12.85987279697038
Cr 7.093598320967323 9.246215399975178 11.752672620583994
Cr 10.54872310667497 13.245962628828693 9.22008283592488
Cr 11.694757152720975 11.169943537978261 15.8735583112088
Cr 8.80019350033324 8.58382708790329 10.095279086904517
Cr 10.694403823634667 11.168757399152021 13.310095654343197
Cr 9.6711279408706 10.834253146885935 8.691522110295926
Cr 8.456933549659222 11.093765824135955 11.212282062975019
Cr 9.52331771764025 9.215469995995166 12.746498322021571
Cr 10.767882299352499 9.840956868208426 10.673972504557133
Cr 13.031032364658069 11.402202051316719 14.664544211831371
Cr 8.763768324079834 7.068946408884408 12.170738227260875
Cr 12.353519147029399 11.055986678101284 9.112101299486596
Cr 11.483027880456845 8.056841732705173 12.159191844444438
Cr 10.755316524248212 7.117559514591383 10.05673831673429
Cr 15.552346945997872 13.314345022508805 10.850676764893896
Cr 11.321484442475446 8.692802761323785 8.480412954514872
Cr 11.906069450563585 9.167920401512118 14.165798750263583
Cr 13.961558441557978 9.124184080581793 12.880429493250787
Cr 10.13927738327015 7.011237214945347 14.118788260489987
Cr 13.218869931213 6.811211628508185 11.687596753694262
Cr 14.529741254940047 11.044306033205121 10.282582628385223
Cr 11.049143196824438 5.581496926544868 12.576800570280163
Cr 12.686106097241135 7.0417678620953295 14.252544949016412
