50
Energy = -395.91378238 eV
Cr 12.747537824145914 12.174858847805927 6.766813282733564
Cr 11.851773481489618 10.055195916044088 6.311085384572204
Cr 14.027598722280072 9.719094763581973 7.527040347554849
Cr 12.069274430253781 7.9363885430192145 7.660270052564575
Cr 10.059523267934857 12.029488375548377 7.296605002744711
Cr 14.012837879463945 11.45571274338623 8.614925194731594
Cr 14.399412555792729 7.47951529568672 8.874648184948123
Cr 11.799499894506443 12.953555885988004 8.674975244306129
Cr 11.538839911049243 10.419348178960421 8.66510953006147
Cr 9.682928666269282 9.300600354003933 7.019938695112473
Cr 7.386012398850359 11.16927077232316 7.88074555107886
Cr 10.384770128881994 8.251044462345078 9.224416234988512
Cr 12.097120448027495 6.46017941463706 9.81360317059639
Cr 15.183358214474628 9.84193190294425 10.047472551286143
Cr 7.926940798614502 8.27539060191106 8.822278513867369
Cr 8.653792408961774 13.195366102777955 9.059757116303386
Cr 12.835084643225171 9.12709700545025 10.029355190935842
Cr 13.77202347332172 13.767118302874152 9.734711830724043
Cr 15.342252764725297 12.306982826535151 10.784785380295459
Cr 10.307663600610134 12.22469331925616 10.286428396634564
Cr 6.423371034758646 12.390925858263456 10.135682051985187
Cr 14.067611034030026 7.530082713155098 11.305963130165246
Cr 6.444944324956393 9.829261278197809 9.775093160885243
Cr 9.025339622457778 10.398576035487997 9.019736799065788
Cr 10.749762082218554 14.844443054188062 9.731750273542824
Cr 14.008461518884664 13.192696140255691 12.54648391767427
Cr 9.334076079561985 6.402332624459311 10.339658606598032
Cr 14.478452713690599 10.053349492022027 12.150584248412654
Cr 12.959521769489616 11.4515473565183 10.793425035239185
Cr 8.066504491532237 11.446954916727686 11.066743454660877
Cr 8.527398754348772 14.01486498049138 11.177620600725108
Cr 11.145651083550487 7.43452086665082 11.553387495650039
Cr 6.541317670492184 10.030487770929575 12.088066893157173
Cr 8.505322509576338 8.728154727387508 11.18820708563934
Cr 10.585332145755919 10.142405450029433 11.348846312511261
Cr 10.307639503649325 15.314168039553493 12.54663523194468
Cr 6.714803722200696 7.382985341507563 11.163242873628084
Cr 12.404016042939311 9.29595025054625 12.561004385670696
Cr 9.865335220310188 12.552986467623933 12.618181863024088
Cr 12.33005601818078 11.652131112064293 13.058434907575515
Cr 12.034986673501527 13.797896133581528 11.350092019818096
Cr 7.572975628160175 12.446631292603515 13.265321726757994
Cr 8.594460487887137 6.5063212893814555 12.589661880000374
Cr 8.577107858812406 10.285398658930223 13.378158126325255
Cr 8.994047871682636 14.770519777065482 13.868589669070026
Cr 9.976711726197959 8.27270898107034 13.237033768034449
Cr 7.433084039701939 8.081311796663151 13.720681468313082
Cr 10.60063164373272 10.748162394039097 14.154997991255236
Cr 11.478027380695247 13.53376271530705 13.978661324450732
Cr 9.267370641704751 12.54709872965133 15.07083372127986
