54
Energy = -429.28504574 eV
Cr 17.405373829948015 12.492815600302425 9.767609963152733
Cr 16.67247778036572 13.596142943829022 11.166275781537367
Cr 17.40198070788249 11.232653809178041 12.154363336200467
Cr 14.76129752680349 12.601063803875544 9.508201616678825
Cr 16.37948509163517 12.071360124388882 13.540434727686439
Cr 14.749514797735019 14.09265038236311 13.075738131994079
Cr 14.401065017071357 14.960972944390523 11.078084817537007
Cr 15.907104447500233 10.489787775683853 10.035464572901168
Cr 13.859181083486938 12.038153351638451 13.951833755923749
Cr 15.109599842681503 10.056465167576427 12.531285857872943
Cr 13.053014681806934 14.412954237107208 9.05526808820085
Cr 14.42762987754514 12.145730400179884 11.54692977075127
Cr 12.75391874824027 16.054928277457435 12.622202933096492
Cr 14.541126862122752 9.588461069124268 14.328550135818652
Cr 12.531569758083863 14.406844129433694 14.253753431827958
Cr 11.538675707440206 15.74464192995946 10.921165262228243
Cr 12.305743361451496 11.813962459000205 9.934848619431424
Cr 12.644963023347433 12.652200190468845 16.022905794237086
Cr 13.51920910946726 10.714041115167682 8.38616896725073
Cr 12.717674743880222 13.092896580356063 7.6867624259823515
Cr 11.448039130760435 12.474567241935738 13.782492961035528
Cr 12.437263072514721 10.840247080740639 12.23332820428854
Cr 10.630886234315591 16.467420340635897 13.884055022035803
Cr 12.563594498590579 13.60666156567547 11.618814196396439
Cr 13.665154079971598 9.677633456142365 10.482065970064024
Cr 12.219420722401537 10.398926070121155 15.000267355988786
Cr 13.510955801054749 8.114991027149332 12.215969446955134
Cr 10.319452543803004 14.2158078211302 15.35337861470891
Cr 12.606699032900334 7.638931132271959 9.728969133053393
Cr 11.52951166832659 9.403193915538228 8.889038155634049
Cr 10.370482046626321 14.635316711112177 12.709700513907508
Cr 12.13111696546121 8.72136368568526 13.948412898324914
Cr 10.572001073812272 11.811914684066906 8.261072015983997
Cr 10.24783935487759 10.446568022040198 13.196881693009423
Cr 10.376801163228368 12.558748595768304 11.556618499312126
Cr 10.806445197643933 13.752109834546083 9.409013143918408
Cr 9.030099475615577 14.77618852848247 10.557534140173027
Cr 10.314400426042107 10.411301439731886 10.523172861583593
Cr 11.181180832431068 8.55383654764796 11.564695284156683
Cr 10.173042987116695 11.699096115394882 15.805746929222495
Cr 9.060256144020682 12.82195855453102 13.779559910048297
Cr 9.992017809480654 9.126721114553074 15.417371586332196
Cr 9.980837508004369 7.437059761582351 9.641824502367887
Cr 8.974608666447372 9.756906892152793 8.385093161250612
Cr 9.677892231983947 7.989436780022688 13.879645494821428
Cr 8.875208385151215 12.206881358578366 9.590842545811407
Cr 6.917755194643889 13.850960119895912 9.309424170347684
Cr 7.971967349529377 13.828656055164993 11.852767675989368
Cr 8.136146248835141 10.355270924469483 13.710590536825924
Cr 8.223140434247675 11.330100023098701 11.926373405328869
Cr 8.763236781162393 8.748694000201349 11.71398292899483
Cr 8.051876933890394 7.439950126200172 9.721684397527328
Cr 7.728674494110955 10.05293582674398 9.8227006977192
Cr 6.380564304395187 12.3326421885882 10.302977609302108
