51
Energy = -407.02680389 eV
Cr 8.088362520214401 9.824548135645559 4.937995145182243
Cr 10.75515482599069 9.81293067901047 5.306975978879637
Cr 9.089814437940955 7.323082719251121 6.007653545355771
Cr 7.483011551085384 11.372550118606975 6.508745746584114
Cr 13.280921478427315 10.547277514278397 7.124812618024736
Cr 11.55940894823252 8.484143791352837 6.2681214058685715
Cr 9.76471249035719 11.860951383059843 6.244701170321616
Cr 11.449304412703574 5.981407965721024 7.109692757052607
Cr 6.765781846350229 8.779299016580604 6.441605615418517
Cr 12.267987276348528 11.805475388622705 6.336013356826554
Cr 7.148932396132923 9.83534629106879 8.701415849292966
Cr 9.116929982671163 9.470669546586947 7.196258481324677
Cr 8.760970717402603 5.715370274485864 6.761730083307546
Cr 8.624165714294422 13.672268070990073 7.34690484370577
Cr 11.034476723509577 10.34930939780743 8.124175628635474
Cr 10.373431647323967 7.650644134429382 8.324491647729653
Cr 6.515833260374113 12.359217032428953 8.946857742176418
Cr 6.083919504805615 6.386375493122073 7.234053001376225
Cr 12.571403456756277 12.5634563587816 8.919164723272518
Cr 8.811425699091068 11.73932932330337 8.633542073220415
Cr 5.29808037874367 8.25521217673814 8.852900143804732
Cr 7.836900141647121 7.241070623265422 8.58066003083559
Cr 5.322204437981993 10.801632475682005 7.74808225266286
Cr 9.850281139502904 5.262970630348261 9.044369043226247
Cr 10.961260799344595 13.116624471438108 8.36255427371762
Cr 12.807029321567843 8.244684883540794 8.35596510112512
Cr 9.49194811849784 7.2226525600183455 10.660732210478997
Cr 5.748327360591692 6.40274705736111 9.981247409258035
Cr 11.800850239237615 6.288663981143355 10.055912966797104
Cr 7.639476250620558 4.612465111516246 8.887349516746422
Cr 11.45833881623601 13.586797018002109 11.208751504899164
Cr 10.538508508187252 11.344333842010943 10.564023194442626
Cr 13.101581245684073 10.468738225517047 9.943621326415363
Cr 7.1718132638948475 8.444200048077816 10.914957447922113
Cr 4.759218624201922 8.156758623441497 11.731739696116506
Cr 7.608824985259976 5.7024848724541215 10.947617002757386
Cr 9.00719136601014 13.167040146809796 10.250276520617353
Cr 9.152062143148179 9.39848298665037 9.623873261657637
Cr 5.391378062583952 10.377231674310927 10.48149883325192
Cr 11.228649128936146 8.861964355183604 10.287855779788064
Cr 13.157678307382268 8.287884092288499 11.156489264679651
Cr 12.76537696380875 12.417682788158125 11.609362118470624
Cr 9.782312740627212 4.9470460660388405 11.477024878765114
Cr 5.7187909048497865 6.9287692953141455 12.563062377775129
Cr 9.354602580854383 11.731086148401573 12.592210642112821
Cr 11.76897832672857 10.172537502529782 12.487436718895978
Cr 7.0833108581163335 9.801371809429826 12.80892072173061
Cr 8.3097955415268 7.267239655272645 12.736867089282727
Cr 7.773244895354491 11.084738230838921 10.924767781274369
Cr 9.437543881257925 9.387852069119022 12.142812433158023
Cr 11.109293697278614 7.46418586364075 12.522948963454226
