5
Energy = -32.05453384 eV
Cr 7.800406028153525 7.808717729384629 9.699244744263897
Cr 8.268539485114163 6.543411670097418 7.745401654445764
Cr 6.5519938825066335 7.334131949190722 7.73873708044874
Cr 8.436953574416306 9.15815611973094 7.786318088359308
Cr 8.079031355659364 8.32360008424634 6.1924791848609155
