55
Energy = -437.73828035 eV
Cr 9.069875928009433 11.683807644547162 10.624858347816721
Cr 17.45172823148956 14.068953733753549 12.882074572784477
Cr 14.454597302064634 11.100104584534456 15.119319575781923
Cr 11.63119733707056 8.603336033320767 12.862767410128347
Cr 15.656084966296918 13.500877382856997 14.256141105636225
Cr 12.1109604921042 11.457035194283996 16.656738837561438
Cr 13.564154053088064 12.8729606173742 10.807122909238302
Cr 13.082050231898421 15.67586990498948 16.79290474596617
Cr 14.732535803266801 10.98638752282763 12.674996027125697
Cr 11.095063116772884 12.49278816861412 12.191662029257884
Cr 11.246440445364152 12.652556540404513 9.858068958763587
Cr 12.214353967408975 10.986924924241135 14.231245733474628
Cr 9.058306021190766 14.271474070860387 15.136615885075406
Cr 8.93634787378953 12.821791371107668 12.847291333799374
Cr 9.806432592952545 11.90042435773332 15.143919711807674
Cr 13.296720477810673 16.65111643395691 10.745675550807883
Cr 10.403828692535734 16.246783092415477 10.768066348060042
Cr 16.587762848759557 15.106651433780758 10.877702235291157
Cr 12.04369670947904 16.948224573592046 12.67484780469245
Cr 13.668095602012597 8.94723235026323 13.688996303737946
Cr 14.551089434592997 15.06345135548377 12.467296255085415
Cr 13.3369265943022 9.416064490278197 16.136551670142772
Cr 11.194173650591331 9.201932782242972 15.235745034043255
Cr 12.742439203093546 15.294868326624844 14.22599038550613
Cr 16.809868655745927 11.420612346146386 13.689448855732358
Cr 15.670185811140769 12.855589259796243 11.538841118486857
Cr 10.85059491062343 15.764464070966747 15.724929113922784
Cr 13.608024139475207 13.461236620922786 15.76967168184262
Cr 13.493495955880313 12.905773632886564 13.232627546492173
Cr 14.240288314546767 11.809162876421283 17.4501996231009
Cr 11.149741114885149 13.645316583464743 16.909777473246805
Cr 11.458974696900228 13.524269341825399 14.389917355757941
Cr 18.27674187256321 13.043605298292533 14.932615383514532
Cr 16.5950449181061 15.986780972904198 13.493624469066082
Cr 15.645149861531362 17.24230790088417 11.336626908438467
Cr 15.416986092964594 14.367468322396979 16.944517348250525
Cr 15.013770392707972 15.841216212886039 15.120845166103626
Cr 14.216619559411502 17.348407577482998 13.395098926995344
Cr 11.965161161886298 14.917851851184349 9.392362658405299
Cr 12.585927632909941 10.675717350311919 11.764465282468668
Cr 12.959996822923321 17.666388729087977 15.368020873369314
Cr 12.881988025728694 10.613174811247053 9.380345223294
Cr 10.052259367332494 10.290409599261777 12.845968796241074
Cr 16.29672251398458 12.483766548542715 16.333873047531444
Cr 14.615641623705777 10.819660512773776 9.968054946043091
Cr 14.573676338461288 14.885582305669235 9.894084995134099
Cr 13.150431964573704 13.806311556079983 18.35311202215252
Cr 13.612744200379915 12.839107648131101 8.329855441236969
Cr 12.086700329909455 14.532747357443668 11.805421422184402
Cr 17.561762537521417 14.76533384323885 15.53703141632183
Cr 15.705099927849462 13.057230598430193 9.13118037050134
Cr 10.205161777045738 14.986812588107801 13.12106939758211
Cr 10.56291328894716 10.090690174315982 10.71078831832942
Cr 13.57861881369526 8.569417909959782 10.959385807216378
Cr 9.6544699130287 14.261592821160203 10.69926435176314
