6
Energy = -39.35524126 eV
Cr 6.175421718779904 7.02576565578677 8.878540603107613
Cr 7.626302777242366 5.872655220222563 8.082423052768698
Cr 7.217173299833804 8.000411025374717 6.71812888508705
Cr 8.832030008271424 7.331305532784176 6.269173438760916
Cr 9.08416987822213 9.398519056848743 7.6869116647741995
Cr 7.8411342986514265 9.142410058356404 8.90596182077405
