6
Energy = -41.79215866 eV
Cr 9.429677037789752 7.4590339181387755 9.035087562020989
Cr 8.275422128966303 6.313087571005783 7.320511824017079
Cr 6.990071144084928 8.266719742769265 7.0501033178646475
Cr 9.243147796191083 9.126980573094533 7.282499653477901
Cr 8.086963874856211 10.10565655374688 9.09862948122765
Cr 7.107786390563875 7.998074671125192 9.458409700476931
