6
Energy = -40.9442072 eV
Cr 9.396851381976598 7.389132275694264 5.9427210820277425
Cr 9.2180476595565 8.389346100389211 8.667854734971101
Cr 8.119191223339138 6.426032613740083 7.705137193461492
Cr 7.185179044489272 9.594867476895521 8.760672759334456
Cr 6.781942738462234 8.285621852431 6.837387058658104
Cr 6.719676640203482 7.336366158909891 9.507559041702212
