6
Energy = -41.14923408 eV
Cr 8.474796521054937 9.70709714273003 9.196538662200044
Cr 8.039321093188256 7.329363502699566 9.355481378573973
Cr 10.639160833077083 9.517298453978684 8.41519651444948
Cr 10.351241190068475 7.7322502220990845 9.81388106785481
Cr 8.087976478531866 9.20243466847784 6.986743326899701
Cr 6.251409710487326 8.391800110660167 8.066167538132753
