6
Energy = -39.3353823 eV
Cr 7.441086360568786 5.78564205024158 5.65137081718329
Cr 5.200144480066806 6.0817426420127605 6.302383376018957
Cr 6.454365581595936 8.062098367795349 6.218448514645791
Cr 8.48686866507469 6.716440420667105 6.875145783473268
Cr 6.244473658188567 6.0255481996765194 7.854516223306781
Cr 7.060965470667426 8.216432535768892 7.986039501533867
