7
Energy = -47.98998172 eV
Cr 10.297386736748166 10.242413002140506 8.323146817666137
Cr 9.230760844083937 9.672672010236653 10.281835025946696
Cr 9.403398283913242 8.059289996451616 8.105129100167925
Cr 8.48739835068982 7.361551535984573 10.12593198915521
Cr 7.520332729944118 9.520919807127166 8.433475595547431
Cr 6.989283225587986 6.979330053815456 7.881735116370973
Cr 7.576466452404243 7.651299740256217 6.364449966922266
