7
Energy = -48.98945956 eV
Cr 11.57242183308595 10.517379289073364 8.392997267929543
Cr 11.479855003828856 10.238196601156908 11.370273990608755
Cr 11.3610388695461 8.554192950476596 9.658240583973638
Cr 10.065268366215262 11.499767632095748 9.85423202155427
Cr 9.326383976348325 9.265469903737571 11.5386695662046
Cr 9.047208150987789 9.43874915370362 9.152877736034503
Cr 7.199214779654365 10.559457226328252 9.980807987355362
