7
Energy = -48.0260854 eV
Cr 7.559358966850947 7.271479072562206 5.650984863926327
Cr 6.145013455959647 5.5076592017972645 6.649119500985315
Cr 7.103533830849603 9.367660724813598 7.649762634560342
Cr 5.063421178628973 7.183072800398154 7.101255024865961
Cr 8.95513724956269 8.467484252874028 7.307788306130454
Cr 8.522084505814474 5.900672250247145 7.733799659103853
Cr 7.253118808608326 6.903639693582795 8.508958006702414
