7
Energy = -48.58636242 eV
Cr 7.274234275220478 6.63523999071557 7.962735002632036
Cr 8.786610740816357 7.238512911711166 9.678773107293384
Cr 8.772867438012241 9.666305232500845 7.138114629767562
Cr 9.218960329796106 7.454061052119099 7.1601318022310165
Cr 9.622329942371394 8.931477010885992 9.218738694474244
Cr 7.259611785260782 9.032000194846084 9.400809501323078
Cr 6.699083988522885 8.676101821485501 7.074396048014433
