7
Energy = -49.40653597 eV
Cr 11.208705153373652 11.26272046074006 12.581593615450329
Cr 11.364679105438016 12.308599303462081 10.674297484787276
Cr 9.563139312612298 8.81019122474846 9.54295063344012
Cr 9.197435463172889 11.030548640704076 10.508512676968076
Cr 10.456401245195153 11.131773817644351 8.391549708379342
Cr 11.716841021397894 9.877826136980747 10.083207718381294
Cr 10.278174960358358 9.383612859186192 12.10285993388641
