8
Energy = -56.19481364 eV
Cr 5.343952231588847 7.490692921650709 6.206426390879624
Cr 7.4676598031141195 9.014112463610928 6.161874266186551
Cr 7.833457880255804 6.846084403486619 5.48559941204172
Cr 5.995123096981754 5.689593103210677 6.302620949959823
Cr 9.170486547989102 8.263798413149074 7.580258072704058
Cr 5.9073740332941584 5.244192817835773 8.75522347638372
Cr 6.5076711734327555 7.75436997479489 8.056648647555642
Cr 8.145494286720103 6.068374955638009 7.822567837665506
