8
Energy = -39.11728925 eV
Cr 5.5482315933376825 6.537992067548623 6.120642227538615
Cr 6.425214787845246 5.936773517159031 8.162152724999359
Cr 8.507454983500487 5.052862665765827 8.247670103234164
Cr 7.634740228328916 5.5960329171577206 6.22240554046906
Cr 5.336244271292553 8.791656464662534 5.597508597867588
Cr 6.206893192097332 8.245317678434171 7.621397561288958
Cr 8.293595216505794 7.3050278682691285 7.720127875433867
Cr 7.417027163797842 7.903738257708304 5.677496805874116
