8
Energy = -57.09630974 eV
Cr 8.514668500935121 11.684027019724319 9.611430338662938
Cr 9.505869934069311 10.952012017486867 11.620004837807466
Cr 10.919556925923734 11.781250735678995 9.381910893644422
Cr 11.855836477692412 10.560796219537364 11.308039644538573
Cr 12.492998564825621 9.351716355141514 9.272450316819624
Cr 10.099850716364791 9.492865737745483 9.388068396627746
Cr 7.832754333324714 9.345197514595025 9.992790319847654
Cr 10.64009568124016 8.420367256614075 11.35917717378282
