8
Energy = -55.60703966 eV
Cr 8.228504923909265 11.413607115363002 10.40834245981609
Cr 8.285237696392974 9.782656207057965 9.101522979390678
Cr 10.497456366202364 11.445307106004273 9.295279295070815
Cr 10.057909094827044 9.5854459994948 11.013229035543834
Cr 10.753962399968293 9.109050967891182 9.298073342657682
Cr 10.65157934149702 11.774262641769436 11.254904923040387
Cr 12.536913347864466 10.593228532664334 10.369814914107684
Cr 12.156378305510376 9.771213764525902 12.476085435319616
