8
Energy = -56.92337744 eV
Cr 7.759650617271856 9.179200062886142 6.908627173072281
Cr 9.790224073645224 10.105411173466479 7.617453633373071
Cr 9.3539408354405 7.434889490717858 7.022400137237749
Cr 7.2881521338580075 6.362461610506193 6.915305869526697
Cr 7.308043578058124 9.877346981708781 9.126069523825777
Cr 6.381398628350892 7.766966203723334 9.249441772326767
Cr 9.16623041843439 8.318590931007456 9.23603175928618
Cr 8.119162791188074 6.121936622230429 9.091473207598025
