8
Energy = -57.29226837 eV
Cr 11.922170475180554 9.719866955571527 8.837517689132593
Cr 10.788899776232906 11.785693566110163 9.307054464904285
Cr 10.482223784697421 10.221941678970799 11.06764655655771
Cr 10.994066770265412 8.04393618916671 10.285951163505644
Cr 9.555987510635475 9.466036308807622 8.348184051611097
Cr 8.243772655982614 10.219637837008602 11.65030657876796
Cr 8.560915335430698 8.35608279380424 10.12793072857656
Cr 8.409592800235737 11.187099095648602 9.416178457088249
