8
Energy = -50.79537993 eV
Cr 11.295140045629655 8.93654920567527 10.904618457388809
Cr 10.112291738325775 7.716895570194407 10.567028314142448
Cr 9.951808539783409 9.652950824166126 8.842716804638032
Cr 9.875064929574151 11.185755797160285 8.016505912625524
Cr 7.970958544089128 6.524633119975953 9.648366076942755
Cr 8.030920597353418 7.966975022958716 8.674728601421105
Cr 7.623269182958902 10.10343896968863 7.273213092455198
Cr 6.255500527219852 9.044923378539156 7.17604645041538
