8
Energy = -57.4516738 eV
Cr 8.393616210811937 10.224109640190125 8.82370052762915
Cr 10.538519282407679 10.97547115193077 8.154936727569973
Cr 11.607850220791272 11.199361335647144 10.21067840777092
Cr 10.75926464915557 8.762048283927237 9.10330151973262
Cr 11.658734376011092 9.010047240610769 11.239701762187028
Cr 8.928883040495814 8.88086802613986 10.649643299595628
Cr 9.277677381232495 11.664011360157701 10.55245188524018
Cr 9.98105168567787 10.30129052135784 12.303002501775152
