9
Energy = -62.66282221 eV
Cr 7.654942541764177 8.025896826345836 6.718123508064564
Cr 9.691280586414932 8.026635500619498 6.717575196418281
Cr 8.673083388247287 10.010486034604194 6.950673618953801
Cr 7.447170810962035 9.31043887022067 8.671071957895618
Cr 9.898883390008343 9.310573871819338 8.671062207569378
Cr 8.673430900818012 7.313108731624331 8.67662459980371
Cr 7.653337957286714 8.0264801366716 10.629375311670614
Cr 9.692940476815332 8.027256610614476 10.629814993653929
Cr 8.673113236495858 10.00730691748007 10.393861789188836
