9
Energy = -45.00614024 eV
Cr 10.924491939020184 8.515820341091334 11.47426515679415
Cr 8.961288901132633 9.480027338580866 8.378989555330092
Cr 8.84568905585352 8.555635176062433 10.513808402785752
Cr 8.118662907036159 10.75363814054191 10.16166931356113
Cr 9.352830746657101 10.142332917285785 12.09341149465741
Cr 10.406859699086255 10.261087440644216 10.064566424078386
Cr 11.119758963051368 10.095526934337697 7.896640290772862
Cr 10.708751549700446 8.127220533565009 9.150981473375927
Cr 9.51745924380573 11.69599074409955 8.50546186908893
