9
Energy = -64.86824254 eV
Cr 9.243682366023215 6.650837362302649 7.429106043802031
Cr 11.115626448849065 7.822288597206049 7.582748323420912
Cr 10.567543840617848 9.612796062348991 8.605148525204497
Cr 8.601118372026104 9.024484518850498 7.171425122201294
Cr 9.169962600481172 7.798328265496815 9.620584045776916
Cr 7.981001759775187 9.974361186554772 9.387712434613615
Cr 6.9414833004582635 7.666362164952221 8.4724154205923
Cr 6.0609543317053625 9.79094859486012 8.057634483123003
Cr 6.661438590955852 8.49592369918057 10.639207533211286
