9
Energy = -64.89979048 eV
Cr 8.829445180943221 10.153661029488267 9.723454389788472
Cr 8.60837549176052 10.82493086615179 7.440407056979782
Cr 10.28610392047299 8.901930774812815 7.736780480310833
Cr 8.208772427319046 6.517702118852951 9.255742152110574
Cr 7.099823538777084 8.670236369768315 10.093801903909247
Cr 10.137587057362788 6.403239374788163 7.716089753908215
Cr 8.059268031310442 8.16229277983297 7.576788236884169
Cr 6.535014728440346 9.913337272883583 8.14215087536044
Cr 9.878735623613712 8.095795413421492 9.957911150748512
