9
Energy = -63.83415767 eV
Cr 9.919863857877461 9.229264446605685 8.574137856440828
Cr 9.085741902736608 8.835369316757507 6.266427951253681
Cr 10.730359116999871 7.024072020421439 9.017047592554402
Cr 10.41030129643142 9.463235497306396 10.829819613704538
Cr 8.861593804808571 6.827727709877044 7.525751068866344
Cr 8.258372567560874 10.893015183769851 9.084025245420529
Cr 8.187318895781798 7.8647987995185655 9.59956833432219
Cr 7.225983137383852 9.085216415647825 7.907445678375277
Cr 5.782439425952097 9.31402631192166 9.777151030424301
