9
Energy = -64.80072894 eV
Cr 8.904297920846455 9.14213951240923 10.08765623442998
Cr 8.992217890566927 11.577792820216809 11.40080142003441
Cr 11.030887791045567 10.421632030576678 11.095430219313755
Cr 10.795992670830008 7.8142184225025435 10.21956700136676
Cr 9.4867597821588 11.251544972836582 8.968365435718022
Cr 9.539702429322775 8.626077422954362 7.823071574738643
Cr 11.440266612262246 9.681906845789044 8.808212104767923
Cr 8.777566744719062 9.41714758297579 12.414663561751405
Cr 11.412222969539373 12.40821937543189 9.886007453265053
