9
Energy = -64.8991147 eV
Cr 8.906885724345248 7.355554475121594 6.240791768500729
Cr 9.345544035903107 9.67159040540511 6.45167537037273
Cr 9.256990487252143 7.303217873300893 10.916039499419748
Cr 9.701347433858125 8.559891297956819 8.537392762960136
Cr 7.7312364901511295 10.406611652071154 8.0649702767107
Cr 8.501251955733121 6.549526084603439 8.651668621269257
Cr 6.990479818950637 8.382795787133892 7.235465190009674
Cr 8.617699678603104 9.622601169036574 10.330900901096904
Cr 6.9233923112060864 8.113212484663787 9.546772119032578
