9
Energy = -64.69302891 eV
Cr 9.73335958129643 7.557310400419712 11.438093977746941
Cr 11.677161948904075 8.557273831747551 10.9079240108601
Cr 9.813275947388298 9.864375182911422 9.88085420341969
Cr 11.968105325049143 10.743514787385294 9.289381116860612
Cr 11.616727495416423 11.044933069404145 11.718114953075977
Cr 9.52915566104763 9.595595324348919 12.352323712965156
Cr 11.86461317481134 13.247367688054625 10.488407980713673
Cr 9.44904652465891 11.968403214224711 10.980801245620672
Cr 10.317821676976703 12.35380812874303 8.82929001440812
