9
Energy = -64.06426536 eV
Cr 9.652082376339987 10.039929212028168 8.822779917385121
Cr 10.452625354203432 7.801030131136511 8.78272474139739
Cr 6.719091310975593 8.38273704364031 8.82448478739103
Cr 7.933956752740583 9.727839886138112 7.154054882633365
Cr 8.23132375653882 6.959016915872739 7.346260171178727
Cr 8.567508039714737 6.721686371003261 9.679525259030306
Cr 7.10816083876084 10.181169201344108 9.382103718292226
Cr 8.607379046706694 8.885682270696824 10.52101679001015
Cr 9.835850381227003 8.408885825271994 6.595026732681813
