30
Energy = -61.74128924 eV
Ag 14.74398424129566 11.77103652589463 9.076767100790223
Ag 11.229413644861966 15.065785224900699 7.9789989639183
Ag 13.89777336666565 14.50538399431149 8.95793894557827
Ag 13.544912292814704 12.931108193782393 11.339726843278692
Ag 14.536364999468873 10.36359157634667 11.625885437698814
Ag 15.426634786517536 9.031725037855542 9.358422792883797
Ag 13.406130321655427 7.059188642488343 9.255726697831772
Ag 11.56324922412232 14.741385564083268 10.695025485714785
Ag 13.42789841143483 11.606757085443306 13.79744763496134
Ag 11.609578310837259 13.635241484552601 13.215147818077035
Ag 12.016905976247132 12.473602475324807 8.853472414787673
Ag 14.736785297027055 7.617051274805921 11.713867413729815
Ag 11.753756138391607 12.740662353091176 15.815031337839503
Ag 12.926509513618031 8.849948676676808 13.383635243808133
Ag 12.127873927648208 6.641774197763007 11.766059310717297
Ag 10.902221432314269 10.516251849774386 14.405104656780257
Ag 9.263409113431253 12.860530780882751 14.501331599705939
Ag 12.735854230185934 9.76321048354509 9.196208860831447
Ag 9.2030473383791 14.599646288445284 12.243835145418725
Ag 9.229171265532239 15.996784019719042 9.796978690490334
Ag 9.41023225783471 13.277540878632927 9.20606023365932
Ag 7.053381534459074 12.90461799041791 12.900220072753186
Ag 10.769660083756422 7.874082150605569 9.5880088487466
Ag 9.43690578914637 6.166533628768921 11.33071055610467
Ag 10.05620990127172 10.559940514084108 9.332889490475335
Ag 10.20731534736318 8.315271532611137 12.920203666530183
Ag 8.492066886222112 10.531785054605614 13.018204070418978
Ag 7.083911923077626 14.236203696335483 10.437196178124585
Ag 7.698461194220486 11.493243032111245 10.493217901029208
Ag 8.432096977175862 8.792579565075869 10.756109240718185
