29
Energy = -88.45978117 eV
Al 10.471213152183154 10.47117514 8.310602092162394
Al 11.841339418261025 12.844680885436794 11.966017102769394
Al 10.471213152183154 10.47117514 12.631748187837603
Al 7.730353953371962 10.47117514 11.96618849251764
Al 7.387975667722355 12.937856899855717 10.47117514
Al 9.876900458968745 14.374788563859655 10.47117514
Al 9.083601889941198 12.874737874301356 12.996133610281175
Al 11.319733172215772 9.001215227320973 6.264494887698044
Al 13.246951789155588 10.47117514 7.946055951677425
Al 11.841339418261025 8.097669394563207 8.97633317723061
Al 9.083601889941198 8.067612405698643 7.94621666971882
Al 8.773482732418197 10.47117514 6.26462908803523
Al 11.319733172215772 11.941135052679028 6.264494887698044
Al 11.841339418261025 12.844680885436794 8.97633317723061
Al 11.99146076276732 10.47117514 10.47117514
Al 9.711023556468996 9.15465085822394 10.47117514
Al 7.730353953371962 10.47117514 8.976161787482361
Al 9.083601889941198 12.874737874301356 7.94621666971882
Al 9.711023556468996 11.787699421776058 10.47117514
Al 9.083601889941198 8.067612405698643 12.996133610281175
Al 11.841339418261025 8.097669394563207 11.966017102769394
Al 7.387975667722355 8.004493380144282 10.47117514
Al 9.876900458968745 6.567561716140644 10.47117514
Al 14.149058877249107 11.9083299703895 10.47117514
Al 14.149058877249107 9.034020309610348 10.47117514
Al 13.246951789155588 10.47117514 12.996294328322577
Al 11.319733172215772 11.941135052679028 14.677855392301955
Al 11.319733172215772 9.001215227320973 14.677855392301955
Al 8.773482732418197 10.47117514 14.677721191964768
