29
Energy = -88.75400724 eV
Al 16.84974744726675 11.356355646036093 12.18733888836057
Al 15.308077051334257 12.191163953515936 10.057234308322103
Al 15.066597207133519 10.201715997533073 13.726340001763683
Al 14.553088761133335 12.793070623690097 12.614392462856705
Al 13.35706721114658 9.098446285756161 15.480586001249115
Al 12.53843045697863 15.888204287200201 11.753648487858449
Al 15.193959138291882 9.492880521927486 11.029885526462786
Al 12.605133563561113 11.337808515463198 13.958913321894249
Al 12.012304515556128 13.35765050867453 12.436388069583721
Al 10.912515571628823 9.317898556524218 14.481598202651721
Al 12.93222407421055 8.799983482348104 12.687004217389694
Al 10.55413744250328 14.652551151005678 10.25551714223802
Al 14.402076235691924 10.16798084444048 8.557581880941067
Al 13.026126998572632 13.611030168929332 9.857393357605112
Al 9.979093789513195 11.93536105461989 13.392181796355562
Al 12.981999830922062 11.078926956120691 11.072312686991305
Al 7.267132078296018 11.818357816607334 13.517748443053396
Al 10.1365560102378 15.165828831226797 12.929092709180539
Al 8.565792644091228 9.576069344950364 13.497685464619275
Al 8.364622565419838 13.99034005173326 14.383223495509586
Al 10.553704500661562 9.569017397473823 11.614603089243948
Al 12.782857377776791 8.55417594060649 10.071374995833281
Al 10.515740321836539 12.005080464964283 10.534714501712918
Al 11.804212600427563 10.612328291909524 8.4840464756845
Al 8.113631905088456 10.792080573563386 11.094216870154318
Al 8.256100509595884 13.549075979482813 11.635339472173499
Al 10.941538438778728 13.073816853744756 8.032886083695503
Al 9.220279426338914 10.309997498367686 8.725731179076716
Al 8.408528835409818 12.898149412134401 9.100704169421391
