29
Energy = -87.41165386 eV
Al 7.187334017818806 10.844919617012199 11.382638195088536
Al 14.64250388141561 9.513171787754136 9.755660650830976
Al 12.419606351634467 12.519707946049532 7.237811067082103
Al 11.256986977542699 14.45343657877108 12.243138041361577
Al 7.827616457536131 10.324239502612768 8.763038827515887
Al 10.249475437390744 14.097584682246657 14.716737264488064
Al 12.070355337649719 9.320113039880868 10.34235768517492
Al 14.02343682549816 11.068184771262422 12.154551798852346
Al 11.20307746453195 9.276132019976123 12.794773511598358
Al 11.360377588220318 13.692212581301906 9.432410287239415
Al 10.480831304061258 10.912190606445133 8.615890498925657
Al 12.629404603956264 12.691103860051264 13.82896545684455
Al 8.603516604138067 10.1005834980335 13.496272074438968
Al 8.72910452471172 12.561153483014339 9.880648808610196
Al 13.453093612516236 11.928304742939433 9.624061969497996
Al 11.075185728855462 10.658165692535807 5.899373975291424
Al 15.356472569692855 9.671327809072713 14.156145213647239
Al 9.477424659876197 9.73431496623604 10.83332294606264
Al 11.35690987380677 11.7916277537158 11.427997677464672
Al 12.785421685468334 9.77221930387997 7.789013858866094
Al 8.07047032798752 12.41136966080129 15.079141644785244
Al 12.787593428168524 9.95895070068822 14.79519118454972
Al 10.2583285167414 8.864905560924386 15.248315307512973
Al 13.951944728768453 8.408678365842745 12.25596299383568
Al 15.011627604143216 11.334422781164303 7.452672507603695
Al 8.98669261881472 12.775832319579198 12.561906902372877
Al 10.570551812646212 11.472504018559336 14.878346145568083
Al 13.731310591324496 13.72091806113161 11.529946438392322
Al 9.279765957408816 14.95814538084301 10.660128158822927
