29
Energy = -89.61684284 eV
Al 7.087902173810602 8.588277782610987 9.817235474014844
Al 7.424081333529725 10.476307932820923 11.780098106966923
Al 7.018115731558304 10.052297337931234 7.558839088924769
Al 7.665187537802095 12.545907048210927 8.044661982683396
Al 9.329840577089497 8.608223523289793 11.41862445490216
Al 7.862864126702597 12.695453245296543 13.3722944020544
Al 7.892877865806136 12.920137151328177 10.651297570650906
Al 8.939805161320903 6.6405662089322 9.523400521101278
Al 8.982867920391643 8.347564080933267 7.352593408116937
Al 9.077035503288588 10.582076895147397 9.536298628606021
Al 9.646908453442691 10.544999606420083 13.327897601996053
Al 9.582290099456875 11.08720692655423 6.916605366021099
Al 11.062776353563422 6.577432651107149 11.109166754135972
Al 10.109764905833243 13.13093051932495 9.007988138488454
Al 10.195090914028162 12.871157436749867 11.869140086052631
Al 13.113949831360536 8.263567083103299 10.692569252758446
Al 10.991669398676757 8.541157815351811 9.126323622131968
Al 11.57393177292159 8.560406913576282 13.122168045850112
Al 11.476908346921324 10.543822354821396 11.165428057811184
Al 12.174330689739667 11.256344100751097 13.771194677768035
Al 10.316708347391515 12.957869170839885 14.599134319621422
Al 12.406499756260652 13.183013521139273 10.401907449034692
Al 11.793259865437355 11.103286164576073 8.523618715693226
Al 11.498021372020451 9.246849864704057 6.5323395653618315
Al 12.31245067714428 14.055981962628213 13.067685738767363
Al 13.634672402686276 9.078739295979016 8.098996405141802
Al 14.042018856520174 9.708910966952192 12.68732215869497
Al 14.270274081728429 12.381705449242341 12.311488766053248
Al 14.000966033392377 10.932877079503648 10.096751730421127
