21
Energy = -40.87539272 eV
Ag 9.136896 9.136896 9.136896
Ag 9.136896 7.425636364877312 11.413018168064658
Ag 9.136896 10.848155635122819 11.413018168064658
Ag 9.136896 10.848155635122819 6.860773831935339
Ag 9.136896 7.425636364877312 6.860773831935339
Ag 6.770224430027035 9.136896 10.66811530638951
Ag 11.503567569972967 9.136896 10.66811530638951
Ag 6.770224430027035 9.136896 7.605676693610488
Ag 11.503567569972967 9.136896 7.605676693610488
Ag 7.545122886000446 11.489231371072636 9.136896
Ag 7.545122886000446 6.784560628927366 9.136896
Ag 10.728669113999553 11.489231371072636 9.136896
Ag 10.728669113999553 6.784560628927366 9.136896
Ag 6.547421440189047 6.601581347272424 6.587568425778231
Ag 11.726370559810954 6.601581347272424 6.587568425778231
Ag 6.547421440189047 11.672210652727578 11.686223574221772
Ag 11.726370559810954 11.672210652727578 11.686223574221772
Ag 6.547421440189047 11.672210652727578 6.587568425778231
Ag 11.726370559810954 11.672210652727578 6.587568425778231
Ag 6.547421440189047 6.601581347272424 11.686223574221772
Ag 11.726370559810954 6.601581347272424 11.686223574221772
