16
Energy = -46.43670371 eV
Al 11.343914484212425 6.630378264178322 10.715986588523785
Al 13.357911166157066 9.420270677922867 9.478464935882567
Al 12.058349500601096 8.870186252213287 11.739228309954077
Al 10.667733338162396 8.842367652669795 9.23702175486925
Al 11.885521610704878 10.94185172070568 7.9855484740254745
Al 11.6376458889886 11.183431883915487 10.734754766170475
Al 9.19259089050776 6.263076764072824 9.368750578741976
Al 10.034103003606203 10.42281853403668 12.855335867591586
Al 9.7412192011653 12.819865940599076 11.914989481781095
Al 9.192683435310858 8.298378967521007 11.483041444759113
Al 10.313193812427768 12.829851142225076 9.302069537084869
Al 9.257958501792258 10.562810800186824 7.778325027885344
Al 7.930164161326969 8.498233455490501 9.032514533077
Al 8.747318080564382 10.706667044144405 10.462843930733786
Al 7.786851798352799 12.72209200405504 8.890584721251845
Al 6.4262745843817 10.561152354325445 8.593973505930359
