11
Energy = -29.53785128 eV
Al 11.527850802964778 11.635398739900362 8.790996347533802
Al 11.33445781725229 10.106899104040194 11.01459305695814
Al 8.949183922277925 11.937944844264623 8.683180729020393
Al 10.12460832118511 9.411656140606846 8.603710749058171
Al 7.521467439320674 7.387158366064399 8.639436494622135
Al 10.651898294118068 13.118930623026516 10.914297301565945
Al 9.909345349132968 6.640628209741135 8.9855402692675
Al 7.449980744582591 9.895077449651247 9.035011628661454
Al 11.736180506206708 7.610790566473374 10.541056845873381
Al 8.911191229311003 10.994759546434862 11.17105962288227
Al 9.014498846717636 8.391419682866195 10.751780227626146
