12
Energy = -32.95599988 eV
Al 11.440058700466773 11.26200593952775 9.90580015387442
Al 8.92700033450745 11.585016616852123 10.12384337671768
Al 12.532234764894625 9.18044773285384 8.922992226033005
Al 9.994301519031216 8.723268766991252 10.224645930261081
Al 9.880743355200687 10.138589278461419 7.922548486124551
Al 7.880137735631863 9.840899135412059 11.676495070895996
Al 7.027331148725747 11.673852204381522 8.343254371296759
Al 10.908135381615065 7.530600211782573 7.91430453779057
Al 7.4642873612730245 7.332098405836009 11.213212717656756
Al 8.624622529631054 8.009283850317988 6.7416734016653885
Al 7.597726891282639 9.15224757934852 8.966381712446482
Al 8.75807070449932 6.60634070499467 9.079498441996783
