11
Energy = -29.67350454 eV
Al 10.76820073055404 11.096238871840972 11.367006463699866
Al 10.084185195665713 10.785066073317214 6.367596774002789
Al 10.658680152942754 8.494688558076346 11.440190346277607
Al 9.808207917241536 10.058091031570418 9.008904885927912
Al 10.243738116916772 7.400382622036818 9.106674880636632
Al 7.696011370484429 9.874536830442931 6.8657885820182765
Al 9.968265862882125 8.198416534730415 6.638317778334073
Al 8.366040415170957 10.14113172826538 11.681923766163989
Al 7.172052644936696 9.65429994994784 9.411300316484912
Al 7.7730207040006345 7.428337578219853 7.969894264691612
Al 8.190395346091353 7.597608678438432 10.871200398649338
