11
Energy = -29.70344396 eV
Al 11.636665538625989 10.043663166137916 8.956565680880862
Al 11.047026737816541 7.844194085136518 10.510071791644924
Al 10.842752973563023 7.623333185714626 7.77309363136543
Al 9.439772810283793 11.784905950665612 8.968971271316846
Al 8.858478417568717 6.492525277177734 9.305216293925966
Al 9.139135955896476 9.136797321786004 9.17077639589466
Al 10.169626820962971 10.424870740111785 11.261025988062167
Al 8.134081229216722 7.880028228880238 7.040027841711202
Al 7.2692250882096 10.444902544608839 7.7811981676938045
Al 7.447803585184615 10.689752677047863 10.521414432362462
Al 6.630986006888446 8.250581986950156 9.327193669358445
