13
Energy = -36.22074182 eV
Al 12.362189440667505 8.804090833018577 8.953826298738125
Al 14.132318471322469 10.572988614861202 9.598267221606028
Al 10.052849788517744 10.471111574847336 9.351423529954419
Al 10.012053042938362 7.89374223144755 8.314983417597599
Al 9.814354044423851 13.223869887390897 9.450935718539947
Al 12.225400209624816 12.312857104302356 9.682312462170177
Al 8.0988360032101 8.45035282275169 9.98257882236583
Al 10.65522638187527 7.913075072347721 10.942822028789536
Al 12.002525073775924 10.137302014298523 11.336821146265237
Al 10.497091517622803 12.219345923128463 11.873398503468998
Al 9.300300895396116 9.891397989229924 12.003563299748448
Al 6.565493448665753 9.887017454060091 11.490932465621981
Al 7.968341024803371 11.909827821159752 10.705114427977756
