15
Energy = -42.38774976 eV
Al 7.220529122599223 11.112670451664664 7.46398294160502
Al 9.08891188830752 11.923889187210555 9.236782201572163
Al 9.749846905318027 10.963830345931676 6.505936963202608
Al 11.447740409348862 10.787440147994763 8.526987017319374
Al 8.298955129227691 8.747404851386102 6.004596279553205
Al 7.42997271319613 10.171178160798997 10.355848736139558
Al 6.589943382062735 8.683735397620667 8.094039941471053
Al 9.314931067996953 9.182351577184889 8.497033023283274
Al 8.666464017432043 6.714226682756527 7.7254534477446
Al 10.155060042300645 10.15532405751867 10.909155500367804
Al 7.456278922874058 7.494789741372286 10.153216449495874
Al 12.24040406879707 8.771276416099903 9.959344383803025
Al 8.827725163237755 8.231263687176561 12.246607161436827
Al 11.45295030974549 8.032784436277394 12.375521802382732
Al 10.10208359035526 7.098593171644353 9.985549760012505
