12
Energy = -32.88205708 eV
Al 9.288170858641712 9.910430260302876 11.29091569132527
Al 11.194284017872173 8.325324285183106 10.015201095740645
Al 8.793900096239579 7.3084687983542835 10.746071147181471
Al 10.655262770414938 10.808494618797287 9.148256900200108
Al 6.77148614561548 9.071322864879862 10.436547853844328
Al 7.932025014943993 11.265295701652315 9.401620709402385
Al 11.012572430448875 8.71624869882861 7.353946358799781
Al 9.857607238609083 6.519499996252506 8.381458985294492
Al 8.993022220520748 10.482636939477038 7.032503868823994
Al 7.129362547436818 6.974769942647194 8.63919383070937
Al 6.597099773393021 9.460214441569597 7.773713788987698
Al 8.49974870924675 7.881835275438366 6.505111593073753
