17
Energy = -44.83406294 eV
Al 11.12508279927128 15.28090959330518 13.57767670546829
Al 12.544444367314693 4.706357778484458 15.133690416969213
Al 11.985479706724583 18.169121601330204 13.76689845707813
Al 14.041037848648463 18.416489025723173 12.002233725361704
Al 12.883753656559058 14.033032413472245 11.854553531249978
Al 11.977397347439128 16.650664568342222 11.349855821517789
Al 13.185841208875326 13.757690422056788 14.624304474062939
Al 13.626206875909428 6.897291919665149 14.343929422054254
Al 13.619416156760883 16.132262550428745 13.397488206056043
Al 14.65416832102167 15.952134664949916 10.936287584476608
Al 15.393586351909098 14.191326300511406 13.019372417136195
Al 12.079874830479557 5.018224222289684 12.637954883848643
Al 14.643068169069219 4.129460013590069 13.781848356366709
Al 15.239576614240699 15.490200171398296 15.447033471138853
Al 14.367978366502964 18.113685307400914 15.088480746984406
Al 16.08704202227419 17.096676007642248 13.235303220875856
Al 12.555454162149235 16.17183966853762 15.839003042429372
