14
Energy = -38.63449747 eV
Al 8.841869179964325 9.778226500526117 11.53222454018088
Al 11.696570558481566 9.926632479003473 11.812342343081266
Al 7.849868916162422 7.246804851236002 11.769234578629026
Al 10.439717627701556 7.595557319076802 11.64773038272365
Al 6.621983105592677 8.758463103530945 10.021976301981441
Al 8.868218896915145 7.460825952459986 9.246600131764069
Al 11.016144685893357 9.061688467303888 9.37953375005543
Al 8.443564541874455 10.564873079440302 8.99895151903981
Al 12.687379277396806 11.114781166928413 9.572772069414823
Al 10.242506187088788 11.819591388840745 10.49426854007387
Al 10.80096332418552 11.27359813228646 7.720967403198807
Al 8.547368690863957 10.932109241438388 6.372429461082778
Al 7.14061323367121 8.85003798310948 7.4208497302016205
Al 9.833100749936618 8.646679262001802 7.0399882485730565
