14
Energy = -39.6730864 eV
Al 10.465969060562815 10.831230323987414 5.84059703417668
Al 10.323268171450914 11.016609281588433 8.567619813536698
Al 8.285404780555536 9.701288655335265 7.1453784859076555
Al 7.662384009258122 10.736485447902254 9.750820110946941
Al 10.69974382746319 8.509185215402404 7.394100792364929
Al 9.353517956796974 12.355856633354321 10.718074974338881
Al 6.300712502803066 8.84900404484529 8.69790176019542
Al 11.55337195565295 11.263290945867617 10.976199813796498
Al 7.173590128749989 8.301500914222594 11.205204546477788
Al 9.365488973103824 9.812373108373551 11.682214476369758
Al 8.753487185555837 7.9943123583585045 9.10344255928725
Al 10.960209244568517 6.562455861471174 9.182225054090267
Al 11.43727515991798 8.861248090833667 10.1817077335281
Al 9.567609529786049 7.107191604683677 11.456545331208893
