19
Energy = -56.25912438 eV
Al 13.644900625869825 9.12906222346671 9.044086313128798
Al 12.785071544462157 7.650075326724264 11.33581400431426
Al 10.506131190076193 6.211587074839369 11.17670712354786
Al 11.3917723688524 10.67833767590086 8.247300758376378
Al 11.093031735021468 8.149942176988596 9.324289950242301
Al 13.830075873728038 11.733634951686406 9.1529844117569
Al 12.23805495983958 10.351056785150517 11.016176614072956
Al 9.136367739892819 8.88791607735481 7.806072135045033
Al 10.464992626148621 8.764582678553825 12.21210357552423
Al 8.425008336198701 7.703334553891312 10.320456814924716
Al 11.729843678049269 12.834314752716937 10.175974130399663
Al 9.458231909447212 10.299436226527854 10.099590745861278
Al 6.929628386948489 9.7236967435525 9.320898514236635
Al 7.878913087061362 9.410121617188095 12.3757874853931
Al 8.824721963655218 11.463504048537255 7.717476240683027
Al 10.121361362583263 11.534447848998768 12.239067301950213
Al 7.487534246901473 11.77538870368906 11.439646288288781
Al 9.206112312199561 13.092916132309856 9.877547807588538
Al 6.642195184342225 12.400593533201329 8.911968915944069
