16
Energy = -46.45934221 eV
Al 10.823209691282733 11.269755619872953 11.64732101437589
Al 9.785725458020856 9.29838923170627 13.201056499075674
Al 10.744430017769243 13.991379875180261 11.36429895979581
Al 7.409319660210219 7.7714376008302315 9.497462669273546
Al 9.596820356221654 9.044892297809469 10.489346052180021
Al 12.808762706154988 10.465539418353067 9.897929368784805
Al 8.081310254039092 10.749350642137461 11.868409077384202
Al 13.092956738385746 12.752074604227682 11.301666599216135
Al 9.745257932647402 6.527127003149288 9.491448982425714
Al 7.701750819028014 10.388003692325428 9.078054397352888
Al 11.898398672337384 8.699869918350265 11.796255706213742
Al 8.981240709615772 12.499589204242522 9.97075308495463
Al 11.74111265912963 8.233241906590717 9.01634745484043
Al 11.578425601422804 12.81971922958211 9.098969794702777
Al 9.292554031145547 8.522894951570128 7.682832002961864
Al 10.44941925676612 10.697429368249358 8.328542900639077
