12
Energy = -32.21823102 eV
Al 9.840958721944064 8.635857015981838 11.592331097711146
Al 12.162020169013678 9.976942449272052 11.530287674468266
Al 9.862761294941356 11.266164323448066 11.498551014718
Al 12.105157135981035 12.249005221492514 10.151838
Al 12.162020169013678 9.976942449272052 8.773388325531734
Al 9.840958721944064 8.635857015981838 8.711344902288854
Al 9.862761294941356 11.266164323448066 8.805124985282
Al 11.907462052490756 7.64213849800863 10.151838
Al 8.54370186305249 6.707049848720463 10.151838
Al 7.778343330686601 12.204149520469324 10.151838
Al 7.807794263564049 9.608864987076332 10.151838
Al 9.948116956693221 13.65292034682896 10.151838
