16
Energy = -46.34639245 eV
Al 11.063916088101967 7.6960872548484245 10.419744392001059
Al 12.108849038931183 9.496348049870647 12.13668139463164
Al 8.541713022138198 7.865291322221043 9.842336335167815
Al 9.704602143147563 9.9222630278976 11.1496455258394
Al 8.227943872185838 10.677290063964179 13.463007500504808
Al 12.352881168953777 7.661149751208186 8.061629574574226
Al 12.559882662166626 10.053977891874672 9.617588607846427
Al 7.157352021121611 9.514826510525777 11.517378925161609
Al 10.670621648471785 11.359067033420986 13.278431981771147
Al 10.083562067034867 9.666206600624507 8.355659632331978
Al 12.41629798350223 9.959128587854327 6.89849244755902
Al 11.301462315440192 12.101138885771672 10.789255149719901
Al 8.415617220218714 12.380679293640766 11.419434217850805
Al 11.581476038790573 12.105865202774389 7.9975331469791895
Al 7.685927943525733 10.415467933794147 9.143104160498293
Al 9.322326871000094 12.443505126608096 8.99706632178188
