16
Energy = -46.17862936 eV
Al 11.930013437634244 12.169610642320345 8.461135348204467
Al 9.788213339343494 12.423930258571504 6.791380134726311
Al 12.673280231204407 9.77935592414159 9.301711032504825
Al 10.507016446183695 9.898876715708187 7.750780774937463
Al 9.333842548007588 11.984590530245137 9.434467426110867
Al 10.87404313211639 10.849285676948584 11.212873709222704
Al 10.860805442297947 7.433850119388993 8.74911606054365
Al 11.540124110114975 8.285689479611689 11.211580464123964
Al 8.398667418570717 7.901141766660729 7.725839196571132
Al 8.08167495047591 11.042843055619597 11.56452869220463
Al 9.558097327353297 6.588423532155969 11.26321076494842
Al 9.298194427684194 8.968033232456763 12.670734947127041
Al 7.244231788016502 7.132948741117699 10.218140554386498
Al 7.92641022112475 10.548237209174939 7.634733235363319
Al 9.16445629888152 9.1338346346699 9.980997376671763
Al 6.533026982044772 9.601185569684128 9.724451345659704
