17
Energy = -49.21086205 eV
Al 10.800453282636013 9.805193670415774 9.953224216952403
Al 8.27995831833224 11.866480974814225 9.794808683999467
Al 9.003682016011304 14.27783448784994 8.867617349465048
Al 9.730239157880852 7.959023661414136 8.316349101607653
Al 11.022750270821494 6.986646554042777 10.446084326769189
Al 12.4607622520477 9.052874337119471 11.927177156488982
Al 10.827929881408267 12.830674991719322 13.669982360317526
Al 11.174742850115926 10.234828857529553 13.945492578925437
Al 9.369097000629658 10.491847000244647 7.731113287178237
Al 13.211588146950772 10.916784145918376 9.365005722129158
Al 13.054740790851993 8.334462740750174 9.443364785505718
Al 9.811938527458672 13.663359417105715 11.333745422185018
Al 11.02627955487729 12.391907183252075 9.13067615575897
Al 12.11834659434013 11.690646906915266 11.613639653364224
Al 9.457801590707989 10.9761501090147 12.016086333623228
Al 9.822934924245391 8.371928493217295 12.324585641898418
Al 8.232983840381934 9.258292932314628 10.264314423090939
