14
Energy = -38.84287793 eV
Al 9.950407581730554 12.106858644689265 7.9608631335148585
Al 7.128781946984919 9.939468762923285 7.269302687121736
Al 9.853986134059484 9.723899519120936 6.8924106246451515
Al 10.29227758052439 9.927002423006059 9.52637313947344
Al 7.834895394447221 11.366101516609502 9.419729398365998
Al 10.195315547440005 12.328144551901042 10.631725408618264
Al 10.887364473961004 7.68839324694806 8.181425756516408
Al 11.26401609360851 10.220453659365779 11.968629950431406
Al 8.202543799742728 7.462424935522346 7.315700934898846
Al 11.993133216237515 8.073038844866451 10.519301083351676
Al 8.332632522897086 10.374929675665584 11.79607045863467
Al 7.783142850052461 8.705791558385199 9.607620940716165
Al 9.51607319575839 8.05155789404448 11.527229437466884
Al 8.99606314751452 6.26711546828344 9.603570083437546
