14
Energy = -40.85098051 eV
Al 9.073671294453407 9.20861905848764 9.108715675527089
Al 11.714059822951006 8.925315503818505 9.3603761028856
Al 6.516190254267415 9.184599987923603 8.497529310560699
Al 10.59767336994878 11.35504459675734 8.765617820781141
Al 7.711873322452787 11.519930435377733 9.360267570878843
Al 10.202151908196475 6.799324610030305 8.677177194445488
Al 7.826561065089724 6.949428247982843 9.876589357937341
Al 9.510951238688289 10.783182774342533 11.216757354337718
Al 12.204874427710577 10.341635416862504 11.691629280679994
Al 9.973176072374606 8.068877940300851 11.313828865889562
Al 7.296827400085831 9.23831052000459 11.135653471834315
Al 8.528830692749686 10.723972419893183 6.955531120452624
Al 10.616841816415851 9.070549055078107 6.905238665067826
Al 8.178349451753428 7.783241341715535 7.087120163009401
