15
Energy = -42.9205868 eV
Al 13.314972233455912 9.868960031742096 11.796051264083813
Al 10.878808888274987 8.709211787788032 11.101111544027036
Al 12.311127390401182 10.833297687357412 9.429580899107092
Al 13.158813390369813 8.25193241936628 9.649672393867187
Al 11.018854216396509 11.351598057434598 7.126455948135929
Al 11.143730929880025 11.477223580238396 11.795229481815642
Al 10.547361092767055 9.047927512999616 8.412193372324491
Al 9.118088625371177 7.168877504993394 9.421910708860986
Al 9.10860135415062 10.026402959032279 12.679675806294826
Al 8.306785710767858 9.71789956243685 10.098992260885817
Al 8.316678821674998 12.195244455172409 11.499313955973108
Al 9.900219267411568 11.978768170958249 9.48673362280333
Al 8.460179177643237 10.68865676030692 7.6248925038268185
Al 8.512669126886541 7.659175939924541 11.843555361367596
Al 7.0374501062367445 12.237647736413722 9.20662414347037
