11
Energy = -29.59382205 eV
Al 9.720790575940406 7.243389384395439 8.387565541850648
Al 11.882242975839034 8.665548621953421 8.516556147179351
Al 9.09661327587113 9.425969290770732 7.030937546557582
Al 11.422237791406612 10.506897692115075 6.736930978056966
Al 10.371309000479418 8.793819438707349 10.706190416497014
Al 10.162266009334447 9.509567279716094 13.261822089750849
Al 10.247893778503938 10.984451203803067 9.078672249044804
Al 7.994293117444368 9.339893419452826 9.357637808305059
Al 10.467782262056346 11.546579842726548 11.673684304766004
Al 7.944411947895445 9.523057402892114 11.934780299415372
Al 8.083613044347373 11.854280202585855 10.70867639769473
