11
Energy = -29.99553564 eV
Al 11.398286821188732 8.557246392846832 11.170303805985498
Al 9.524567785971062 11.661739035899851 7.432202566456557
Al 9.978351468312086 10.721550953395536 11.54125424139205
Al 11.146004587173048 10.12716497943969 9.070596437866554
Al 9.8455721418619 12.631375450298979 9.790764118000238
Al 8.840041667487473 8.322324662382705 11.641052118803906
Al 9.938554997813368 7.6400672458935475 9.169098424152752
Al 8.466541330904533 9.900472218849997 9.447422156926628
Al 9.786161066083757 9.160074809415333 6.920803200288083
Al 7.180381819541852 7.189771388290179 10.005836026924888
Al 7.677915669874605 7.855371896513648 7.573210408177856
