15
Energy = -43.21018468 eV
Al 7.194654919835768 8.979229010661468 10.291983708542869
Al 9.676405140221394 9.462284588087698 9.383748470622884
Al 11.067184718703384 7.408018165801592 8.159653046462974
Al 7.827441974667484 11.497951353987776 9.408516500903232
Al 8.869133627447125 10.643978922134307 11.724871331669586
Al 7.662383727076733 9.324530821957984 7.651381164513444
Al 11.07996563837247 9.49946784300813 13.265500078175018
Al 11.308802995764848 11.168384699790577 10.793235012906617
Al 9.445419047813864 13.38461068773567 10.83471227809821
Al 10.04967737438713 9.71963481691793 6.7575659400807275
Al 11.796498196451987 8.4428212166226 10.655234975926714
Al 12.140089799392184 9.97543816961241 8.434595928696847
Al 8.583619277762955 6.948004020228972 8.981083159292258
Al 10.26588672375952 11.960601700046563 8.44860593595939
Al 9.349652011651807 7.901859156714838 11.526127641457878
