17
Energy = -49.25047816 eV
Al 11.060908620882444 13.81850561037283 10.897394852190798
Al 13.374168296144548 12.588446250790541 10.86102460996416
Al 9.039730803604472 11.81158881845814 10.686068994688519
Al 12.939054993734082 10.032669507594042 11.287947548921144
Al 8.815695237308203 10.956342145745289 13.546419590866288
Al 9.812614789747778 13.818421915979792 8.65570365085979
Al 11.134116424587159 11.682668408968423 12.442058759621693
Al 11.368210404566305 11.399085619251316 9.38438435275013
Al 12.384898479920029 7.495713228060903 11.685750107739496
Al 9.026458885334545 11.529820816693713 7.885024965205068
Al 10.984780030717229 9.993892620295773 6.932888591465275
Al 7.55042860701889 9.856448870355157 11.476100141761288
Al 10.253285471195316 9.26536615874002 11.736369883525825
Al 9.200330981987776 9.344315106157165 9.248041675606332
Al 11.867134145924677 8.786346566036176 9.144713848748651
Al 8.016266703381747 7.386318362240478 11.114286000677208
Al 10.344287201180116 6.886199809741393 10.167827021260779
