16
Energy = -46.038137 eV
Al 10.296566862988383 7.854311484028384 8.054734507072034
Al 8.438699769604971 8.286193291475813 9.974230766300055
Al 12.598399876839387 8.267873761471252 9.255822337261893
Al 13.330880236233712 10.526278774432285 10.332734831826558
Al 10.51486843547868 6.969153568087666 10.75265156899634
Al 10.65313153605103 10.101472549884582 9.96321371979912
Al 12.038947426089551 8.708997981797745 11.960789483058585
Al 11.914536521503328 12.680122529648354 10.272535661456468
Al 9.388978299877198 9.419255386790267 12.333185677856768
Al 9.014007589347253 10.122227042477308 7.8323427328300195
Al 11.688996421430636 11.160764440527622 12.601269091218208
Al 9.459078189396873 12.445852055585465 8.93738271714346
Al 9.946979185522393 14.508301334264395 10.541756702641495
Al 7.828029450196592 10.724063849522866 10.334224101176632
Al 9.218977085055895 12.208945233031734 11.875015015669414
Al 11.198479166960693 13.780648886219307 12.733084189471025
