17
Energy = -49.23564436 eV
Al 13.511488503538795 11.393482896176527 9.118279369549185
Al 12.525940710541716 9.023734399791623 8.518864821649316
Al 11.385472011118154 7.210213062476777 10.098688514301566
Al 12.136787225074096 9.751800335777709 11.059753641669017
Al 11.281362852726824 10.986313451589924 6.94699835108
Al 10.93853837452073 11.766608681546176 9.503698378957896
Al 10.07201351744942 8.636152345044769 12.065889130992733
Al 12.688957738292087 12.378436688513101 11.468119577752983
Al 9.921880285798789 9.23724555654114 8.849689120374167
Al 10.246069145940991 11.389233380392078 12.196919779095838
Al 8.751604523386604 7.169782591656718 10.130330230136192
Al 8.121343675576808 10.192318145933886 13.380481495324732
Al 10.695661984426888 14.033084556571632 11.30396490031744
Al 8.694170371838414 11.410368942597596 7.952470153247018
Al 8.18966335381133 10.099572493181682 10.580736254900229
Al 7.404275566358746 8.063396502210962 12.174679989554111
Al 8.658649389863927 12.725812055251506 10.277357254813307
