14
Energy = -37.8537856 eV
Al 8.626179716188073 10.026628 11.802256846574515
Al 8.632147993473279 11.331675246283648 9.438508966982946
Al 10.026628 12.407078857987896 11.471179832184006
Al 10.026628 8.63560800557558 7.031745242404025
Al 10.026628 7.646177142012104 11.471179832184006
Al 11.421108006526723 8.721580753716353 9.438508966982946
Al 12.295153762973955 10.026628 7.125963341476469
Al 10.026628 11.41764799442442 7.031745242404025
Al 11.427076283811928 10.026628 11.802256846574515
Al 11.421108006526723 11.331675246283648 9.438508966982946
Al 8.632147993473279 8.721580753716353 9.438508966982946
Al 7.758102237026048 10.026628 7.125963341476469
Al 10.026628 8.746788825243204 13.878232777661525
Al 10.026628 11.306467174756799 13.878232777661525
