13
Energy = -36.40648795 eV
Al 10.860880076068565 7.874586117432859 11.442050680592397
Al 9.861546082415005 10.219955845009542 12.653744367975083
Al 10.91777974976446 10.364210096987911 10.256130167234135
Al 8.25835120453797 8.14478570962433 11.994622439573893
Al 10.018496057272252 12.611872761164165 11.580603019470596
Al 8.148967389826986 10.569268646572299 10.62120825231178
Al 9.0741516660998 8.402269145666587 9.365944746112802
Al 11.967252768894694 8.200409144607768 9.065845994368123
Al 9.592626924212437 12.39384612464464 8.98682684464415
Al 7.771989000848931 10.685530823514627 8.058154324856575
Al 10.466401354287349 10.176358631781959 7.695877371650187
Al 8.139260201028819 8.43516372217563 6.863124382107019
Al 10.532016984736606 7.552124778675559 7.013373161619748
