15
Energy = -42.03434513 eV
Al 9.66740676 9.66740676 9.66740676
Al 8.15153511122138 8.15153511122138 11.183278408778621
Al 8.15153511122138 8.15153511122138 8.15153511122138
Al 11.183278408778621 8.15153511122138 8.15153511122138
Al 11.183278408778621 8.15153511122138 11.183278408778621
Al 11.183278408778621 11.183278408778621 11.183278408778621
Al 8.15153511122138 11.183278408778621 11.183278408778621
Al 8.15153511122138 11.183278408778621 8.15153511122138
Al 11.183278408778621 11.183278408778621 8.15153511122138
Al 9.66740676 9.66740676 12.850388361937231
Al 6.484425158062772 9.66740676 9.66740676
Al 9.66740676 9.66740676 6.484425158062772
Al 12.850388361937231 9.66740676 9.66740676
Al 9.66740676 6.484425158062772 9.66740676
Al 9.66740676 12.850388361937231 9.66740676
