18
Energy = -52.23983936 eV
Al 13.21995918400352 8.713080039746224 10.612136717426429
Al 8.453522394329744 10.991222369265117 9.88156318196425
Al 12.907937894993479 10.289096961036549 12.77129235082952
Al 11.964418884524639 12.458230318188816 13.649422211312798
Al 10.594442192894112 11.26618721604371 8.071826797672635
Al 11.121218124230017 8.421996311200534 12.42958176989482
Al 9.697164136429675 13.338520706089732 9.805200374981931
Al 9.161134536221534 7.150894814917159 10.95716817133129
Al 10.49841397322617 11.401958201814185 11.584816715160065
Al 11.992011719356988 13.60594932149232 11.335449415368457
Al 10.364907463705958 10.341560968896374 14.02948710075922
Al 8.619710035586431 9.495594188305647 12.136676854337217
Al 10.079609529160766 13.677007223845811 7.187011772495422
Al 7.7065209954739 8.54487330531309 9.270900135010487
Al 10.553412376931304 9.228616533946308 9.758577386713673
Al 11.620768287428788 6.760707109593587 10.38495074513473
Al 12.732708052149261 11.173192031631894 9.815909578424378
Al 12.227503546057672 13.632644739517955 8.727402570980379
