27
Energy = -82.94298185 eV
Al 8.201185525985236 6.97251979954175 9.780481556032608
Al 6.734646790251101 8.964735759409624 8.589949770434993
Al 6.5171176199835426 8.737997858780611 11.258968463222002
Al 9.068529754633945 8.265049913842704 11.9416850252251
Al 7.760725050304248 10.626322731945754 12.742741057155586
Al 7.766581580438826 10.966372179651477 7.1778350769523325
Al 10.885686568433245 7.434537575811761 10.012964803617491
Al 9.400840590492317 9.313445326050733 8.79799358315825
Al 9.581739632064659 12.147082256855459 13.730956036810625
Al 7.533348229668565 11.088160016153754 10.06937464546368
Al 10.177508818051727 9.591522352263848 13.89593124945917
Al 11.901526304753649 8.681555319647934 12.181755931012086
Al 10.201863772267702 10.643504105861096 11.132009515277286
Al 13.547304250091816 7.993647180874348 10.115669495962463
Al 12.000888864440045 9.297080928393461 8.295437399727582
Al 10.451760587231723 10.731864626738172 6.6461266124834495
Al 9.653998880194337 12.130432224323501 8.78913173084077
Al 8.834008704088804 13.112761209443049 11.245174493128674
Al 10.839050297631745 14.160110583916179 12.796424718143065
Al 14.440240287019122 9.361934294004639 12.336472194599875
Al 12.153396402178755 11.496917068473142 12.85539635565364
Al 13.00360261994433 10.662641895116662 10.299697351406643
Al 12.321796212698507 12.045702445230315 7.980330289432424
Al 11.508243993674473 13.018804870781135 10.441439320367197
Al 13.332702203023153 14.147880481696998 12.057203547804916
Al 14.117352257825377 13.204623493482254 9.602111468982518
Al 14.752458663025065 11.890897962105795 11.914842768041881
