23
Energy = -69.79256599 eV
Al 11.518517040978947 5.770519817717902 10.410776999082056
Al 12.547756167190064 8.056201454201695 9.21686322388781
Al 13.475000017031572 10.31703643952484 8.160444193863745
Al 11.81170833388268 8.141632124991716 11.794275429469833
Al 12.46445716201335 10.411157929088912 10.65892692427449
Al 12.32087471393113 10.30699955652148 13.35365070145923
Al 9.845464133461277 7.60297950663156 9.276967593551342
Al 13.577816896097943 12.548711153646178 9.656789359172258
Al 9.50231986220864 6.9408804240337885 11.826947701695516
Al 10.802836013064978 9.88543545207793 8.11802325392806
Al 12.893459918490024 12.659759725071554 12.215669298402512
Al 9.699023556773641 10.302159065486114 10.512740007903796
Al 10.966414510063798 12.797095683152582 10.12207797810927
Al 8.18679762920305 9.33343688142071 8.156892038465008
Al 9.730021091085659 9.312280278075107 13.16689638696617
Al 7.735392186527987 8.670983709299865 10.829800854486292
Al 11.697233728570952 12.358213018900594 7.571667299230426
Al 10.286259793782508 12.028822077546968 12.607820522281449
Al 9.008200159908926 11.992152986168247 8.233891001169793
Al 7.773303938576227 10.974132135143542 12.480589555436893
Al 6.835143882153173 10.99937134533536 9.787533423184732
Al 8.429020297676598 13.025952056939316 10.8964324342096
Al 6.777374360061869 13.44848257175932 8.828719212505435
