24
Energy = -73.2697812 eV
Al 10.84544563829855 7.326948501165867 6.256680043719974
Al 8.705041964548077 7.213644923575557 7.653697912147848
Al 6.947792944522825 9.133851652201399 7.635608069218048
Al 9.898802955500166 9.730096020959275 7.658020675060753
Al 10.920592782172804 7.519371183240751 9.285644637773048
Al 12.5398243292587 8.875683338744825 7.330031446449182
Al 6.060740729972991 9.561699452364751 10.141724563097137
Al 8.545735797882 8.712722698342711 9.897578262399147
Al 7.9141960176842865 11.3085577809852 8.838258996136524
Al 9.95011508165614 7.563559596185737 11.866610207342775
Al 7.404385962955114 8.429660574516086 12.267190930861867
Al 12.529160814115384 6.909703614233297 11.48084836900392
Al 12.251591764546129 11.274228308314381 8.200279939304677
Al 7.401017418593727 11.312458764105113 11.50649428317429
Al 10.45082911055379 10.64889296770564 10.17051794577338
Al 9.95982757722828 12.652319767856792 7.941448693913446
Al 13.018931370831814 9.078306500910877 9.945832111883423
Al 11.910767799166345 9.476478715330122 12.344848847572079
Al 9.213540582063809 13.122655626677128 10.578973093102961
Al 9.358295722365254 10.135706083513119 12.844472944097058
Al 12.985099625984295 11.539533901096922 10.858553087609781
Al 11.065290571746065 12.150374843725729 12.47879323912484
Al 11.709968870911661 13.623773685714344 9.758396952532802
Al 8.62850670903135 12.915273640124221 13.274996890290595
