25
Energy = -75.04244264 eV
Al 11.239423009448595 7.571421419219992 12.984791056456917
Al 14.072461861109575 9.848914612311317 9.810204962104152
Al 7.224487753202062 13.465665786544664 13.180177738128847
Al 12.405766390208797 12.102506768665185 13.618199236584712
Al 13.097944150600295 12.34134430850402 8.078642323797482
Al 11.496048045579114 13.860929316480275 11.783995903824858
Al 10.530898213666754 12.75699110990507 9.144532749984387
Al 10.316024906000537 10.93123382180922 11.125257030493485
Al 7.878879555413202 10.997524612157921 12.422344472399523
Al 10.455455827362053 10.031250994414526 13.722845368261869
Al 10.804528836962874 8.355066706820967 10.291742726357953
Al 13.794083543957901 9.978400058520323 7.197622974851682
Al 12.623736566347514 7.963902765284823 8.376505185654896
Al 8.86218106298702 8.653476105039031 11.99652943079555
Al 11.333965248496792 10.318077538832808 8.588062020479637
Al 8.645939221590387 13.070341516858646 10.899126190914359
Al 12.59999536280775 14.53301771042082 9.467373549915894
Al 11.474398904044891 14.574817615654863 14.44985715710708
Al 13.784902271970754 7.3840515386536225 13.471742539954674
Al 10.042072416497883 15.319750731807515 9.990580850946708
Al 12.875604737367695 11.959000155265814 10.767081710584366
Al 9.739205401831283 12.572503720942697 13.696721816168198
Al 9.301816928823845 15.088694366090392 12.637941909296023
Al 12.800016578830679 9.734251825968776 12.235741538547462
Al 13.405603133283027 7.392304822218423 10.867819484780997
