22
Energy = -66.40137151 eV
Al 10.543769905288206 9.753752575831609 13.238024679533034
Al 7.468583753363401 12.931965038977063 11.63041647638417
Al 12.162965061683202 10.58315561494124 11.1899956716161
Al 7.789777987787145 10.255463759846501 12.190782997447892
Al 11.693712649666711 12.765912887604344 9.594271466035979
Al 8.498803037052697 7.809625743992577 12.68628153097604
Al 8.753558150570058 12.728937797640816 9.206062416971077
Al 11.920938090529761 7.6993241246026125 12.143043841591036
Al 6.551565860688728 11.153495371115065 9.871239366038147
Al 9.882135271882264 11.796805758736596 11.470360891665475
Al 9.86323227581217 8.897702747296716 10.75804851508299
Al 10.257506093371658 12.374098855177541 7.121387581450354
Al 12.939871901686205 8.588193351155589 9.761326141967494
Al 10.462601111275456 10.459335716262785 8.863040874804772
Al 7.179497327093979 8.56520812128332 9.981150020252265
Al 8.583507362893002 6.357235129429774 10.377805208977367
Al 11.01694000148036 6.736347301657808 9.571557630219784
Al 13.118316432532591 10.883160952416393 8.286425402142076
Al 7.91189548816726 10.469263293186932 7.691439620377921
Al 11.691552167527595 8.515798667754757 7.399008182921444
Al 9.090537798635486 8.123486076334606 8.184377368464775
Al 9.920396371244516 9.86771766513167 6.085117995816391
