22
Energy = -66.51340572 eV
Al 11.415806504938633 8.007123784643337 6.685405230461271
Al 11.855428312238539 11.111237972559882 7.20555607694785
Al 13.262476384000356 9.522251941872655 8.780664789662495
Al 9.399625533430116 10.437237424577686 6.501692937105064
Al 12.216197887876005 7.256113843535407 9.652393789903778
Al 8.359850522432941 8.167205314366562 7.37178374601625
Al 9.759233524002068 6.576869078414494 8.95526190261886
Al 10.443094920301755 9.32611657334288 8.889964119639995
Al 12.063555414122568 11.7413599934588 9.854458210991801
Al 12.29482284798485 9.420268841193964 11.330135069558798
Al 9.73334016867086 12.283255693745069 8.485084622139508
Al 10.14284380890253 13.342624421851955 10.972407424686441
Al 11.570901596692302 11.767220776539947 12.541669811329962
Al 10.189122605974015 7.642346908914062 11.442116387444766
Al 9.482793801165036 10.592966892838815 11.023678900622413
Al 7.631725554245788 10.496099829823397 8.589688352932049
Al 7.8591884582847005 8.179988568341527 10.06671904538346
Al 7.689371408684551 12.65432690592217 10.263298723517456
Al 8.480386271608833 11.88570057797091 13.217352531274578
Al 10.531870795405169 9.503315223737719 13.420167382798734
Al 8.07664718594693 8.81573022163573 12.722770527654637
Al 6.658784547105848 10.387707264727709 11.144798471324231
