21
Energy = -62.99701418 eV
Al 11.486893636523913 6.8364026309837005 10.537481406055825
Al 9.895240990151954 6.264109854532531 8.37772868598526
Al 12.152335745700455 7.512019840822687 7.820901976696901
Al 7.3038231258235 6.873043317275196 8.12656045874576
Al 10.382926147598363 8.981291048685375 11.762617013221243
Al 12.770423466319944 9.208254907763653 10.152460410979687
Al 11.715441027340466 9.856016767787704 6.626832446093016
Al 8.62477762706152 7.523116617198173 10.459562967957515
Al 9.314572782119944 8.432042430945131 6.685333843230846
Al 10.351770435551947 9.077147451029207 9.061598142548778
Al 11.988806493048376 11.452939443516719 8.721655221425644
Al 8.93681038863017 10.895893910430082 10.430985216414912
Al 7.595718660825524 9.554337140531091 8.3936311917641
Al 5.992673893335362 8.146578644407557 10.15601413589406
Al 9.485731043543552 11.162051603542775 7.521913540054781
Al 11.43697475142895 11.441394170787662 11.426175761306315
Al 7.646823814114281 9.337497779514177 12.229164185191996
Al 10.053575196493927 13.176473202274456 9.588836498246835
Al 6.249844012937382 10.82023556928438 10.338026188725697
Al 7.543988858798717 12.521347356408867 8.716731080708293
Al 9.385289138328025 11.198857154550693 13.17461960119951
