24
Energy = -73.13989697 eV
Al 14.147121299250937 14.715557916619328 8.968500486987327
Al 14.079221451099192 10.492891805015272 12.173792909992342
Al 12.703588649060157 12.550594379924275 8.375810574258285
Al 9.53862307575439 9.293117865338274 10.683451586515043
Al 10.698757286691741 9.046795992571871 15.081354990667398
Al 9.675483450547732 8.152832570359116 8.304863734861309
Al 13.459194886085372 13.097357175453103 12.68805416207023
Al 13.403249442275802 8.92387369381313 14.257894745403787
Al 11.573201372268272 8.78932742582905 12.32820579135848
Al 9.527557531354962 10.521073103203449 12.884867967980428
Al 8.17427125677884 13.077720297061305 13.115635939962319
Al 14.61138498061142 12.550554950728754 10.406102237429488
Al 10.853688436483987 13.244727279959081 12.841583244740653
Al 11.139115252173976 10.428955991871101 8.415388107188829
Al 13.5945790035527 10.178412035160472 9.473499692364587
Al 12.080562539070229 14.290823320871855 10.623186449220297
Al 11.667474099432932 11.357999789408284 11.038137405783711
Al 9.765800793412513 11.98852918469969 15.025442945989306
Al 12.084250615056172 11.183959804302358 13.916422465628267
Al 9.340389469569448 14.5361442665031 11.08204231087829
Al 11.889057800579293 8.153904117849747 9.777434528211066
Al 8.452901509092344 10.517269625048447 8.551091174239136
Al 10.117410019603469 12.770423308574275 9.190546733066286
Al 8.245424176393527 11.756795136114214 10.848489777055942
