29
Energy = -89.05292297 eV
Al 8.37091761678811 13.230878111306904 12.73079845305663
Al 6.61957228606939 10.601294188977805 12.689642496661564
Al 6.555312013748321 12.572447170239917 10.831213009240628
Al 9.365533113551303 10.670312634447454 13.633063602230798
Al 11.03410960836101 12.458712638854259 12.216313154218918
Al 9.280536504912597 13.451714471160875 10.061587737074971
Al 8.36942233560798 8.456024006238446 12.179189716261224
Al 6.7987831050425385 9.737124378319841 10.005371369155212
Al 8.781281101544915 11.080533578300944 11.119266741217276
Al 11.658352157529674 12.030938481822972 9.565888714199026
Al 12.245489542098069 10.567992961834221 13.886149434253111
Al 7.234438852146772 12.161133155453916 8.232561696213159
Al 10.896692522905175 9.670317139939552 11.676489182843081
Al 10.57353992357802 8.048465661259927 13.861222710105759
Al 13.048012629132975 8.233465847746205 12.760308677165591
Al 7.400928645252384 9.290291756145582 7.4513416406154
Al 9.398876287280103 10.719223560959271 8.664220570168231
Al 9.956594510688584 13.13844463494822 7.506411261141078
Al 11.581552389541933 9.258644338733982 9.255891896011953
Al 10.961505371592533 7.039177901320233 11.180186722596513
Al 9.05037390089603 8.121707220919745 9.535243435867914
Al 8.623795176930255 11.272245485384639 6.064811086053132
Al 13.353748998833318 10.64485911848638 11.218270229417938
Al 13.642746546225894 7.870651196112338 10.084981089004515
Al 14.001861704432226 10.481589651228761 8.595165117925958
Al 10.06422707789428 8.588442210284713 7.066604615447437
Al 11.627694038295864 10.943235979066989 7.089773634376028
Al 11.38731982316592 6.56334407217427 8.554896352818886
Al 13.215639503965857 8.184026238762193 7.366334065062662
