21
Energy = -62.55833302 eV
Al 11.370116427007599 11.185862714124482 7.51284424219612
Al 10.965259981267774 8.492671726266993 7.815405079054746
Al 8.878301964223617 10.254170932118146 7.762791997441218
Al 9.70705600424329 12.720374518522721 8.934316877479574
Al 13.03950127997968 9.875560760855596 9.092244736642813
Al 8.43616739315813 7.674002373518561 8.717318400158684
Al 12.312083675223649 12.507222928684822 9.722059534854246
Al 10.214342546351164 10.302649881555553 10.190096270873404
Al 7.201532273617234 9.871761782761528 9.92074876048001
Al 7.127198985795967 12.15440663618217 8.475399109607615
Al 8.174141125255405 7.803043825632291 11.42191927452145
Al 12.89151629789643 7.202781371894879 9.17472977732943
Al 10.646318664506593 7.425853516132379 10.527016457145594
Al 7.991885979518398 12.219527607219932 11.035653996320601
Al 10.405535231262823 13.542961501504049 11.504676142844941
Al 11.936832820584451 11.272082144171168 12.353170556982946
Al 7.5222448928165315 10.015162600678773 12.705326595973194
Al 14.236597182352202 11.214431458245597 11.078735111952978
Al 10.219994552671764 9.12955224159472 12.661900878536432
Al 12.652924877358195 8.850411943926455 11.529334298571923
Al 9.47778965204395 11.69284934154359 13.27165370816752
