22
Energy = -66.60665096 eV
Al 11.611631691007835 9.61914706636281 13.398701606455061
Al 12.613212922696134 11.217964457768213 11.183914752989391
Al 10.041706425605481 7.994370067098228 11.952978980305446
Al 11.279800461957137 7.234710988545583 9.407300744725509
Al 8.934955950248073 9.845515696271717 13.753496194418066
Al 12.613309728241985 8.434763511964967 11.289803796677074
Al 10.134383683962112 11.770847813209045 12.222876263179202
Al 13.241005040830915 9.58782981532909 8.948398081955583
Al 11.240068747881962 13.621641558483656 10.726041317813586
Al 7.324901743358181 8.210324346708205 12.28833026758565
Al 8.610500464521767 7.6796283970958985 9.878328977782836
Al 11.984320640569312 11.969707057131265 8.713898567877331
Al 9.678452514510042 7.479491931440024 7.336279994748057
Al 8.052807820763846 10.490319860457628 11.090123985660348
Al 10.59030204262571 9.873560222390882 9.988527870760903
Al 7.096211514481704 7.907361939614219 7.699502315851575
Al 9.115946708313981 12.34147246865806 9.68276764168281
Al 10.378154159119562 14.24691405093208 8.332942099747395
Al 11.22678941074189 9.67005360078775 7.261032391809256
Al 6.211578089961193 9.030209360389472 9.926242641616952
Al 9.897935592266608 11.99385172053925 6.99367642515041
Al 8.459177780002866 10.117467202490676 8.261988214876132
