26
Energy = -78.45473861 eV
Al 12.823333835841268 11.576984054152334 10.06632387029702
Al 14.157121409105702 9.368707924975505 10.419734999083941
Al 12.818529897943707 10.089348452033006 12.55687400582824
Al 9.86306726536272 12.236901505144425 10.818160975531299
Al 13.473158960442602 10.172886568440815 7.783838666820377
Al 12.0206299906353 12.608042523235598 12.44155210807104
Al 11.27538799421517 11.591619543895295 7.835509173723761
Al 11.643911038053904 13.947768094888598 9.64748601971563
Al 11.132312905318008 9.200835500726349 10.607594852680716
Al 10.644432548018116 14.849273799982099 12.038176901920977
Al 12.923515676051773 7.2951717129355504 11.688672081724166
Al 13.228692285170347 7.6720162693524365 8.687608955443391
Al 9.380176767786054 12.97456146305911 13.518944105871649
Al 11.044909677277658 6.344702863008323 9.08393891093583
Al 8.81243397466203 14.903200140342461 10.043370418925473
Al 7.385216132369878 13.731063205399034 12.018344021746886
Al 10.191332055627166 10.530841301703669 13.286275531080623
Al 10.915766503867388 8.927518221478474 7.851724732733343
Al 9.273887148301593 13.180095703413864 8.182836190049755
Al 10.253131588006326 6.450560801450066 11.635959759953197
Al 7.72213525334873 10.97699644335435 11.972284220217926
Al 11.089947396980692 8.141591630790062 13.509506492909242
Al 8.689107160775897 8.538471128294992 12.033783447575146
Al 7.25818523442142 12.356244907219752 9.708209395529005
Al 8.926634283476277 10.391858413737431 9.034584569349182
Al 8.937494788473762 7.8318237567594435 9.416618583911662
