29
Energy = -88.87223377 eV
Al 13.101186017604844 11.270563035218544 7.322652764055443
Al 10.913594421981374 11.034772219605422 5.88464211480303
Al 10.707800471778674 13.317392313604465 7.876183137673426
Al 14.294325540642765 11.21643121134877 11.378524413655454
Al 12.107550960051329 8.691385949423209 7.497342871768458
Al 12.815369548096049 12.501296248485426 9.61474834603649
Al 12.643717964334376 13.698975285973969 12.182587590320184
Al 12.265367661951624 9.585633250908106 10.179985082844876
Al 14.106896391133725 11.671292015142708 13.962753440776147
Al 10.510758737072324 10.757319000824776 8.556144710114168
Al 13.361737640407508 8.899987082467844 12.533239437574245
Al 9.503931352362367 8.78916637247869 6.672623076289904
Al 8.54131069169932 11.641081047102604 6.804981135821201
Al 11.702164200293478 6.940976830309599 11.190235881611526
Al 7.826975460550249 9.668204541036356 8.560869098475607
Al 12.214457082081019 9.84462267570576 14.819680458675286
Al 11.817960327258325 12.697062901505195 14.84398565846346
Al 9.49311117966345 10.256339011978223 10.986213341623282
Al 10.074751398033893 8.135458859837382 9.244052457711874
Al 10.452771867131636 13.005322100496416 10.604762883424602
Al 11.699326825979162 11.216218927465585 12.38932652325937
Al 10.690085131338115 8.752459691019173 12.962311706492523
Al 10.015129684893845 13.476792074312169 13.174286361757812
Al 8.268577682345915 12.371819864483793 9.301910816167437
Al 8.895988046192809 7.5421316654806 11.540794513782775
Al 9.742892669688462 10.948264068383969 14.321540137071397
Al 6.661936885200998 10.379697941614216 10.807688318448223
Al 7.87106029389538 9.574032417317762 13.100442632278936
Al 7.967608626627191 12.396929451182883 11.958069055823447
