26
Energy = -79.49199894 eV
Al 9.446490051722192 7.027924429911773 7.924318683326363
Al 7.111335590908849 9.120468153090291 8.235623154075478
Al 10.680469241446524 7.417325996864583 10.481165306468755
Al 8.0081946997566 7.653147185244668 10.206173286241887
Al 9.001312904939816 9.259161534394693 6.2955818112828865
Al 12.093862683086583 7.9524571391773575 8.097829755756996
Al 9.044548023997434 8.530418166019881 12.532760340820634
Al 8.010568545821478 10.358173644613784 10.706925081281831
Al 9.848142333295561 9.508756344464441 8.922254808767718
Al 11.668260504947606 7.913886301544881 12.935104355176902
Al 13.136914584906958 8.42136098632164 10.555768889662597
Al 7.9048621006222985 11.783425362099191 8.47542733034769
Al 10.348163880559733 11.568272591410425 7.144034003746629
Al 10.847610778390502 10.269480976973972 14.15115537301203
Al 13.525996255616485 9.975454551006798 12.566651851441211
Al 10.972530062435473 10.067689410957167 11.415852667852885
Al 12.399763072983331 10.55424873375671 8.854042277101708
Al 8.431778658744598 11.090511933790445 13.236216982589848
Al 8.170088668410681 13.116665659749511 11.071759716839052
Al 10.199354920115146 11.985292544146988 9.823901038160592
Al 12.822618915609882 12.118757842063891 13.876467914169993
Al 12.797307601089576 12.2044181319162 10.908656707343692
Al 10.49695030106651 12.601232693735902 12.554209659790638
Al 12.093271734095277 13.233254371832063 8.396620132908362
Al 10.79642816540692 14.419562304205245 10.568818224552823
Al 12.615005312288893 14.327481452654247 12.536268261841913
