25
Energy = -75.76051227 eV
Al 10.531140348492158 10.704673589278041 7.331004214224658
Al 8.23241941783838 11.247214437451904 8.918709475575032
Al 13.25464922560541 10.501888170455963 8.029533641714197
Al 11.429086395040626 10.67663769975831 9.86174523108049
Al 15.572290908271093 10.63169505051062 9.502600068038081
Al 12.145692084219581 13.014976304179864 8.43029646874645
Al 13.635328472876783 9.278269321189814 10.826506955439395
Al 9.522903398634002 8.843468247385188 9.28802263670724
Al 14.832769835675157 12.798573015918398 8.269886624759557
Al 6.982278830435571 9.185775937815137 9.998682309616642
Al 9.655392215695558 13.404833153856275 8.756741779697723
Al 11.995771425631846 8.229817025905989 8.596518618843424
Al 8.423269738394936 13.444328982399771 11.172582667310033
Al 11.120511918896277 13.02669306159315 11.123388350953999
Al 6.787285389429608 11.434395137318168 11.502451234396093
Al 13.600098289185166 12.189079330777954 10.64751707344201
Al 9.38951824466341 10.678944642234887 11.36350007086157
Al 13.011471344403917 8.606007908035206 13.370365818496174
Al 5.821206474614165 8.950616452114144 12.51459127169898
Al 11.215553033303634 8.179458192218275 11.334624086433827
Al 8.576487569798909 8.155315855480065 11.90340248496958
Al 12.18458539169886 11.051180232050152 12.542994478799201
Al 8.005037028459697 10.243762973975837 13.657067853555212
Al 9.73136795188153 12.345855382091818 13.462954105303332
Al 10.482535426811246 9.315190255963115 13.732962839295324
