28
Energy = -85.58283651 eV
Al 11.4730169625619 13.842193286354641 15.37293932241729
Al 12.330515464089729 11.282625305479687 8.422095087824834
Al 8.728469811215495 14.747321873388037 11.175089542068731
Al 10.106983087985201 12.84068685562458 7.584964111937177
Al 10.24881574077222 12.66550551729559 10.351646355770864
Al 15.364762222579552 10.430581415549279 14.539143393176916
Al 16.306984211951445 10.209265826652688 12.017729129548352
Al 10.020150849079197 11.444385834558949 15.000910822730429
Al 15.155028682736303 12.72012641468411 12.855172610911755
Al 13.298741088697136 12.763092355116605 10.838140304775978
Al 13.543925030302383 12.368566971479629 14.879905314893794
Al 14.571638813291704 12.663867462057272 8.391376516673963
Al 11.566292392453327 12.352136833275177 12.848587980642664
Al 14.292838708412143 10.345377712416777 10.00955795491182
Al 10.832420235079828 9.620863556990741 13.204096641375708
Al 8.78083931692206 12.448582399040738 12.714356867987517
Al 9.021223051248976 10.164342236322753 11.230895599412117
Al 11.576695051390939 14.93261041368904 11.102376120321694
Al 11.699087248477376 10.287477394523172 10.775166952819097
Al 8.115048667381322 9.985591925106162 13.74974985520029
Al 13.522453549364304 10.40334804570152 12.631775059031472
Al 11.804208507082798 11.748679884281733 16.997592850029
Al 10.098150696629054 14.754023703698074 13.420131630083196
Al 12.591218220132557 9.873171424619118 15.152769132026707
Al 12.204679057343533 14.092327240492635 8.718194847456411
Al 13.194180156475397 14.544805861145392 13.214244328812105
Al 9.798330369663866 10.517705311415515 8.786569383038696
Al 16.17532566173076 12.372759794090387 10.436845139172094
