23
Energy = -69.45490456 eV
Al 7.176847440893399 10.430977139258077 10.142399475835912
Al 6.491041950566193 9.372121529753855 12.656545600516598
Al 7.866357444132441 11.777855778576384 12.563450435316232
Al 7.590152736715938 7.650358384310704 10.721135015470493
Al 9.466732387243798 12.093926230566826 10.455640167644892
Al 8.802631749010065 11.377635311181523 7.780840020424604
Al 9.247319319730806 8.81662813207027 8.988517430457637
Al 8.74095966492605 9.99734107872431 14.45636322090563
Al 9.19035444991272 9.613281565833173 11.6522939666381
Al 10.647806362402516 11.414191699047349 12.932259505365316
Al 8.521467113109011 7.4169520706691054 13.267526807260525
Al 11.197139282171221 10.784392923204036 8.737776446360314
Al 10.403815484463514 9.291976593806664 6.634227061354435
Al 10.673709211209149 13.417011403795422 8.482338094633668
Al 10.988390554243379 11.996718548903198 6.122254120944553
Al 10.965513738320073 8.63764161330443 13.433796744238146
Al 12.278598922377705 12.366999615711743 10.562972731654645
Al 13.017342855081987 10.041838113715476 6.735247577600568
Al 10.332253250036665 7.286234133590505 11.07793573724719
Al 11.9798016986182 8.248269398418929 8.68444691592845
Al 11.93086084877032 9.599374634270442 11.149451823962398
Al 13.238523253169381 12.623011882808196 7.921370851326374
Al 13.774165636162355 10.276146120712434 9.354538484232695
