23
Energy = -69.76168244 eV
Al 7.123762020221565 11.912080085006705 9.930420034501
Al 6.465198660961114 10.828655197603897 7.490207484254872
Al 7.201944974090269 10.129853623042605 11.91804835431201
Al 7.707416560424758 9.291801794697726 9.427954839992864
Al 9.410364575482987 13.267662937118258 9.77034371621537
Al 9.287984586506854 9.71317056522016 13.389351120061477
Al 8.997115410810068 11.391320137282642 7.938870625822791
Al 8.747192226167535 7.85488163897527 11.45504575998712
Al 8.90568194750714 12.324169096181954 12.36568623293602
Al 8.365211006736128 8.941305725321772 6.875492592615518
Al 9.559192400351986 7.379617210904744 8.929189677626857
Al 9.881769893993466 10.433700443151142 10.599556889007916
Al 10.641533631851178 6.003317650473394 10.959147913082802
Al 11.520504015757417 10.95356041097293 13.1230693212775
Al 10.890667289598158 9.411350121855921 7.715673294951615
Al 11.548903265395452 12.86268930715745 11.221948394240254
Al 11.29666739606721 8.2959407301086 12.179170674326254
Al 11.458055358979314 11.82451349255731 8.73201724739768
Al 12.169660568258701 7.80924878043041 9.639264236728408
Al 12.642129395357191 10.16486161805851 10.830139084901418
Al 13.901714897993237 12.085829834245512 12.486434595176847
Al 13.453220623256376 9.842033260601662 8.307181671687847
Al 13.84484255558703 12.2991696003857 9.736519500249983
