28
Energy = -85.7269451 eV
Al 12.76948956224924 7.700633206130744 9.077898868222977
Al 10.043700731769123 8.198532552319605 8.991160987794535
Al 8.490832201303641 7.314251796711715 11.104486649893145
Al 12.208162470983856 13.742617025719104 13.06929731076764
Al 14.833615362319822 12.549549597747689 9.852674307314354
Al 10.206006633295239 13.819795108107247 11.531589090089783
Al 14.836065424840307 13.456390044445008 12.570273595317019
Al 13.569532451638631 11.27307755126656 11.92370656548803
Al 9.007312503539268 10.563298707388295 8.118513292288801
Al 6.725477795510486 9.270107777311221 11.761918189041626
Al 11.539589524919984 11.853373049952376 10.0188414045149
Al 8.343435852047902 10.160771517641171 13.703573583875626
Al 10.745492609727343 12.375420840581622 7.376548967659497
Al 11.106628630822582 6.829293654910281 11.04393083397629
Al 11.968912519443236 9.357178443444354 11.093261449111086
Al 8.151609792833364 12.238322651325467 12.117132434446104
Al 11.054614666712279 14.432813809049138 8.959837460318976
Al 13.064421846034906 14.338379028711092 10.614787748860968
Al 10.319507024279446 8.525771024893734 13.092124765492276
Al 11.726118540830626 9.96944119349972 7.950647830066185
Al 7.401384353572748 8.720012866911267 9.03151577858357
Al 6.8824977757284 11.226732838654158 9.87557059396334
Al 12.688382436870675 9.437204971060488 13.863930099926485
Al 10.846926989624377 11.331286222399873 12.879893302274088
Al 13.239460346740728 11.929019943402796 14.505744467368073
Al 9.275488576127211 10.082904544814985 10.885682218067721
Al 13.95849968868122 10.141184408493073 9.479240135925755
Al 8.873181110146334 12.885349676706634 9.402109597983555
