29
Energy = -89.33790048 eV
Al 13.253112607393577 13.311559984798881 13.06788185405516
Al 12.55863316192252 15.233679593681307 11.305805835642841
Al 11.643049077342653 12.207207943242608 14.858656752389225
Al 14.058020597792222 11.821501353992145 11.032311112887365
Al 10.563713007590609 14.110509529264094 13.262777874836226
Al 13.33466885545678 13.550729484338282 9.121722483938493
Al 11.946211080367725 10.76560682930792 12.393823116683645
Al 9.874587772688086 15.25468752249403 10.896291233132512
Al 10.963604666025974 9.619268893966131 14.689917539396216
Al 11.360425544283151 12.916538022465465 10.863449092130175
Al 13.81330084438558 9.154506732810495 10.882290037330634
Al 9.457986860552516 11.51428936305172 13.394816529208237
Al 13.065512603999071 10.805341170646933 8.681438090647305
Al 11.982568664615107 8.058782656962242 12.740661391639271
Al 12.702151982863086 8.33013860582773 8.067820392477406
Al 7.273587171072996 10.68240577572485 11.704106506670573
Al 11.2462634105274 9.043740216215053 10.28781853493371
Al 11.065461122532284 12.475613049789834 8.127469223135762
Al 12.57771827116881 6.622357280638762 10.240202534621716
Al 8.358497747202636 13.282047518648465 11.830634478362018
Al 9.68419826626868 11.033466510641638 10.55359011597468
Al 10.074896575830103 6.656136804028212 11.24909109961249
Al 8.806858260985372 13.198833520162905 9.189643611593642
Al 10.290854269893135 9.968183197741297 7.920506067847622
Al 9.357673255885999 9.024365327573404 12.54420762233667
Al 10.27891186650714 7.2214886907920075 8.450326709045541
Al 8.428626705227554 8.52148058065715 10.077908938974085
Al 7.560586633451655 10.802012255014334 8.822653766489072
Al 8.088155215039901 8.483357684395198 7.412013552879562
