27
Energy = -82.14120995 eV
Al 11.811320092341306 14.594416259829593 9.195646199727065
Al 9.772143810474919 14.244159547182495 10.987396732246161
Al 12.389173077904813 13.454784691384331 11.696674859857515
Al 10.37550170635376 12.600369605507801 13.230347738537793
Al 11.784781021962118 11.868219787796003 9.70385788363636
Al 9.398065868925102 13.19521510802384 8.536767998348894
Al 7.908178632614892 13.556318727305161 12.795520943900907
Al 11.585695152863071 12.642791393164407 7.149184263635128
Al 12.547643144939892 10.259207593858658 7.706440517953302
Al 13.671755775230157 10.059287505701546 10.181109467882685
Al 11.853372269304081 10.569226773134497 12.197872778711464
Al 7.326659898093745 13.11970455212796 10.176953852683965
Al 9.433524146175563 11.344097954018562 10.920143401814466
Al 13.053761424524073 8.065221566140748 11.684765748032914
Al 9.826835089268437 10.615394801311261 8.13108893264147
Al 9.275627243659175 10.222614904134694 13.509092609805661
Al 7.011916354942103 11.050559846699565 12.05600171843167
Al 7.3599753725010935 10.480853315289846 9.390127854015308
Al 10.961203555900607 8.947661956844076 10.072711452922261
Al 10.916437999677907 8.247624483345447 7.278110728246567
Al 8.014319029609776 8.782254493435737 11.479137231862632
Al 10.547401074380197 8.022252949864752 12.715840130053445
Al 13.180496415507745 7.519907783747935 8.847544140998288
Al 11.699840700721207 5.7553719928685325 11.50196981912601
Al 8.667524190026295 8.19734072788973 8.820621699650177
Al 9.02916903250048 6.357967664616289 11.115443764458146
Al 10.670612823773261 6.300448284889731 8.999683061139228
