28
Energy = -86.31644746 eV
Al 7.162810128157318 11.267287856352189 11.667853365636008
Al 8.4658679183518 8.910340435053033 11.65813845708525
Al 9.914338691162586 8.821052808343882 13.85161681970416
Al 7.1505886487787 13.683837510823555 10.095001601556351
Al 10.124820353387264 6.629941611015104 11.630829772033088
Al 7.004174999767352 9.309052839903849 9.39009135505101
Al 12.090261486568748 10.582863573801793 13.930930377315297
Al 11.457959550773786 13.197785922650292 12.927121903516056
Al 8.731193501801375 7.3588023441392 9.489362585684573
Al 9.97275790224504 11.092159716293784 12.085192464906575
Al 9.100967587461577 13.579685897548188 11.785548625332426
Al 6.271995448158986 11.744499969454575 8.606246866344575
Al 12.187268691012084 7.264232634693419 13.435799391393807
Al 11.418895768704106 8.969950406879969 11.559954626990843
Al 8.804772616449641 11.425329531798333 9.53375305915967
Al 13.122844070751938 6.931656433248588 10.871148935946941
Al 8.142918489259275 11.454179557635797 6.679427888758049
Al 11.167281573686525 10.415556158267947 9.515578643711509
Al 13.988257153520967 9.205340781642718 12.444315829942443
Al 11.330835033321303 7.7453878581072395 8.991966738078752
Al 9.438439470941134 9.296813934077681 7.703172498013731
Al 12.859378528700784 11.516284679035177 11.325239180727829
Al 11.132102309377572 13.108831914044687 9.952358504398372
Al 8.971184186477945 13.766212989125199 8.089722326325052
Al 13.651663151860491 9.345473615242875 9.725137123724238
Al 10.777667943638974 11.908842939376335 7.37406877052698
Al 12.272624552648002 9.592596516381919 7.152958574617233
Al 13.32816673833699 11.918036060364793 8.569500208822332
