20
Energy = -59.78470441 eV
Al 12.5499269994019 10.739402691435599 11.71637262609436
Al 10.901799010529423 8.884116912177642 13.163838843341132
Al 10.2653468723153 11.397936456684265 12.900648553430225
Al 12.23233111860232 8.241543052844568 11.003048237249168
Al 9.619903333165164 7.299000445600377 11.491872002438619
Al 11.489286246535418 11.668838470102097 9.105108692492772
Al 7.7373310059995575 11.275024559228843 12.30487560577369
Al 9.572370451722543 12.985934372199576 10.873631983191872
Al 9.852141260125412 10.028091936970043 10.6409384638338
Al 13.689161279828555 10.044532962243062 9.402814740415355
Al 7.557066867030895 11.753781633963234 9.74291401159794
Al 7.126059679129356 9.174708580817832 10.836121280848726
Al 9.402515397829317 13.250363056601525 8.224745601210925
Al 13.425994259222287 7.508109410334836 8.760720762953897
Al 11.35496537688726 9.025638562121761 8.366118485475354
Al 11.070654138214572 6.432201156332165 9.407699127383657
Al 8.85512503668303 8.082519087095962 8.925306617247585
Al 9.339853169601886 10.530753876763116 7.82088309424959
Al 7.3387359441715665 12.036445539484141 7.12881035174773
Al 6.68350080042332 9.705125484418582 8.247599166442683
