24
Energy = -72.4472852 eV
Al 11.254089080824398 7.2715356972787015 8.73666475317101
Al 11.325887091753703 7.738651851307144 11.347989011871373
Al 8.809669173453601 7.764685360006771 12.50154678923737
Al 12.62865121000075 9.521345362939082 9.707396797283995
Al 13.3941864504224 9.099412929155209 12.49058046141513
Al 8.82085467004298 7.811244827619981 9.8492843781545
Al 10.752300823460358 9.208061901115308 13.634090746673687
Al 10.201732112020673 9.627337502560108 8.286691597821529
Al 11.896420075586583 11.25439361504368 7.019498528393657
Al 14.120286814857888 11.28605082615311 10.956035222284939
Al 12.586185710729392 8.779040840095012 7.10152784750736
Al 9.92501971031371 10.050537782975846 10.944639434413755
Al 12.802373900168412 13.57979835494836 11.227886689834104
Al 9.101307008209373 12.03305045651244 8.02926277616452
Al 11.429069412385537 11.929926227612974 9.641736009412357
Al 7.952144733204788 9.31215530183658 14.562224380443087
Al 11.854489291090374 11.301512437525185 12.423275979595017
Al 7.314056944825013 9.967490836864018 11.879820726120048
Al 7.584013215661017 10.092960619343707 9.163997079091251
Al 11.239498773551553 13.723075734516692 7.371961914761188
Al 9.161550779299922 11.425768195937568 13.322343761967346
Al 9.863722030998042 14.152843005154386 9.58223287748116
Al 8.299624533685767 12.269771891728569 10.730048649271732
Al 10.327298819718179 13.443780808034276 12.133695953893998
