23
Energy = -70.20888544 eV
Al 9.159991600501648 13.273696897271915 11.80477818017745
Al 11.19442033408819 11.862559949305963 12.937532639065322
Al 10.867041044458821 11.119120185266308 10.35787400297373
Al 13.192985289675345 10.196603812493924 12.150421146338077
Al 6.637963250783919 12.215830179216885 12.044873501017676
Al 10.156930799509686 13.49500425576626 9.27972210875725
Al 11.924440035464645 12.206257557869806 7.667442900992356
Al 13.447392510611854 10.985326034740227 9.560842105361033
Al 8.013722063301614 11.757310328549213 9.825631944965128
Al 10.71349836369997 9.103001682277625 12.539058831293804
Al 8.73515769996555 10.623002900576138 12.354236446966729
Al 12.817719660134069 7.497471517380521 12.586193950349113
Al 9.364954872991854 11.233127946697888 7.787640218256112
Al 12.272469286520739 8.502353852110806 10.20012476077751
Al 11.640064539456002 9.497417261773146 7.991383372664144
Al 10.868349017274715 10.586524865119813 5.704364291852916
Al 9.33509629855893 9.062170654564751 9.867783805264054
Al 6.5644496582103065 9.70371655624569 10.93899262960593
Al 8.240195779245994 7.888816470488465 12.06780846967763
Al 10.53605160404159 6.6652191589078305 11.282827148187314
Al 7.1714091880763 9.572407253778719 8.296883302723797
Al 9.282618007033873 8.65227395071414 6.8569868788064205
Al 10.554672192187406 6.992379824676856 8.588190459720243
