28
Energy = -86.42179254 eV
Al 6.966880677235306 9.355245911938248 14.11399092928884
Al 6.4781150750948475 11.034268637732037 12.003303532166166
Al 9.633606578550454 9.082207689275974 13.804712416089624
Al 8.48899534937592 11.602171331960113 13.713755206793541
Al 7.799856324892091 8.581478128050797 11.671985786657045
Al 7.83758366392185 13.31152565091839 11.432830441055852
Al 12.207374821604692 8.89305643476638 13.334612750501533
Al 10.876961720015489 11.110164734744766 12.454213020502626
Al 10.018421130022059 13.60777177498079 12.944095937841261
Al 6.568519437630369 9.956281481451512 9.59710899244008
Al 10.458428591415627 8.53455578940378 11.278057608312901
Al 8.833741175997657 8.359877706944301 9.12421903122657
Al 8.96585850645589 10.863448084727901 10.492770743061946
Al 12.522533130840499 13.268839038811226 12.050316365066097
Al 13.994784221850052 6.995064261263779 8.670124107658758
Al 8.246679156557365 10.623724647869127 7.705096212936254
Al 11.277799562672394 7.363988794497077 8.844967870689345
Al 13.069694578929989 8.071476525160682 10.887483488398438
Al 11.458951775324802 10.183867121417427 9.408739373288967
Al 10.514748498987064 13.073204389018894 10.34271069077128
Al 13.307287795702843 10.697343198512621 11.577033252085485
Al 8.266656560477188 13.03849269130812 8.860543892895839
Al 14.32395647819642 9.90516859391263 9.115269278749809
Al 10.378325481548837 9.4200377944228 6.930406226803333
Al 10.511945895111 12.245746018361755 7.806567708555259
Al 12.873703592580378 8.756811434584538 7.052493848469897
Al 13.030366996639684 12.500045749241625 9.499360260254022
Al 12.935933903349527 11.411847065702696 7.130941708419811
