26
Energy = -79.70899753 eV
Al 10.689912178346313 6.912505753450595 9.024224483957173
Al 8.85214491496895 6.832497183923443 11.042895893936139
Al 9.0561872515592 8.190458733221488 13.220803665611166
Al 10.988273731347977 8.400989990893375 11.332477823575013
Al 11.256161954918587 9.839394950700955 13.579644368009971
Al 12.7904770664897 8.608694553882971 9.420244031858468
Al 13.239127520839945 10.043648697016263 11.68925886230386
Al 10.473178345908565 12.162387325176287 14.624499154701663
Al 11.476041128232906 8.377529134375667 6.745674111980553
Al 8.75160407610207 8.83694071906536 6.61055832892642
Al 7.943778824781944 8.025554098277846 8.888813830814707
Al 8.170862890464658 9.542721647104957 10.97988633092961
Al 14.7308029434893 10.487269632108891 9.42959270810465
Al 10.221368412886013 9.652248895007125 8.997461137025939
Al 8.559996879093765 10.839644437992316 13.207291378776755
Al 10.515654213680522 11.097623559986204 11.260591574973857
Al 12.431905775227515 10.758861065414454 7.773407145838018
Al 12.716451589406091 12.229175425707888 9.953643670809212
Al 12.388877666218738 12.492299536921932 12.641426679011818
Al 11.2280280123843 14.753012044767846 13.518573469955838
Al 7.800678561554963 10.819638004531999 8.485429449636976
Al 9.920603228471043 11.140750747607326 6.649694372546765
Al 8.11978992049587 12.276821021727256 10.6896984690955
Al 8.9489567691707 13.486260302924535 12.85878148909624
Al 10.21281914270768 12.535137047038457 8.767252364257848
Al 10.756003934130947 13.8976224240534 10.847862137145578
