26
Energy = -78.70307229 eV
Al 10.781349757466609 8.89849840253339 10.781349757466609
Al 9.83992408 13.15030370733515 9.83992408
Al 8.201177436738591 11.478670723261407 8.201177436738591
Al 9.83992408 9.83992408 6.52954445266485
Al 12.673166461779946 10.548817431096872 7.006681698220055
Al 12.673166461779946 12.673166461779946 9.131030728903127
Al 10.548817431096872 12.673166461779946 7.006681698220055
Al 10.548817431096872 7.006681698220055 12.673166461779946
Al 9.83992408 9.83992408 13.15030370733515
Al 8.201177436738591 8.201177436738591 11.478670723261407
Al 9.83992408 6.52954445266485 9.83992408
Al 12.673166461779946 7.006681698220055 10.548817431096872
Al 12.673166461779946 9.131030728903127 12.673166461779946
Al 11.478670723261407 11.478670723261407 11.478670723261407
Al 8.89849840253339 10.781349757466609 10.781349757466609
Al 8.89849840253339 8.89849840253339 8.89849840253339
Al 11.478670723261407 8.201177436738591 8.201177436738591
Al 13.15030370733515 9.83992408 9.83992408
Al 10.781349757466609 10.781349757466609 8.89849840253339
Al 7.006681698220055 9.131030728903127 7.006681698220055
Al 6.52954445266485 9.83992408 9.83992408
Al 9.131030728903127 7.006681698220055 7.006681698220055
Al 7.006681698220055 7.006681698220055 9.131030728903127
Al 9.131030728903127 12.673166461779946 12.673166461779946
Al 7.006681698220055 10.548817431096872 12.673166461779946
Al 7.006681698220055 12.673166461779946 10.548817431096872
