20
Energy = -57.68186192 eV
Al 7.774987974784635 12.7888681895023 12.480528466832304
Al 14.61688817578461 10.570508282098293 8.511571654338013
Al 12.630182730920014 12.301388273481532 9.886909357442002
Al 8.679820398126795 14.862605360697891 10.773359376210893
Al 15.264225401662781 8.31772010529618 12.184125558292713
Al 12.458914803429122 8.28228996030158 11.946838479816991
Al 9.357368401582628 14.765430576280394 13.482368934715533
Al 11.672913028718991 10.844781108770434 12.078261837611123
Al 8.130927725357374 12.273974342587124 9.838027722318172
Al 9.885453171692783 11.752766940353538 13.969380587318986
Al 14.087063790220654 10.47886043608703 11.235284480542893
Al 10.368415102075971 11.09142422637262 9.27982413628306
Al 8.850314608274335 10.501013792843995 11.749213462965383
Al 10.122114781414263 8.526014744100017 10.65466334075827
Al 10.490000524612388 13.040474269132831 11.584283420822167
Al 12.266994267924192 9.345454306469943 9.34273195103011
Al 10.500086302466535 13.765188425957003 8.981963766582204
Al 8.199960537292368 9.578214424659318 9.12830573675193
Al 14.581602341602366 8.124639446908208 9.64382518738849
Al 10.295479352667801 9.022096208709828 13.482245962589232
