28
Energy = -85.24103084 eV
Al 14.110767846324487 7.942206288742028 10.710431536950358
Al 15.293635153526202 10.204210053161903 10.527198027961134
Al 9.574648127651404 6.883378204330661 12.689389290894011
Al 11.83099658508472 7.595541625687339 11.736633783169687
Al 13.048161773926434 9.973677650584333 12.435953569429893
Al 14.233654327596058 10.828082334041582 8.24563791800538
Al 15.724633662563972 12.153427397623105 12.160221593542946
Al 12.345814962554696 10.439264015888797 15.037657006792115
Al 12.167406517251994 9.712526900124388 9.777804240631376
Al 10.402948522750116 9.455183180136853 13.556142714559524
Al 7.756615378351557 8.759255031447035 12.780435081295884
Al 13.407115912824109 12.209332360271556 10.650842081391824
Al 13.464838085463564 12.361106537154297 13.580794202654168
Al 9.67342772709445 9.035889984749758 10.88554417982016
Al 14.53280314092425 14.426758030163429 11.87988660749676
Al 10.831568838433855 11.587851998339126 11.339994406194762
Al 10.744048176076367 12.29309334509064 13.987454299693947
Al 12.032933066033602 12.173398030165261 8.329040508521658
Al 9.67342158234659 10.722589155301785 8.918797939909433
Al 8.4966433275289 11.29192878188532 12.83962717249201
Al 7.2387873397951426 10.40707744265009 10.572137946218625
Al 11.87634476585005 14.114418634114378 12.181329942351283
Al 13.177619596517761 14.726993263660434 9.587303409080839
Al 9.23102450740188 13.829103044679709 12.323987242140797
Al 10.640734567497294 14.115637565239718 9.825755482640858
Al 9.61481305140741 13.030723973079908 7.594395223283117
Al 8.29862495976081 12.83939759683665 9.946176230425486
Al 6.561265527254975 12.873244604642725 11.884725392244933
