21
Energy = -63.11337486 eV
Al 8.036140144579353 9.343630699751317 8.357140866899137
Al 7.777121147031317 9.236826306710991 12.456310237374522
Al 6.32260381754673 8.757785900807729 10.343731706610615
Al 7.130100581771885 11.27959668843891 10.123312407599256
Al 8.48881358384724 7.2373676084396195 10.110817575110318
Al 9.369140819553218 11.65060445647764 8.55511806820236
Al 8.862058879377267 13.422027636997917 10.46843362248558
Al 9.815557017413642 9.94293428040946 6.427207274663777
Al 9.537108690103585 9.834996913611308 10.607143384933925
Al 8.591339510371794 11.854879008360202 12.527160001166918
Al 11.50400917103115 11.983544256850292 7.056433485902864
Al 10.49051735071705 8.301461233415488 8.54045240743967
Al 10.419099923021417 10.12953758967173 13.408149592661863
Al 12.395911396418382 9.327597495178118 7.04818507484496
Al 11.161712336889341 11.93611091589689 11.461785115295452
Al 10.015245639864718 7.653854284537054 12.519871441165941
Al 11.157116281404718 6.570816993216085 10.445731894897637
Al 11.4253995296059 13.430356530514434 9.309629546504246
Al 12.008248947311786 10.667355754642209 9.30038646652455
Al 12.10624983108881 9.143329303368231 11.453759176638343
Al 13.201426267302764 8.110307008956587 9.29416151933085
