28
Energy = -85.08243607 eV
Al 13.779658796540051 8.702217635547312 8.382455216658833
Al 14.592730565394946 8.38338161291719 11.012726895053513
Al 11.983941203133055 8.600476263732677 10.349704064523229
Al 8.909996927289116 9.17962912128872 14.421508349623824
Al 12.762914195035123 7.99203017226034 12.876202808181738
Al 14.913573492478914 10.900417440798883 10.197305944060483
Al 10.019435864084853 7.978054507216966 12.180289084010965
Al 9.316515384774748 8.443083368734992 9.675740445700082
Al 11.036310518612163 10.348984074034679 8.595130109776461
Al 13.441556686657474 11.35673524358783 7.888540109447597
Al 8.74257402957574 9.395647601850182 7.266620257648048
Al 13.278065337082886 10.583311192626848 12.255761886597002
Al 10.39840143627859 10.683185956005412 11.338310074279459
Al 10.939641187976312 7.583969137263457 14.74185448690092
Al 11.609105203840402 11.47979036273291 6.003967398247867
Al 7.944093512329773 9.796838430740168 11.950367274917639
Al 9.403231608072707 12.02981189061379 7.368063039231119
Al 11.322122048523566 10.224059248297966 13.956152214598088
Al 8.123884816325518 10.902234629926562 9.455501585497421
Al 7.438150033965057 13.86710631245339 13.764872418369798
Al 7.498003215628093 12.447925451493965 11.533497438401987
Al 11.648746475257603 12.691684336654609 12.830111320566123
Al 11.716940930531193 13.488984331139722 8.159871174042975
Al 9.089894579758358 11.81528720084767 13.692135587139978
Al 12.434945965660809 12.155195363092263 10.316967240678267
Al 9.72763035143232 12.935470208327926 9.968710451250281
Al 11.575279040563363 14.787892193507103 10.677767438557282
Al 9.480368303014405 14.374308422122551 12.267577395856007
