21
Energy = -63.29603245 eV
Al 12.003895255787116 7.404464119124228 8.420007866636299
Al 10.208984947366044 8.7309401605817 6.653905094745675
Al 12.81671142612264 9.794942117226634 7.168887904247968
Al 9.200824517713892 7.696810704223287 9.093075924922942
Al 13.494367321962377 9.329529494086417 9.898947338976818
Al 10.57081672075345 11.506981193835383 6.895600801875801
Al 8.386191181648792 10.266193476899359 8.131101726832114
Al 10.928338992253014 9.776439238586121 9.002078566953907
Al 6.388967635150474 9.761141458701939 9.89431927140789
Al 12.547094219635431 11.904952805293174 9.016607013926235
Al 11.297814667123603 8.019830879691378 11.039363234365322
Al 7.430132677698256 7.725302121254592 11.150008526545218
Al 9.108232562517886 9.87624129610303 10.876196986084542
Al 11.728326624466904 13.600959579520264 11.014973049546619
Al 9.832549385094424 12.190212632476443 9.42747248225483
Al 9.340350644945726 7.83067484942404 12.907236858904918
Al 11.690154532782495 10.753513569040487 11.3943752023961
Al 7.3511875322921245 12.071041690191198 10.655246603657387
Al 7.32000774340757 10.136204307799858 12.731107999446662
Al 10.02469628242423 10.267823835139163 13.528730939025955
Al 9.450696128206163 12.47614147015377 12.22109760659885
