26
Energy = -79.6976771 eV
Al 11.131812258394895 13.287681405173307 8.739019582319338
Al 9.815312767660402 13.884169956685376 11.111032868684127
Al 13.591143213227621 11.215138280921174 11.983126638964276
Al 12.524765412227081 13.780704653814436 10.99626277081881
Al 13.467208538262328 12.025633333322363 9.353706867619843
Al 9.458012809819133 12.394684736683372 6.732984331057699
Al 15.578087051775427 10.470559174520893 10.139803462893706
Al 8.489734207416912 12.54791130002661 9.287012869370928
Al 12.536359884307547 13.010598931132318 13.565239261895636
Al 11.301021384556774 15.284258749400047 12.820405163349923
Al 9.93429527725669 12.958389520212691 13.594937727819046
Al 13.767732125307655 9.647458241907298 8.28437416385692
Al 11.61335680607052 10.945292421563478 7.520869729660467
Al 11.02170361828826 11.155653817698537 10.59787605643796
Al 9.169550098122443 10.178494237578798 8.340427118947158
Al 13.54447388460125 8.818376268189954 10.8227294339854
Al 11.266221165036855 8.783807484241173 9.288648521813773
Al 8.645660140460175 11.37096649353311 11.975635335306789
Al 6.904011519313881 10.48125051436107 9.971894867300469
Al 8.969378610435905 8.93452370557316 10.69299234233686
Al 11.10818796526393 10.562490648545525 13.312419271957523
Al 13.247980376113695 8.78863487229958 13.465742135928329
Al 11.16360734906769 8.149669852302356 11.894824590793114
Al 6.664888215228069 9.406660479242564 12.3135320816752
Al 8.920714315513417 8.823454873883293 13.45809768315759
Al 11.07417426520842 8.00292930612511 14.645798380985148
