21
Energy = -62.79960476 eV
Al 8.07406867281418 10.4314042758183 13.684045312127033
Al 7.9536863277656655 13.340600861261935 10.035064667438467
Al 9.302702567025054 12.167050731806027 12.134256223770963
Al 7.263488684557475 10.742247462110015 11.04159995038698
Al 10.641386731905392 13.71801018462956 10.315616775658787
Al 7.114767597564906 11.253298893361169 8.360047790838152
Al 10.758681053815096 10.059367225492958 13.396607965372281
Al 9.048667225008204 8.825113156009644 11.785693405283139
Al 11.882122908637418 11.763580231217375 11.714044010587912
Al 9.646259433743506 11.39037961500257 9.339121953818823
Al 8.403914227877745 8.992598915959567 9.299558905159811
Al 8.526475250883543 9.496116326609656 6.693636594261264
Al 11.545162259742861 7.661293913981381 12.237080922720622
Al 11.211335331627005 9.485457546433134 10.201502376884447
Al 12.291912708753914 11.735421208907194 9.093249281621716
Al 10.976140131001042 10.471341115742733 7.090595163986632
Al 9.908782853189786 6.882125477829805 10.088185567806308
Al 8.523682990069908 6.9557047035037325 7.61256703374509
Al 10.930199338854303 7.922397841801745 7.758654156487692
Al 12.71247730927156 7.263268282426967 9.800122634065191
Al 13.195311459743245 9.354447093946908 8.229974371831068
