20
Energy = -58.95274789 eV
Al 7.8463316944641015 11.492060795410051 5.0264479439683685
Al 10.28790964017658 10.605930761572951 5.675047474284421
Al 8.183778466694465 8.906902503368492 6.263622895166088
Al 6.266438480631614 10.744000441843408 7.051378708344272
Al 11.48516356420482 11.422140124624912 7.939754148707949
Al 8.729165341216598 6.7473201469342445 8.070023845143107
Al 8.776439826978768 11.256589523043566 7.767078895332852
Al 10.496947760065673 8.82907296193791 7.660286567839895
Al 7.208599359732552 8.939373534663678 8.77865975404286
Al 11.288698042220616 6.672601468201923 9.190054137094483
Al 9.48323888481102 8.397243560760007 10.116936514826618
Al 6.754714413277412 11.575705386991782 9.560460280616814
Al 11.90130394126486 9.54241541630317 9.888978993097574
Al 7.3877164936063515 6.802892393094876 10.52445496994967
Al 9.612692801836019 11.136778239495033 10.227966727977256
Al 9.989849332621974 6.3702266991080485 11.791868299709577
Al 7.5008094582892415 9.684085312878556 11.388200390023155
Al 12.281682168407903 7.598593347737361 11.602806469233219
Al 10.295898605712857 9.455668048992866 12.37868987482558
Al 8.141231770503984 7.739009379754422 13.015893156533808
