29
Energy = -89.558464 eV
Al 10.912806197062253 9.018992202953527 8.709086021437594
Al 11.99705685827229 8.949355388115483 11.144193385826162
Al 8.601824207070823 8.14463456460092 10.00683703268133
Al 9.770830537425526 10.618861381733337 10.682553444247354
Al 15.027849838990763 12.525177534172744 12.96147275964172
Al 12.406690417953397 12.673322408334975 8.427577486510154
Al 8.219239816152374 8.893722988366493 12.607942892505001
Al 12.747474799195702 8.7992706090264 13.78202078087162
Al 10.571093045890118 7.484730878862484 12.924721550440237
Al 6.964594640866806 10.136024513188385 10.506585086708217
Al 14.194636028864554 10.214309770145388 11.863921637061459
Al 15.124500300342653 14.807146821515905 11.457626372449464
Al 10.393353091129896 12.872446659699522 13.047834674461015
Al 8.340355910702986 14.178153760776484 11.848782213369477
Al 12.667332551552162 11.542378758180398 13.921083182004315
Al 12.749152548408873 14.662230405765486 10.141185610896462
Al 10.43466142974549 10.249217885166903 13.314984745921866
Al 12.822171217490855 14.075529708608881 12.845850419764735
Al 8.487388116613225 6.182253986937671 11.929783409877274
Al 10.68088148164124 15.40669079180666 11.94767827899709
Al 7.998752237022025 11.580494900869644 12.57231841220729
Al 7.943106388099792 12.461710344486843 9.781444017133968
Al 10.334916278877174 13.507450108905008 10.036164948692688
Al 12.120535939799558 11.813069430071126 11.192081475496224
Al 14.573399186361025 12.495069616178235 10.184985813597761
Al 9.949172369144996 11.576934749323096 8.136041824894567
Al 10.76184634742332 6.6228351352678425 10.273331830304107
Al 13.374597934036343 10.23800203298595 9.225010853571638
Al 12.086999337528265 10.52720171761822 6.784118892092899
