20
Energy = -59.56046423 eV
Al 9.086049751090279 10.124771916189665 6.195319455993716
Al 7.549201207359303 8.549548256635152 7.777389744141488
Al 11.765797394311253 9.895463126237923 6.70469692809462
Al 8.618465064155956 7.346784754850477 5.6412830270573435
Al 10.605268087343086 7.715966849739113 7.556793350074099
Al 9.7194904053756 12.507826493523666 7.972335242247752
Al 8.517764385616017 5.8930520821568 8.004388865185572
Al 6.674376281930987 7.000280133329009 9.722688467944966
Al 12.149762335892488 11.501948017807246 8.666287670634567
Al 7.424126266663583 11.223472373316705 8.08391481545115
Al 9.675404585470323 10.017544915704025 8.918556824143815
Al 11.14107148051137 11.683762774300911 11.017141172527511
Al 9.571498059270766 7.514351078252332 9.95273944116187
Al 8.540873619183916 5.225464645004324 10.766902901099154
Al 11.906638819131281 8.926055550211016 9.719848466793536
Al 7.169625187188977 9.55093444577796 10.17406811773572
Al 8.433225406869605 11.917219987528304 10.557763722417715
Al 7.892822950429516 7.613977851795344 12.11965355484906
Al 9.9712106878933 9.440519219622631 11.6777208893326
Al 7.533482677763172 10.297210181467866 12.716661996564977
