25
Energy = -76.38272845 eV
Al 10.77406905737161 8.326673100178603 13.571574030290428
Al 13.481956390477224 10.267235294913077 9.32740962423021
Al 11.49744822540002 10.89258607774822 13.550218396047374
Al 12.908989568844367 12.89655571901385 9.041004792297116
Al 10.52849766849682 12.218170593469052 7.548335359990961
Al 9.997299852920754 8.449830436335423 9.696390256407115
Al 12.233431851012515 9.267628689627204 11.482581366714808
Al 7.9625352894148245 12.698439746722437 7.371494499989
Al 11.372387012076803 13.795620867093644 10.95750341075198
Al 8.641945147161975 7.414855062928892 11.844456997245098
Al 12.563190318549053 7.682141678472398 9.271033952191758
Al 12.149327013225609 13.489772080710875 13.55540521934444
Al 7.456638902602513 9.180095696507495 10.30981660631983
Al 13.162098633007513 11.833531966120564 11.594918937401754
Al 9.629200945816999 12.783853342875968 12.682195940014202
Al 11.316274398723237 6.665888354207821 11.355780854275146
Al 9.030538116839748 12.859705381084582 9.90435006323846
Al 7.3857045394535685 11.84115080314706 11.769357796265624
Al 11.385031187618601 9.47424416396264 7.6206137932795395
Al 10.993420409260908 11.092111202736954 9.978064639187375
Al 8.823203375063068 10.260333515415695 8.25007157225905
Al 13.027294566239625 11.437101635210714 6.802633580594923
Al 9.89055264791764 5.81594913461891 13.581882835296408
Al 6.643232505740756 11.494101111077653 9.272333010528486
Al 9.402793301475883 10.11948527053176 11.917633390550993
