23
Energy = -67.90072964 eV
Al 14.231654450754665 9.445091211789332 13.954865598882243
Al 13.03270365024404 9.77788322074964 8.88923651106959
Al 13.216671416183617 12.146201244429928 10.446980731678062
Al 14.005361735389487 9.633103782855935 11.340712381523648
Al 12.198606903496632 10.342918065701403 6.434881551077436
Al 11.888817435786551 8.669699251750991 12.848663459562431
Al 10.572341780398792 8.959281270332184 8.072054114318135
Al 12.558485929670582 11.378950426609316 12.960328447224848
Al 11.416703618785467 11.994100983704502 8.548556565260325
Al 11.009449809129025 10.303459113630666 10.684454192992673
Al 10.904260116537214 12.946937817152882 11.52775473413443
Al 10.781602684336313 12.756669058039709 14.361007763121245
Al 9.68120513271032 11.281454127405862 6.584278876297798
Al 9.452345491734915 7.7812864846419325 13.145041222467828
Al 8.926048003186667 12.959821907165754 8.468106044168644
Al 8.63386119588347 13.39141140161508 12.98415433268226
Al 10.630004025841915 7.64874027418101 10.50767170371388
Al 9.7055028622824 10.577540815262953 13.107918936786463
Al 8.338717977872538 10.248359751569675 8.702043121248344
Al 8.732530525198333 14.471537353330376 10.633873828652012
Al 8.408590238466074 7.515914692577334 8.928271699125778
Al 8.456121387010569 11.764644146606011 10.86238098470303
Al 8.402867715921605 9.152557835425382 11.117065448586867
