38
Energy = -118.86531034 eV
Al 14.49463057289828 12.923156991579937 13.085483171612157
Al 12.343502547449603 11.757971449177221 14.299549090960967
Al 14.476511822786664 10.236386131868677 13.701986486686089
Al 12.7560121571871 14.944208887957156 13.396928352464533
Al 10.427001714670993 13.440590525756164 14.03988659815711
Al 12.983094967313132 15.3354419822261 10.610144254267157
Al 8.303615287739017 14.940594625430487 13.533867520895194
Al 11.977736181047291 9.008681521944583 14.179551494598016
Al 10.408140052406056 10.645489100699388 12.785913227577486
Al 10.398241020646001 14.883370950395415 11.74816404935983
Al 14.519550608158339 11.332844661357877 10.94940727183599
Al 12.204448857975741 12.76722908907022 11.689858760285626
Al 14.270019202655845 7.616525435247277 14.028397403828837
Al 10.944775134275602 14.387883352773825 9.178361916812365
Al 8.12501645498596 12.278481510436764 12.982016940926716
Al 9.425209352516898 8.176308137780637 13.890804657943148
Al 13.200450819352135 12.843099409876785 9.05360701528325
Al 9.73495739935259 12.208038563529524 10.725396649645964
Al 7.753787472042233 14.137551464130638 11.019231462434128
Al 13.73108539712337 8.61162556656155 11.629240027631754
Al 12.011037635919127 10.451139393545793 10.343478379938512
Al 7.875299204801553 9.824743190994178 12.311936386124819
Al 15.403973601160297 11.620825676845472 8.10367525935425
Al 8.544868476198074 13.41262417528199 8.554793435451018
Al 7.002854716656379 11.629677059697302 10.390338723838246
Al 14.792963434414567 9.30765861504342 9.274527941266053
Al 11.084674893111542 8.157329150134649 11.626262080893097
Al 9.477990201697228 9.602841022002783 9.94832698356264
Al 10.758285414767148 11.77035734486653 8.229655850708518
Al 12.981793108502421 10.429080258260635 7.617134558529177
Al 8.545018543906917 7.342074000064172 11.453761898849118
Al 12.476255213940433 7.992341893369099 9.215633548381346
Al 6.796432951967949 9.059288533055728 9.815015819185538
Al 8.21991347757195 10.86663827376715 7.940703449816817
Al 10.675534408942125 9.173441693532363 7.407948216271909
Al 10.055959254236825 7.021244716466186 9.183073589484762
Al 7.325681486187418 6.3383243131261295 9.231574924419292
Al 8.228815658734826 8.260030037446738 7.559501306017435
