32
Energy = -99.82681248 eV
Al 6.653748390728679 8.527370176869312 12.829935227028002
Al 8.957735543579064 7.493240317201128 11.721929809580384
Al 11.175289913327278 6.568432289146674 10.583954594631825
Al 7.244478600164199 8.956112720437083 10.20765362039951
Al 9.567427456163133 8.33414284056466 9.235678736503552
Al 11.704242152855796 7.3881383663948235 7.955726189034139
Al 13.265404259330412 6.739920785342704 12.246758148728595
Al 11.187116216123906 7.950522058830692 13.411315020360622
Al 7.777196068643142 9.921046447759304 7.757532046877205
Al 9.074183052041038 9.601294896228472 13.379428303957908
Al 7.241270900117286 11.033834706005859 11.846302999032286
Al 10.129402132628115 9.085056345711115 6.689085629177317
Al 11.042931872069591 9.595025087618009 11.279374944797713
Al 13.283963479746056 8.275010361585107 9.993503060764661
Al 9.296470849138895 11.048561270569934 9.891707546369021
Al 11.715462759650965 10.068445114812198 8.721574160132326
Al 7.779589965421556 12.656933145979291 8.166603975252814
Al 9.602717234265175 12.0592697675234 12.576427546487032
Al 13.697597080414582 9.387588176658301 12.507252927941817
Al 7.975822541602176 13.34051632829271 10.820689073536698
Al 10.201724283495997 11.760333103249577 7.300601868330697
Al 11.5594816025809 10.666240451301627 13.792614823009492
Al 11.83935293097991 12.547751208060669 11.239412340169078
Al 13.77528088923963 10.899938365254634 10.212359809273277
Al 13.984777347245249 12.135742848193892 12.85017724987339
Al 10.069125740015894 13.80849719152903 9.085939829015024
Al 11.580279059516235 13.328625934633342 13.960670373599092
Al 10.223602229607597 14.648434439844664 11.97615447947457
Al 12.518673137181278 12.704845596292923 8.609756089219267
Al 14.359300161859105 13.43269080589555 10.431874894837001
Al 12.162311623454304 15.059232295778703 10.04736152844269
Al 13.220506637338948 14.84367266696208 12.537109264689848
