31
Energy = -96.17977637 eV
Al 12.885320590826135 12.766066814813268 13.880380344348161
Al 11.214188280376854 12.412592722693102 15.986597208634713
Al 13.781213331096442 10.663060248506994 12.49708026934404
Al 12.077713112574912 14.836333133159918 12.236037585023075
Al 10.282235938281856 13.452679777294533 13.591096323381464
Al 12.224030721634199 10.199137299330147 14.633173891661047
Al 14.195181432250779 13.214109240481285 11.531179300172782
Al 15.204799601922511 10.989831369770707 10.262352558722084
Al 9.58855915448674 10.96177572788288 14.439773639072992
Al 14.85236963602594 8.526620869879615 11.123546990149858
Al 11.661941255277982 12.135418548290138 11.247763146004424
Al 12.894970601951913 8.176957578573601 12.879967285043769
Al 9.71070591984052 14.0372798711425 10.695324148149451
Al 8.875935844181404 11.838465305747706 11.89338829786312
Al 12.251271186636737 14.477581405763924 9.623311090285181
Al 10.773743597989153 9.703787260464633 12.274111950990626
Al 7.943919573113164 9.57208892276527 12.99835585329116
Al 12.685571328133241 9.73377512753283 9.942548468875371
Al 13.26212303329303 12.175650368493375 8.867312007726486
Al 10.56827017159876 12.849614980848889 8.384416662201998
Al 11.482430629143064 7.477267284563697 10.653673821226464
Al 9.968090622045576 10.478225787248558 9.725776971856684
Al 7.933554593359142 12.636128880350121 9.29197776667763
Al 8.887522896208353 8.19367727669955 10.975863822940072
Al 7.157203183682101 10.308453082506535 10.474407211338555
Al 11.715183632695775 10.695156994326506 7.1953332677057
Al 10.827929487019468 8.465515862966042 8.044374029345324
Al 8.095609745982257 8.730601473227765 8.47684006266084
Al 9.508691012038945 6.416947157542297 9.062213432792058
Al 9.05297629242329 10.947994302667093 7.183008533984276
Al 6.4019090069736615 10.892370737530742 7.893979471593561
