30
Energy = -91.70593619 eV
Al 8.380128213718145 11.15553204963924 5.936917072591313
Al 8.734293969943849 6.545753864091133 6.249706557840991
Al 10.925107817891835 12.163643517067563 5.881557327671515
Al 10.208324081552306 8.784847174168268 6.611809916071523
Al 12.41023030180554 10.337714007447946 7.524758144517704
Al 7.243606243394834 8.832982718233378 6.6537789468961295
Al 11.635826719652322 12.981393216447113 8.348634615202284
Al 8.874375426396782 13.179715655498848 7.847681609918047
Al 7.16870018973373 11.081497007937386 8.397949500508343
Al 9.899841264382216 6.096688627975751 8.627126990680884
Al 9.87507659959137 10.813569643206321 8.449496392822583
Al 6.91455432826943 6.399352752399474 8.260552909007576
Al 8.059772068177955 5.358098276910322 10.483282403479933
Al 11.054438754898129 8.613772013049093 9.192559075209896
Al 5.771866078879793 8.878395034872225 9.039632625940662
Al 12.19568924080066 11.04094955229238 10.237266920885304
Al 13.684955540526024 8.790204844968365 9.473010026415665
Al 8.431461851750308 8.451447281318808 9.184644238547254
Al 11.105057346391455 13.502075139104448 10.927677133365552
Al 12.261036806496325 6.485960491266948 10.043652269473593
Al 9.741284912364781 9.989506787497312 11.200972994787966
Al 8.668949784413432 12.482934544035027 10.413862965470742
Al 12.115968247457126 8.780435024084683 11.76735446967122
Al 9.878069794836948 7.1941194688571475 11.39761510071164
Al 7.075708792156491 10.292435347251843 10.994965979756387
Al 6.737352627531553 7.524993466262513 11.24196090379686
Al 11.295997584992291 11.626945237836534 12.807553917619998
Al 7.982018365116442 8.88865092120706 13.133395228803499
Al 8.485909829940429 11.647614269207535 13.001868168495976
Al 10.470163630079869 9.364538479007692 13.954522006981797
