32
Energy = -99.71329421 eV
Al 14.280642188586596 12.753916249086068 9.807683344169398
Al 12.205122196625693 13.464286708423183 8.1481753630855
Al 15.872821007236944 11.807697145517647 11.77229489931973
Al 14.933305202431681 10.004550589668824 10.02743897327636
Al 13.906784169757596 13.404276141625449 12.62092255057133
Al 11.92484168757568 13.644330557575778 10.845165360593239
Al 13.138558582229019 10.714653401160293 8.135149378412308
Al 11.008706992597569 11.601057147391728 6.741543558505013
Al 14.412951710950281 10.591163277701737 13.71896935825801
Al 13.968538337457629 8.490434385546873 12.110552642585255
Al 12.48749081041299 8.736971915832108 9.830608452304974
Al 12.738120297680169 11.009648513936991 11.476079920603407
Al 9.751791143282652 13.979757797248025 9.179048042478778
Al 12.111714914571989 11.878716778657829 14.065068358189807
Al 10.758016539129631 9.12393764171429 7.859304336951761
Al 8.892590180584367 10.021656814583128 6.0645703501453605
Al 10.650044608007391 11.361851382630578 9.655028112280943
Al 11.91952952828083 9.257227796665623 13.713499783967633
Al 11.55629479322283 14.400777456577787 13.368286345827482
Al 11.585487448047557 7.2988257324008705 11.909792197911976
Al 8.488717676484795 12.245582991354768 7.639571719474938
Al 9.896308689382302 8.687801433284996 10.440345650893203
Al 10.008639770740928 10.851073339924406 12.328848240073414
Al 7.853099218859466 12.142968882364611 10.261053606401571
Al 8.203340146614435 9.821293798504701 8.746703467686675
Al 9.470668697344875 13.572050197029453 11.820512068008624
Al 7.536313612100272 9.616527411790694 11.468678364598922
Al 9.945393497124842 10.262726846519355 15.148312243787851
Al 9.39578143904352 8.201008780762214 13.061031132102718
Al 7.4882355544138415 12.02514681338962 12.919528195033434
Al 9.62811186517061 12.837109061785068 14.406419492489166
Al 7.4724016876451085 9.681337202940325 14.200178683606248
