30
Energy = -92.53698505 eV
Al 13.336680608036941 7.890596042501948 9.330737008438053
Al 13.12092519791678 12.461669960121354 9.314296053584236
Al 14.117819233195355 10.056961036309838 10.459190287274973
Al 12.009021732881408 10.174043019954974 8.352588410095395
Al 10.87389286370643 7.592322246087004 8.278314202092744
Al 11.560505720812511 6.2801440513175795 10.87377047090194
Al 11.4055060478752 14.351747861469805 10.763688286521107
Al 14.107047533359422 14.50131668307514 10.57317372122039
Al 15.271937984569696 12.118952108470024 11.411526111589248
Al 13.982743245944896 10.359051499457127 13.400857892954187
Al 11.337129278076816 9.332340014031132 10.780477868910316
Al 10.48469426305969 11.886642170276886 9.870250185134996
Al 9.287498540959586 9.714544185257001 8.782446653290283
Al 13.070852720316383 8.0591820053685 12.41501379927331
Al 8.928875790444737 14.0918668263988 10.051350337736332
Al 15.915655721512804 14.520056010286943 12.500718736343394
Al 9.08995044035571 7.511263041302202 10.509370839996524
Al 7.776663144858488 11.741768657360469 9.464443933000267
Al 10.346449395172888 7.810400459255064 12.86914416306979
Al 12.527879619082686 12.066104632242725 11.856867598652855
Al 8.76714130157131 9.8490476537462 11.817158270139261
Al 6.269659229363325 13.87222070104185 10.401490399316442
Al 7.980591338157969 14.358689369870962 12.551611030661519
Al 11.252615507208061 10.145212901850156 13.44561677916886
Al 14.570254162342483 12.805705451720396 14.06918910729317
Al 7.159242645357722 11.876951309542923 12.122790808341062
Al 9.785434203776365 12.276756626242106 12.635062918547224
Al 13.029266721805154 14.694293429590076 13.007537889173713
Al 10.440686061684884 14.7394304043051 13.38193115083886
Al 11.895470662652865 12.562810557604276 14.411476002498267
