30
Energy = -92.05682024 eV
Al 10.933961447039584 10.959499856064145 6.400338501436931
Al 9.878344876347748 8.589905311155606 7.247275815405738
Al 11.868584228007457 6.716627441635041 8.125468236759586
Al 12.5218623124921 9.24750159645231 7.923669575492173
Al 10.1996863803009 13.248122504186886 7.58503742276871
Al 9.197791287070416 6.504394539595539 8.79481385321568
Al 9.607112988638036 15.561657072181683 9.082004755651543
Al 11.748352168678405 11.438492625302672 9.116495138694214
Al 9.08555750964494 10.864914463303645 8.505710914774296
Al 7.8045851055642474 8.731320543591652 9.354495015598664
Al 14.337369979729052 10.309881342569263 9.698397548981632
Al 10.475992219898128 8.904162250870202 9.943905509872511
Al 8.345928607162529 13.288211294348478 9.671023256277449
Al 11.776726077159925 14.039654511352678 9.56504958611068
Al 11.100714665036953 6.202738406675956 10.75178365637597
Al 9.955777060447458 14.311429312861195 11.554604312023447
Al 12.661674219263746 15.107178699186507 11.937882785666758
Al 7.058141730544938 11.094552791979869 10.395199936630464
Al 13.074188571307847 7.979845748974056 10.414837745112942
Al 6.8044223951082285 6.292563591220319 9.963142181611792
Al 6.01755226423212 8.492763829727851 11.389632479185797
Al 13.577957241638263 12.591022602398436 10.916138168361254
Al 9.754561503286316 11.576196127609409 11.206850710030377
Al 8.638787926941363 7.066001996163703 11.790757077544209
Al 12.23429926356182 10.326697296596762 11.599746576674407
Al 10.93308794317375 8.239140006147222 12.512897545845505
Al 11.638743853479081 12.69755944519483 12.862178461187046
Al 8.287346186972208 9.688526941704573 12.280447969575668
Al 8.957088576773439 8.170907121923861 14.441571374530954
Al 10.326010482586781 10.560739801114632 13.77085296069191
