31
Energy = -96.16260739 eV
Al 13.473699124394702 9.357612936030996 7.787321462331406
Al 12.145836929289185 7.0669850596950665 8.765046697235377
Al 10.841025909703554 9.165307321225573 7.7891743453888065
Al 9.589696599904686 6.666360463525787 8.379863785348444
Al 12.061041927400908 11.512230522990448 7.095946718028552
Al 12.088014991713244 10.991836125967023 9.757749378980721
Al 9.416936703321705 11.206503881844851 6.8549050925801644
Al 13.597674614750085 8.8313638312288 10.3496639542908
Al 12.58419406933646 6.5607367281508155 11.36181995946347
Al 8.268392288608661 8.964338800131022 8.117190041541697
Al 7.501265127421285 12.61401613675782 8.020388300589666
Al 10.014061304759654 6.308167169159 11.890732263245319
Al 10.265881946151518 8.585965196947681 10.353782313606565
Al 12.64023564334257 13.613315025339634 8.697172220683406
Al 10.008014854022164 13.546416085832586 8.277534745865943
Al 7.83340789682755 6.739716183520883 10.453679694266468
Al 11.4988909094349 8.499600836805403 12.90723312899046
Al 14.146016270337114 8.196640526259662 12.870069601658845
Al 9.224440200208981 11.099541915604524 9.68956115991489
Al 7.214726604657752 9.234060407487208 10.561875537417428
Al 13.456410966719831 13.09926120994227 11.14088125190992
Al 13.184363331982967 10.659920350501498 12.380259324762065
Al 10.847054630285234 13.247059534949804 10.801038360450553
Al 6.41386577393764 11.810544210674578 10.354778379226893
Al 8.281512108704446 13.71168811665758 10.421427402188359
Al 8.85655495562403 8.563595787041688 12.749929893156384
Al 10.482458849343066 10.834389387282508 12.140124636011105
Al 7.787415745450576 11.015922844828555 12.530878560448748
Al 11.838412055974624 12.962076453429344 13.302433967427731
Al 9.229212466090603 13.270102936540763 13.002640345256971
Al 6.565702542216373 13.421141355562554 12.55131481964876
