38
Energy = -119.92152036 eV
Al 7.55145143867089 13.484999925905884 12.162693090752162
Al 10.719967376059273 11.071396815329374 15.651327964770342
Al 9.085493246211142 12.285220770949303 14.009152278160231
Al 10.31296056001775 14.112376904043368 12.438429642212656
Al 12.451279062162177 15.807669849574303 13.086266640282979
Al 12.076833421713998 12.800519359704312 14.201866008324998
Al 14.617063688173502 14.180425517641686 13.575792395835858
Al 8.947823924556412 14.747939660684061 10.089015241410864
Al 11.605717507394163 15.29525251099087 10.301704517590835
Al 11.151972376109683 8.444640229791986 16.076535434642686
Al 14.26912577185924 15.563126882575999 11.013705945281103
Al 12.902072411398931 9.965491143784115 14.547936719061449
Al 14.315194733575716 11.469133016698105 12.951533526980976
Al 7.871558905739906 10.430863192222688 12.353718097866013
Al 9.146654360958955 9.255184513601758 14.32385803760463
Al 6.640880766688152 11.71523347252722 10.353089260133562
Al 9.435582465984647 12.021730788609798 10.68928085727882
Al 10.895857597543257 10.730601325905859 12.653508868985432
Al 12.76632545363187 13.278247320797465 11.691519068519158
Al 11.891929840800271 11.278913034430117 10.216073941839433
Al 15.492306691381842 13.175211376062729 11.160007682154678
Al 9.39531638967944 8.238561328602682 11.753476359507022
Al 13.050075729719657 9.323432918742173 11.796592915853038
Al 8.065551143825106 12.747119908116934 8.36726707839409
Al 10.83685156056676 13.298034378734322 8.59229464560088
Al 13.541553692243392 13.490918768222045 9.134126102005538
Al 14.549864662484293 10.932444276722613 10.160943081324305
Al 8.179140928664584 9.6270043102942 9.661456592715156
Al 10.792940476264064 8.969462468508633 9.610668352799703
Al 11.44813915038965 7.896754132372467 13.457981434618404
Al 9.311552917901537 6.49160590180601 9.551229451123142
Al 9.91228090067146 10.896176762957495 7.86113538669418
Al 12.746027815596053 11.418933263567736 7.729414009715172
Al 13.477101667060209 8.730642515627343 9.179053203513131
Al 11.855372765501551 6.938301378894488 10.993314674400725
Al 11.784271551633275 9.071201290764238 7.029205727235498
Al 9.233910644202115 8.168667490123546 7.390889010098206
Al 11.69662318935325 6.671188080500425 8.208563541101284
