31
Energy = -96.3703713 eV
Al 13.383006803198123 10.198250656898013 13.780528607523785
Al 12.431718079520742 12.647277995037308 13.9905693237302
Al 11.0812807871546 8.701167115419137 14.228951155256526
Al 10.107100130758306 11.176289266062065 13.915739603838093
Al 14.394553066742995 9.718924817615237 11.23768261070921
Al 10.30007140804302 14.113188795884922 13.854722248287421
Al 8.825736651654411 10.598280284363916 11.60381097711202
Al 11.597842465800046 10.121179929064127 11.774845292878164
Al 13.498085689606834 12.16123109612071 11.591474449906611
Al 8.494320912693007 8.660515595176756 13.464518349480937
Al 12.424526681561629 14.643507930583192 12.085495434715996
Al 10.472441350087603 7.613155332276976 11.823665635266877
Al 13.089060256449999 7.7138266016673285 12.718031696496237
Al 10.525100255258861 12.748629154291653 11.544545093168953
Al 8.124823105335365 12.84661153478724 13.079685497804885
Al 10.026657417285527 6.4112903124637945 9.560071840436747
Al 12.596568629650118 8.03856506106799 10.011050138663805
Al 7.907001096315686 8.141562269946348 10.732224775236784
Al 12.700527241153655 10.777596770639558 9.245760371545138
Al 7.932218249374732 12.914610683549581 10.45762497437627
Al 12.295182903261733 13.560671177397223 9.634201893783748
Al 10.193780486847702 9.329729568269675 9.533480457698266
Al 8.455686989437183 7.923122461108044 8.041780409485291
Al 10.0359007794015 12.008479381517132 8.932322330892609
Al 7.47300421014815 10.381235723590532 9.326014425816581
Al 11.441559654359532 7.649106478032242 7.655542484519782
Al 11.202129788347968 10.166144107921095 7.053373078360918
Al 12.260347979104532 12.604111378480193 7.21699149767821
Al 7.564188899321162 12.707276398363009 7.861698807372118
Al 8.510590441098483 10.299638701031682 6.878785648619969
Al 9.767353268074045 12.537189098420876 6.277176566384791
