35
Energy = -110.96891334 eV
Al 12.236269935171576 11.24841829961616 7.1545093437814815
Al 12.89040341498403 13.901097717714066 6.63586099955433
Al 11.635849785280847 8.86824205765972 8.145429450617426
Al 9.760462808843313 10.818509034390981 8.41645017876823
Al 10.573547647130637 13.377147779988212 7.931733187385782
Al 10.97849121367983 6.6139322911433025 9.316607353695332
Al 9.043083293268706 8.38575249810643 9.402220811380474
Al 14.398958856579739 12.50030008739037 8.34293015259398
Al 7.243065747983999 10.31388959828502 9.562780220192066
Al 8.174557917351589 12.927598952539144 9.088260164315754
Al 13.945775721392762 10.07302207044896 9.22899612602813
Al 13.360951386947326 7.718779058739834 10.20374489054771
Al 5.693373126891908 12.561762356894052 10.093818074511969
Al 11.879101420786622 11.849610184934297 9.902393366893007
Al 12.731947195231513 14.422096263623068 9.408231246959634
Al 12.18665685455251 5.507890507677611 11.408116902043826
Al 11.231847477538581 9.321765148944397 10.885794200604892
Al 9.3575952821403 11.374722882348827 11.117904713759433
Al 7.737964303871287 13.494417443183618 11.807135693592391
Al 8.159884697243593 8.995022608250304 12.01520453540751
Al 11.653449325990131 11.542379690713402 12.627923209044221
Al 14.36589115360781 12.35907721465695 10.96937160450397
Al 10.335428648006289 9.22690399435366 13.593124120863452
Al 10.164391385195955 14.114861937880628 10.524376891022365
Al 9.938381041519268 7.0844126619858985 11.842608656152974
Al 6.52025539672824 11.04277896647827 12.129977754320139
Al 13.833909700934298 9.866450061388003 11.920740967715977
Al 12.484260118203807 7.724078643756665 12.894642908261057
Al 9.949969790460958 13.699226215975372 13.219044003755814
Al 12.460087364271768 14.155485728235597 12.01012507216549
Al 8.574247828421969 11.295576616275195 13.75420656870336
Al 12.221692569058712 13.636673955231897 14.61682777683218
Al 14.188471688487105 12.123044890039903 13.604817072262824
Al 10.753416077902129 11.4900173869052 15.254125707891586
Al 12.852234459049084 9.880929828953024 14.485840708579428
