33
Energy = -102.74577042 eV
Al 11.166609820520033 9.115084407225208 6.851623171748806
Al 13.258892528143798 8.483087050342137 8.87785631699174
Al 12.645984820953569 11.094888621491013 7.764007403646142
Al 14.557054789548344 11.387607942445662 9.863557709926374
Al 15.084632809346292 8.954614597176475 10.847127394590773
Al 13.77111709013854 13.432782349943427 8.237937496792378
Al 9.813923632767262 11.478417155985676 7.7221401247309895
Al 10.778012311617049 7.069729024336137 8.632300294767688
Al 8.716681016859653 8.942705342622958 8.144883880885242
Al 11.71246160119933 7.327192547472462 11.121171258010438
Al 13.614944297229549 7.82546140141501 12.8972848910802
Al 10.917889855405017 9.665370254119761 9.557012019481293
Al 12.756197478844578 9.980312564966507 11.336877594583944
Al 14.137951571653739 11.799096864654041 12.727984726882985
Al 11.392143872675142 12.501615164777146 9.630781885054526
Al 13.40295220143192 13.738202596132227 10.82536614169653
Al 8.984497112319426 7.82412188209995 10.668530004670746
Al 8.719370732930214 10.708910680195897 10.351139723704392
Al 7.25093302255938 12.31243603674501 8.122358662735184
Al 12.811786661869217 14.397381833016297 13.289195811887398
Al 6.387279861897913 10.019749213217484 8.966065123597094
Al 10.38524344100139 9.296104808989835 12.440962432726373
Al 11.425613546785536 12.024421312130633 12.378795758320496
Al 8.8191422498066 13.487385811867515 9.798153996848685
Al 12.487410164766857 9.861017454390788 14.121910016504188
Al 6.5455682076721 8.79127766770695 11.231789797690206
Al 12.446845806325506 12.343656111841195 15.050288672537215
Al 7.85552849827011 10.163469490299777 12.991640101246592
Al 10.729963886935671 14.456188215590949 11.417392804688326
Al 6.533832055650758 11.941364806591809 11.009644260427317
Al 9.95893132727473 11.047848537746047 14.488873747541485
Al 8.692301004581852 12.674128387763263 12.426545396175387
Al 10.232144646849973 13.84821179053287 14.202643303661763
