32
Energy = -98.65680451 eV
Al 15.41603608477974 9.903554004966187 11.886660457402197
Al 13.371901350043482 8.341752487705243 9.056601569379703
Al 13.144693560691758 8.553378873922188 11.754609743375017
Al 14.964403190124342 10.777830284007464 9.350369495318736
Al 13.768876071172716 13.105197748215575 10.686387504295734
Al 11.047558666078592 7.248379842805052 12.669520351676768
Al 11.838730877749505 9.16172865392991 14.842440069204466
Al 13.378262420906783 11.35945868422153 12.724434832422268
Al 11.026833279637604 9.220075977991101 7.631559511510629
Al 12.394971668468068 10.845520868083106 9.801929451209944
Al 10.871904845062554 8.559819977501169 10.21738347111524
Al 11.439186864273292 12.107609183747321 14.334056457830526
Al 13.507609783820593 10.18140209839484 7.128549980122172
Al 10.639826319205087 10.028097662889078 12.61879574807536
Al 13.723196148810237 12.819314649197645 8.037683549762807
Al 9.178936403409608 8.130414566056777 14.297675281745528
Al 11.205272522895742 12.601649746602554 11.598719296757869
Al 11.296418187785218 11.93575585541719 6.871482822126782
Al 11.388879221979641 13.6316921302864 9.139918847005323
Al 9.39288633491934 10.688236838020877 15.17028280408322
Al 9.987197275355852 11.327514050143542 8.966767877150044
Al 8.605808121106634 8.061491097505236 11.57416329448988
Al 8.743736462505252 10.732969806299499 11.002941856037891
Al 8.477501178008142 8.922983618644507 8.853642597448912
Al 8.968888769388176 12.491709491973563 13.08644070549816
Al 8.714641979392457 10.669783010755276 6.5455676074696765
Al 8.852280898432497 13.493333450953912 10.413053251781232
Al 8.945908053591955 13.494327724363007 7.513856245365285
Al 7.507367644708938 10.093626775629268 13.17425781904316
Al 6.288861153642871 9.45911285729407 10.587457680047127
Al 7.31521555997533 11.595681342357764 8.820818743660698
Al 6.5274169210910165 12.340503038878168 11.568076799174532
