39
Energy = -122.70657943 eV
Al 9.04717532518604 6.978969214812918 13.716848653333866
Al 7.212676269707179 7.069407919341413 11.58074491739616
Al 10.265224167478973 9.285807416392942 14.550991975789803
Al 9.90967510393976 7.211013623705018 11.09240685415758
Al 12.923177154185463 8.780912836553819 15.258188623579422
Al 11.693848773999118 7.36668220238888 13.147381003089048
Al 8.300066372308963 9.378076495443922 12.692970929992809
Al 6.0359424261210055 9.502438323586121 10.966332679237325
Al 9.565682655585237 11.688323808061462 13.309635893162035
Al 10.828394018662264 9.775403459217111 11.659199638293963
Al 13.429144194971578 9.327395449996308 12.540029283570405
Al 14.616656842994514 10.856761732656926 14.56808741088388
Al 8.520845445269892 9.293377146635043 9.993009853746072
Al 11.984555742799166 11.2958634032387 14.144108315201466
Al 10.731591948078886 8.401226421467577 8.835093925153126
Al 7.518739121195494 11.751381339923809 11.570564491464824
Al 11.032502200054102 14.060099331012912 13.799253554945416
Al 12.623544596690651 7.625445375380354 10.62604671082212
Al 6.91438103723403 11.18721467102744 8.95723992263206
Al 12.282552162265903 10.603855522763773 9.446551058989767
Al 9.182793862549001 10.35496896756906 7.621251626466254
Al 9.745936204422362 11.875026789099675 9.88018266762019
Al 13.369316800686853 8.315453429515399 8.110646208149795
Al 14.80747501473073 9.425204786848939 10.111423447356602
Al 9.22520269403845 13.850805957525921 11.780127922488589
Al 7.249671966666281 13.948926100490224 9.906731283825135
Al 11.839045042088017 12.382673790613856 11.63604746935517
Al 14.495521510238639 11.606374779694125 11.913979974895264
Al 13.70878847772109 13.372110839142177 13.763450518510439
Al 11.57895351708547 9.719038141009591 6.506290980586523
Al 13.127288619353383 15.917725280593983 13.2023604354825
Al 8.260683452337227 13.055467732759121 7.457076623898232
Al 10.8517701719831 12.477876740243156 7.310161875487062
Al 13.37896815892213 11.588240049689148 7.117673586328374
Al 11.53059057822983 15.194305796180869 11.192185480626291
Al 9.88883766465196 14.584093464633664 9.15610200710285
Al 14.686406023500021 12.068240846589488 9.326814508739181
Al 14.053472209737802 14.144644267285875 11.177986225688443
Al 12.380210613017226 13.476474687595692 9.172129602638659
