37
Energy = -116.28327074 eV
Al 15.962663217568767 13.798374161383483 13.231698386827638
Al 16.045128985745848 11.151170619895899 14.318330046831331
Al 13.786563663550092 12.808097665424228 14.766775645330565
Al 13.35561938688534 14.349766431261635 12.469617635344203
Al 11.57128148854251 14.357554295235504 14.556989242701558
Al 16.92727041372658 11.654436611588425 11.803219019486097
Al 13.656089046101116 9.85813488283946 14.568883850050563
Al 15.158844816144088 13.526693033333396 10.605204006639681
Al 10.81741174817897 15.307414404485037 12.031362474135902
Al 11.429379325959598 11.417689613883493 14.755958423390908
Al 14.083012361581234 11.69567972784552 12.386832652596226
Al 9.240279647354361 15.777949174132806 14.253413702904796
Al 14.887960632374 9.128094058164791 12.26534349888618
Al 9.229742340114669 13.004306648575604 14.77629046026356
Al 11.26953832379687 8.679983137294377 14.945711914913051
Al 12.335264653382312 14.660438683713677 9.905911571312693
Al 11.163984320875263 12.572426346016938 12.407674017395037
Al 15.197743092365263 10.788074262440908 10.048328471777328
Al 12.614139610339548 11.84998231368667 10.204994796292258
Al 8.467186659237225 13.982166416641185 12.339546970573391
Al 9.04970375403794 10.287627845350412 15.197847151422282
Al 12.002148960428611 9.778929549423413 12.44847572386666
Al 13.152504584342807 8.993503704931035 10.107016747256555
Al 8.625213666855654 11.287180317322779 12.820435125444057
Al 9.96657765590197 13.428647912987493 10.103128473016694
Al 13.641494230457715 10.783701902862001 7.899627089629623
Al 10.1083577494725 10.652219972899251 10.635950485992012
Al 14.0361877284928 13.451382312146967 8.243984307844533
Al 9.506320435896932 8.740701280588533 12.847288505561693
Al 11.474317175893288 12.75435084465609 7.899417301190781
Al 11.279604964993291 9.836933817678116 8.281859766403036
Al 10.707274337649048 7.9642555380595805 10.434338777038535
Al 7.609032121756244 12.138849951241163 10.482891712136817
Al 7.59483761644171 9.344475279301328 11.067116132003852
Al 9.082041440985282 11.61326003944763 8.16463754673552
Al 8.910584786255736 8.841416007855205 8.620845298700072
Al 6.652081826664516 10.331518005756804 8.700439838455292
