33
Energy = -102.61789021 eV
Al 9.554702040431609 11.36440613516181 6.200318281005864
Al 12.419624220901296 11.358131251133377 6.355682607514414
Al 9.437288902430119 7.836814580300241 14.124568770267093
Al 14.390927000522046 10.173741662984735 13.352581203131148
Al 7.199144287876944 11.18114665764068 10.402081336579865
Al 8.476707856982511 12.748917868474258 8.278822308231774
Al 9.842407624101668 15.132518945479571 8.930459365692906
Al 9.79904149445066 10.406200980724412 14.537726794031121
Al 10.195069101119683 12.996837427461159 15.038252398601616
Al 10.863133825869063 9.774665737077427 7.890194197027769
Al 10.359353790219604 15.782894973292624 11.401586803287739
Al 11.12986679950477 13.139000411342225 7.777329844330408
Al 9.930857445116743 11.158179800792013 10.030119341638134
Al 12.6363342678196 11.47124360944023 9.331676195809267
Al 8.383395681696982 6.965938300022339 11.873773538875131
Al 11.340472843819189 13.454657401150122 10.433187663009997
Al 11.69147680282167 10.159832316514521 11.893991084522941
Al 8.465881660264992 13.645051625658894 10.769593989765315
Al 12.047962300113623 8.716833551290982 14.164142083543819
Al 8.954403098607694 14.63822530696225 13.350579388572307
Al 13.73520508313114 9.555801232367656 7.803802444842794
Al 9.446143616711899 8.425382480773086 9.890354202768805
Al 16.14316777517819 8.675713522307795 12.072310759516396
Al 8.13799975862761 10.026355764644427 8.153286485606952
Al 14.542014602609848 10.022368811342895 10.474738617761384
Al 8.6615645630501 9.67035732374686 12.166341614095014
Al 13.500486533315046 12.284061840223501 11.811731610503685
Al 11.040358079190044 7.403554520540554 11.946707297985949
Al 11.775409324322824 13.979791664770607 13.03607738886017
Al 9.801743776365687 12.096086123162232 12.498577592354154
Al 13.63636229653912 7.770542561326763 12.123042457176206
Al 12.24187140462588 8.518101210601543 9.80202424256528
Al 12.315570787910262 11.562593047536629 14.180286736772388
