33
Energy = -101.71385022 eV
Al 12.604363118066072 13.54727787845413 13.40368633819646
Al 13.499894631220485 14.313180297944138 10.638847051762847
Al 13.435974867845498 11.58352409911099 11.394904155927337
Al 15.210589811933238 13.31278957966614 12.723827966099693
Al 12.66244947868555 7.744961860808859 9.554594109281302
Al 14.457758594993242 9.996217676284354 9.425373257713757
Al 11.276742146931502 7.651589058888091 12.038993841116062
Al 13.860538573273896 11.173658991500435 14.107436313659985
Al 11.27647763208005 10.67082909187056 12.743159790796815
Al 12.57469887574335 8.808464808543466 14.297414872753972
Al 9.978489786107968 8.808065281689926 14.297196508705163
Al 11.276386657231267 11.725185433833259 15.2536714691281
Al 15.338079492973527 12.563870530879173 9.789555673756407
Al 13.746026716882602 8.840725699317764 11.857260256651442
Al 12.57897366191089 9.70385263830072 7.609669078006525
Al 15.75791664773253 10.659434449322406 11.985036369256745
Al 11.276631569005922 10.134350380953558 10.052069696335511
Al 9.891303235588348 7.7449527863496685 9.55416991835783
Al 8.692463588385845 11.173176051304434 14.107108109403967
Al 9.948370807334452 13.547028162366498 13.403658773271092
Al 11.276500416247414 12.834850904644494 10.877574993293187
Al 9.117077895342206 11.583306783650974 11.39458507176172
Al 9.756754716768224 12.296385481992177 8.515648128156695
Al 11.27631570769001 15.429145029178043 11.742075716412995
Al 12.796415069594218 12.296307239119207 8.515785883629981
Al 11.276551213471617 14.595330586499532 8.816126338072772
Al 9.974488190536958 9.7041697532394 7.609344396383205
Al 9.052972315469965 14.31296798020059 10.638689657637855
Al 7.2149659696151485 12.563506538085305 9.789172403091015
Al 7.342258561860694 13.312316463052428 12.72342304143756
Al 8.09560111725749 9.995890798587999 9.42503161367439
Al 6.79523853019193 10.658909673415266 11.984710993432781
Al 8.807424824826148 8.840472485212468 11.85689271283482
