39
Energy = -122.81618257 eV
Al 10.925029641477874 11.02270014990239 7.460614221119688
Al 8.763087886832615 14.634517780391095 9.559618355724039
Al 12.844299371451383 10.144602808841492 5.842494680289212
Al 9.231509671368746 11.973111912051492 9.286881092535832
Al 8.904808183654398 14.307442785418262 12.344063485710922
Al 12.729191542479562 12.875959386971658 6.423926075689273
Al 5.501096219289885 10.978531216427877 11.73229037687828
Al 7.911969163503452 10.2073813774986 10.818937485162355
Al 10.226917573408295 9.547631824650773 9.7142493335777
Al 10.744008198894935 13.753267842923362 8.024956758718819
Al 12.47134513843026 8.872758785823235 8.220311490103862
Al 11.1262887135666 14.057771769585553 10.73303815847185
Al 7.126412950189132 12.874531171381111 10.763052541837583
Al 12.067675982043152 11.563259091868963 10.085831820668727
Al 14.021816780571815 11.207569228847847 8.139667899762953
Al 10.090609167854955 11.709834526637803 11.900044184928559
Al 7.618406209491405 11.952491179456258 13.259179432889148
Al 7.034945509937128 9.131984877846676 13.187280193291933
Al 13.330216621823228 13.824204896024906 8.926158003812652
Al 13.774148334393619 14.67639749138093 11.357614531872253
Al 14.07746084498328 9.56235309775794 10.241853945826891
Al 11.826374488333506 7.45563726846592 10.48923139031601
Al 11.881868390791274 9.6249264021335 12.210247795954027
Al 9.466913779345157 9.971013130262039 13.934615583260236
Al 11.251351796049432 14.943140208511913 13.338132914283904
Al 9.891252333133723 12.760477596017557 14.447274635938417
Al 14.776625868050429 12.202267458899437 10.623112630182284
Al 9.453791637636062 8.142753559648563 11.90998311514034
Al 14.039723612155916 7.633854393515555 12.101488487221976
Al 12.654268926999015 12.534301071222544 12.711999389765646
Al 11.532527188008865 6.891281953359399 13.21098498078743
Al 13.805090836380979 15.223031117081247 13.913940285166591
Al 11.731589193076982 10.833347386751495 14.700417673218299
Al 14.582989970379497 10.457609683393398 12.621227029551877
Al 12.393244077107497 13.389846407275064 15.380658423297158
Al 13.43931920126473 8.812959597026241 14.43018270363211
Al 15.388043546510529 13.08796371419606 13.137680008030056
Al 14.314997140512043 11.382152977088394 15.067217599212473
Al 15.10986998634783 13.83621855119364 15.810626963898176
