34
Energy = -105.82824221 eV
Al 13.580319545743123 16.090394377082784 11.497777088334125
Al 12.180572846584278 15.665510541492054 13.762456763750412
Al 14.936894915450393 13.977522897514364 10.287420650090201
Al 10.482975111417508 15.345513179831103 11.858968584227398
Al 12.196984088975068 14.624083789538851 9.696098789175362
Al 12.77277876015297 13.62334665124911 15.263008079237805
Al 13.31856693317693 13.515451477812663 12.495437743798046
Al 15.696504369904785 11.491225710147884 9.361826904363767
Al 10.532904898070374 13.319724289530335 13.818997833952508
Al 14.987846147683188 11.220069818208557 11.893462610113003
Al 9.32081287420012 14.50725986439741 9.679152347749863
Al 14.217594926487703 11.656442891775166 14.329607495401625
Al 10.93131217783636 12.655351396395895 8.374903086570214
Al 8.314477342172491 13.174956058254908 12.248191630322209
Al 13.161141513013924 12.11840651889115 9.95357377814916
Al 10.905667052708424 12.728628460185181 11.219626745705146
Al 11.57977950773374 11.235750020610615 15.266787734769379
Al 13.641232011841959 9.909687808190608 8.48337703280415
Al 8.68405655809262 11.856948525954888 9.905015910671931
Al 13.530820294801078 8.973568454964845 10.98885989379585
Al 12.392532574244438 10.725555665569834 12.637941549842255
Al 7.1463529816175315 10.65433688687951 11.91159280879055
Al 9.71633889192373 10.861243442654546 12.820315387428558
Al 11.12973995914005 10.379515981502257 10.091952225116634
Al 6.771727135600984 10.136684684318265 9.180684545851294
Al 11.565266470244962 10.345541585333411 6.966034704887641
Al 9.211184318197118 9.979359470123628 8.027917590048038
Al 11.453791401872664 8.101589321801146 8.814148642307408
Al 11.005838817430067 8.942779856021627 14.316450917486586
Al 12.898222058874037 7.3656859183022325 13.107964050948299
Al 8.754704794513172 8.916833503283314 10.440476387292156
Al 10.925437804441415 8.061808823595955 11.526567006697984
Al 8.559921770103118 8.453436027408271 13.098817379145093
Al 10.453130379199871 6.34321733462735 13.632017334625237
