30
Energy = -92.68302978 eV
Al 9.882451184942333 9.007667702059402 5.4894787476842914
Al 11.970851448323241 10.688491008823595 6.354341094775206
Al 9.081286433845046 11.106283413567406 6.844277332267453
Al 10.78315363240467 13.328866976851021 6.99413760478072
Al 10.96621959358063 8.54627878459606 7.891358457566335
Al 8.125951412077395 8.15211359296198 7.530423361539257
Al 13.273435000376477 12.638518854177894 8.142795972649562
Al 13.406602661000498 9.815263823712842 8.623141364454268
Al 11.045062100745989 11.378139734234072 8.775201639627346
Al 6.547192257076654 10.629722844413639 8.249551664986788
Al 12.446144757849131 7.031805132918461 9.758585689225821
Al 8.654447026035648 12.734265642753515 8.9774583250179
Al 8.976909770349621 9.974020833574198 9.326033422573461
Al 9.58841322756047 7.31400425023145 10.008752740273835
Al 11.265157633454828 13.840654508024397 9.825844715252673
Al 7.127630461443389 11.26143164703312 10.878957462531375
Al 12.922661316572611 11.634914890934638 10.783152000453208
Al 9.855192819992983 11.976119797751217 11.339718534957719
Al 11.406757520768442 7.552919664812465 12.40880791630717
Al 11.3776826088911 9.415771560588544 10.434307506176852
Al 11.889457078505474 13.362613246464896 12.622368831036692
Al 8.896995620994824 6.768317820245665 12.797566932759068
Al 9.199910121099835 9.372572600948137 11.897348868480911
Al 7.020652029264349 8.47896723067729 10.38101409572216
Al 13.888330166675656 8.961381420774119 11.484747061349438
Al 7.757086261536868 11.093464803105551 13.426373391850035
Al 11.778696556718284 10.257459848163323 12.941999309009928
Al 10.109650998631105 11.966991874119929 14.094408926761187
Al 9.71155381564708 9.011697579278785 14.486956994645075
Al 6.943819114947277 8.598633543515152 13.130244666595845
