32
Energy = -96.91167177 eV
Al 13.643099347969168 9.566006576045261 7.5759933922163345
Al 14.303693855345577 8.335585738915286 9.805722973528967
Al 11.182133409315224 10.399872305859592 7.39237466921811
Al 11.879115958677362 9.475810775154834 9.764269396445027
Al 14.174548015652721 11.073224458246102 9.840869452004489
Al 9.842153909125392 12.490795098205053 6.9881901652907406
Al 15.992921674255074 9.40772947755084 11.423433632880833
Al 9.368440542702066 11.085745196751986 9.415098502112889
Al 13.37142059273371 9.509707906899797 12.183918572462321
Al 11.682262200997588 12.537764775834072 9.110387148584405
Al 10.904021119900474 10.711488329792852 11.787621645735337
Al 15.390862891362206 11.760615964134177 12.178624112095733
Al 11.77848155596888 9.756513197887147 14.248599867824941
Al 13.34212875580674 13.29838532764994 10.970510779392477
Al 8.166832347553498 11.073748914411313 11.702969620765458
Al 9.9913976463517 8.161751027926483 15.564662889530634
Al 9.719759031211714 13.209346150295337 11.434410392715236
Al 9.267068219630017 14.049488731279418 8.939687715381458
Al 9.762768776948187 10.823454460463362 15.95377274734542
Al 12.982078732101295 12.035696911493966 13.458486016636401
Al 14.88366447894934 14.163580116525875 13.028620507090425
Al 9.029475516375266 9.654661059458363 13.65149298596314
Al 11.220768703081879 15.138769155388415 10.246154544837788
Al 10.131411889571252 12.305614977015898 13.893605620171689
Al 11.934585183108616 9.413478729104593 16.97222112478652
Al 12.159611692179336 11.901929744781249 16.061960964009096
Al 13.54964240281776 15.882348237414043 11.32921404462968
Al 11.654345370700913 14.373445245390515 13.029008447755553
Al 15.480922421159265 15.715678192366255 15.181960824471771
Al 13.434211189777423 14.054332298150834 15.411865055431445
Al 13.289688517108745 16.400538590824105 13.910853119550945
Al 11.19226098661861 16.93866926383987 12.249216004191581
