38
Energy = -119.32605413 eV
Al 16.905327197528326 14.171887200909607 11.005186209906732
Al 14.68791363802227 14.909913868392225 9.703859025148802
Al 12.41587296824005 15.48196012638705 10.92067048537969
Al 10.136474341851265 15.268410660994512 9.6071679398337
Al 15.176443883983364 12.254258688398806 10.118808642532414
Al 12.523654940379297 13.170214632854593 9.293316685555958
Al 9.700283063907396 12.825263641667181 8.850438040377504
Al 14.735215496237457 15.019498813150442 12.536329624815176
Al 12.173228359942541 14.948154553098 13.518246216679971
Al 15.854509223768657 12.541439849139561 12.932937144890312
Al 9.95731860051152 16.008942009339844 12.210709414985903
Al 11.60869221477962 11.120060918699108 7.809339375468282
Al 13.296343480146268 10.43230362222549 9.791852080747503
Al 13.262610984151861 12.684462985702496 12.075683102625304
Al 10.70493963802776 13.270551335036677 11.458789533593256
Al 7.942611469976807 14.071817202917625 10.897747706826543
Al 14.897102124302485 10.269497550206804 12.002286901744853
Al 14.16384843947678 13.579092023585712 14.772452996326288
Al 9.188870638679955 10.257545380226308 7.969133558821094
Al 9.015772333686213 13.866058065454576 13.543383977899634
Al 13.034333247869993 8.027159021778107 11.085458207208823
Al 11.446553294933823 12.448706398790481 14.077695458830522
Al 12.119649841923419 10.177441414687861 12.491866961468615
Al 13.813493842592571 10.871142876821791 14.534960101445884
Al 7.400773253655476 11.631911659589836 9.552634959768287
Al 10.540508402164004 10.624019782377577 10.425375835507225
Al 14.151229574469044 8.32707359622942 13.473463532959112
Al 11.584501697693286 8.500847581950904 8.776679397690474
Al 8.466971268838408 11.682367703539082 12.044096824385944
Al 10.356327636689056 7.621165062884115 11.195887158270878
Al 8.98012718732245 11.54314874040146 14.756837705841178
Al 9.528590734646615 9.491000448493669 13.02615579234469
Al 6.784037700350147 9.12837910370076 8.442873550508477
Al 11.0928856728675 10.006925402177211 15.18874493368447
Al 8.0629828234162 9.287057528894431 10.805134116924409
Al 11.532620859234619 7.688842346811723 13.590064842100059
Al 13.059648874030563 8.436808078719872 15.936448581791106
Al 8.994592277654139 7.651531351715323 8.874144603062804
