36
Energy = -110.84422874 eV
Al 12.699142173104764 13.654574552783668 9.752906545593207
Al 9.778499608571416 10.265468420593796 10.25837741805704
Al 7.445472615925459 9.96230836968883 11.575053221459552
Al 13.738521024483733 15.382782319533584 11.510121049914781
Al 11.24628777274089 11.196804401077568 14.026152337293448
Al 11.328915936996571 13.916758145392713 12.784405083459648
Al 13.379856643993037 14.37912322941947 14.535109273975017
Al 11.713759835266718 11.369419434120669 8.82230752443514
Al 9.123942041349586 11.905489388280813 12.542193690233919
Al 15.088268461435247 15.752567790450955 16.463600414833138
Al 16.83492157302466 11.88647159339658 10.55805606250814
Al 7.720824658290314 12.131676080624757 10.149643870789374
Al 17.32759615835548 12.331672486791305 13.27213034898436
Al 14.281524914442805 12.954301972109613 16.811244752733362
Al 12.932655666094654 17.220504614330103 15.415603405011638
Al 9.469281876046878 13.22784733887068 14.742233506489924
Al 10.022340014255429 13.40247430348312 10.096054005721149
Al 12.169488029108388 9.14608469662833 10.680532877958415
Al 12.024518417616727 16.700197334072783 13.019434868781666
Al 14.943153713992944 16.468409895824458 13.73908770775916
Al 14.149957777474988 12.78456408787918 12.345564709821632
Al 11.809792803544557 11.66899499641214 11.47023686956113
Al 18.513057072313224 10.396325528366976 12.024560317992332
Al 16.073178668531263 14.039332024073262 14.783286306342074
Al 16.225973451355355 14.671712393036287 12.09274927687133
Al 12.971860222733717 10.35942082823465 15.912754011851852
Al 13.446933129161609 10.055386138931347 12.968269298254874
Al 14.200272868234835 10.99133250919016 10.24949986635283
Al 11.699982608199791 12.842754893861192 16.07006778927701
Al 12.505590342252082 15.19985956048163 17.277764350453293
Al 15.943128485742022 10.033063832964547 12.358046131312404
Al 10.778774007853045 15.446197532981909 15.206724031137847
Al 14.597740243852646 14.662342731175551 18.858498362221084
Al 15.25127994569078 13.804815399188383 9.82230031309884
Al 11.127078995370479 15.776624308029005 10.766308702952088
Al 14.998218760690891 11.574127385817278 14.600912214604806
