34
Energy = -105.442689 eV
Al 8.12602920024953 6.768129844605708 11.104550933364566
Al 10.562852308489784 6.32849356098799 10.107914373894742
Al 10.067092669625916 7.687664225645248 12.761725585154421
Al 9.327688205630858 7.853625619999558 7.757571937693616
Al 7.799306275592061 9.12508679516308 12.403698966608191
Al 6.98743311491593 8.609815379365637 9.545557021627966
Al 7.202697337305219 11.074922644547685 10.575366797606657
Al 9.584182423148208 9.944491154782535 14.676493993636024
Al 9.61711586583894 8.867248780389243 10.14761117023475
Al 12.43049799588307 7.762889025530313 11.38606219160783
Al 12.171293761985117 8.634967269042287 14.062569590171316
Al 10.818438777673805 10.099611285047418 7.331035600337207
Al 7.508831600998813 11.584815824884638 13.340156374892864
Al 10.24261118677302 10.379886973112802 12.172138511987718
Al 12.11486931909025 7.801917275417271 8.387530845729671
Al 8.021942759466482 10.40000033142441 7.74193500781216
Al 9.736644011633869 11.556679973946569 9.53954730224672
Al 7.561470690765705 13.077750125181572 8.734773773588666
Al 12.073324921614274 10.085601348645449 9.90616165830528
Al 9.664051048369108 12.538859855456964 6.8784643600660855
Al 12.158503041450242 11.28138102487625 13.92487443760326
Al 9.893711443368279 12.716131169330227 13.581879526644212
Al 13.778714612594587 9.930502037666939 12.141001779003698
Al 14.470029491157923 8.696337672111902 9.805039535389241
Al 8.441244508172423 13.31152509463886 11.31342549743361
Al 13.547797803119465 10.072645963370986 7.481537585753442
Al 11.65424450161238 12.410361141342678 11.30704376805455
Al 10.24202400220401 14.21010169387241 9.059546321620774
Al 12.316413113921598 13.964515379875849 13.464102037352083
Al 14.223083109943321 12.568599796563266 12.235601511836853
Al 14.327374065786188 11.625223026470032 9.685446497930306
Al 10.567649819714326 14.89162731536933 11.679899767915764
Al 12.08780616108062 12.305524003551165 8.143380533019991
Al 12.989574577054103 14.17104176215223 9.933527585028807
