35
Energy = -109.89160368 eV
Al 14.968535916328818 10.408875442278463 10.499394384016956
Al 13.511753697104613 8.114550887112118 10.446760012137776
Al 14.149244162324177 9.956143708589908 13.113219018348543
Al 12.709018684065812 7.633980472542773 12.977994052064261
Al 13.827037918907822 9.772666384219523 7.97977175041998
Al 13.902132751277936 12.600098084896498 9.379495388544644
Al 11.76569997615581 7.839659890050075 8.46708289127693
Al 12.4053124287428 11.846115466703322 14.46130831646129
Al 13.273984272418224 12.171012525852682 11.937786385977137
Al 12.64671720303142 9.076786294667825 15.302056820066724
Al 12.091578716889442 10.475429197579306 9.912580153553519
Al 10.854874130210192 8.088397555593001 11.048220435364087
Al 13.070966738140429 14.70708871664967 10.837214775501034
Al 11.439000749231544 10.062339327835405 12.699586026482855
Al 12.544457412718428 12.237564510296098 7.150801091148286
Al 11.121180580292384 10.044014527231594 7.111171804189838
Al 10.169160620744568 7.770817397277305 13.785932414650647
Al 9.025655983553651 7.88414968579948 9.211626162513875
Al 10.166641029537471 10.19789381978638 15.223178386129947
Al 9.687499596152213 7.845955844784528 6.629227387365346
Al 8.279187852140696 7.445574142725077 11.74421823415082
Al 11.656359229274246 14.158048997832923 13.061439185032846
Al 10.988195694669407 12.94636732268826 10.73947856090359
Al 11.626836382087792 14.409888383929088 8.50966230289399
Al 9.841439793768334 12.14115358744446 13.351904975096321
Al 9.59630588542731 10.633628489626872 10.572981379677538
Al 8.514661298958309 9.838281158677601 13.02256543023713
Al 10.092668378330925 12.150461661481593 8.314937234765592
Al 8.455255917336512 10.070623444254114 7.823326945556444
Al 7.1634145532416245 9.637450282835527 10.468342729905546
Al 9.052467797663075 14.355144788622601 12.150519461093703
Al 9.08070761900326 14.341319724021288 9.439974502788568
Al 7.491709147319148 12.023684272286015 11.960170992176263
Al 7.462243776796075 12.119621129203034 9.196792887002406
Al 6.654255456601165 14.281374225070612 10.755438872951663
