38
Energy = -118.52369957 eV
Al 10.127587501373931 14.132432687326224 15.222823707892257
Al 12.572433313265897 13.274911082114313 14.319013551524318
Al 11.32353677553541 11.840236077001734 16.441282726613522
Al 14.010290226497066 11.293621444766076 15.459544928253381
Al 11.208001315746033 15.211882732553693 12.871283201874723
Al 8.973882999043447 11.667491711072595 14.878312014212177
Al 8.462146055124522 14.514365685235244 13.131669995475999
Al 14.114618364477746 11.488585678144805 12.771092864379703
Al 11.536030149375788 10.709177562470416 14.002156075168973
Al 9.68096241994972 9.074670313252883 15.214357208893878
Al 10.278880405452623 12.576349488621418 12.616800207344799
Al 12.652190740822586 13.448414190309512 11.494074972631365
Al 12.291006857900383 9.224572325596906 16.12008875855374
Al 13.40147770427459 8.862075047046437 13.19718350716598
Al 10.207430984306114 14.295946767517027 10.562668941962585
Al 7.124589737827768 9.966175090150745 10.694334823350653
Al 8.868025158222117 10.168515492761962 12.6669589611575
Al 7.835300655051366 12.889114180922615 11.04667651322164
Al 10.820109441280206 8.224191408608085 12.921787668843354
Al 6.863318251856652 11.898132275502935 8.831991901869229
Al 11.812869150332638 10.603564693581736 11.411591253368021
Al 12.150942974472896 7.85350585417396 10.574102318253637
Al 9.638636254166657 11.272954393082562 9.707751586300168
Al 14.518944853310572 9.17196518919585 10.754680242770746
Al 9.190358848851652 13.515014821020701 8.254484637263158
Al 9.553710705859457 8.678780479546617 10.542107058539559
Al 8.165812181695511 9.345389680761029 8.323936446312704
Al 12.318660537992372 10.14482830740629 8.925159817990714
Al 14.166446195257189 11.856568414436078 10.052802839795016
Al 13.527584952483851 7.8351428145185 8.251949683779744
Al 10.70429434275346 8.047184039808132 8.209230951336
Al 11.84464751338496 12.885561040305886 8.96961193806868
Al 8.15139018141951 11.581414056597737 6.546169245458199
Al 9.56236684201045 9.29561096802243 6.042471334517682
Al 15.333452825031927 10.034581549991737 8.327749589801117
Al 10.814795907165013 11.641716588575797 6.93350980790363
Al 12.378258809569486 9.401075482379143 6.266004604168874
Al 13.55395974193508 11.814358649252318 7.183177083336634
