34
Energy = -106.9169466 eV
Al 13.96239136003951 11.640659705245183 13.494838281179886
Al 11.586483158532083 12.764666826065568 14.437686548088442
Al 14.337424646819901 8.853109726090617 13.272364670356668
Al 12.110673790490514 9.8265670792776 14.289034396046038
Al 10.073565600743244 14.415824085788014 12.88399946160832
Al 9.820096686807307 10.866768739631828 15.118781657121378
Al 12.387511789903815 13.183139895297044 11.909918930446219
Al 16.192670078206238 10.377679059911872 12.248685747710903
Al 14.643322267408678 12.015088797473911 10.853410826402097
Al 12.278000775049868 7.689667423843513 12.129876653827873
Al 14.618165139112069 8.97141020035455 10.499154290758996
Al 12.442548774643617 10.367198335106302 11.579748488421208
Al 7.686206196862831 13.086650585338615 13.024652242534442
Al 9.988951512958925 8.884952257476966 13.076421041714095
Al 10.930379768915431 14.965132308065007 10.29720260513722
Al 10.026552583759825 11.666854883112025 12.478525524759032
Al 13.237795321945027 13.802900735614575 9.36966755889149
Al 10.899071987057246 12.138942258135442 9.856657413986635
Al 13.362526936367349 10.74488536483886 8.893222591084445
Al 7.789909007328662 10.452949563103076 13.563054637702104
Al 9.900134164417764 9.668231702257724 10.438759630528843
Al 9.888042476502108 6.930111458170211 11.040123998594758
Al 8.413618198393934 13.625332185240104 10.55959733623316
Al 12.011306198589173 12.577076424813024 7.345443625762153
Al 12.322003309018072 8.228797560424189 9.46690927650509
Al 9.53938425752345 13.973825415689957 8.182506075564982
Al 7.438158355762911 11.140079956169243 11.071432758354646
Al 11.022496029482431 10.11016582153421 7.929956446158727
Al 8.469949759570005 11.52275338999707 8.720694780963086
Al 7.567813830320231 8.33578243551679 11.850574267210913
Al 9.952911112462413 7.587808926236121 8.410879764394334
Al 7.544966723676368 9.020923044115023 9.295219276178036
Al 9.657419448986904 11.901642528595731 6.312972479574413
Al 8.664685680544212 9.42955824967201 6.865163644401004
