35
Energy = -108.46533928 eV
Al 10.73414250362984 10.733372960716574 9.150996464932865
Al 7.969846665450734 11.235866716486667 12.550909993259953
Al 10.733592839084098 10.733304416621912 13.01281361952622
Al 11.680511196804229 8.088883445691312 12.550678060394494
Al 10.386352004513316 6.571476548594612 10.580074380471595
Al 7.432073456935083 7.934095932314144 9.903885622904578
Al 8.934809726112444 8.820919032153373 13.769522620231223
Al 11.493015918957008 12.200257487364308 6.959941731006939
Al 9.136074781296069 12.905249796964398 8.393298501601201
Al 12.162641857375318 13.190987189046922 9.589708190134305
Al 13.414561322032563 11.032761533813128 8.39232224752533
Al 11.62457122943338 9.342600959448808 6.960537189850981
Al 9.085432544781767 10.657775382188975 6.959843245950843
Al 7.891266757142126 10.742921344685227 9.589299271637637
Al 9.989062328045348 12.463906193916067 11.090770895264335
Al 12.604809597411508 10.514704732957144 11.090529172160856
Al 12.146727336961282 8.267123275670992 9.590939809108228
Al 9.65274351608789 8.262869032560484 8.393172123820897
Al 9.60718210460826 9.223456893193298 11.090888889540157
Al 13.28892056307448 10.132456341702722 13.768923452475697
Al 12.551243226149413 12.876674728658081 12.551520570537464
Al 14.80929899778124 9.275333057693539 9.905892237090946
Al 14.511520266162208 12.516142210610518 10.578341511596859
Al 7.301721583688331 13.11365428678581 10.578787198774807
Al 9.95907322673898 14.993427142451488 9.905211774366297
Al 9.97646009305879 13.246266252125123 13.769336089878177
Al 9.111014721271568 11.091146796714655 15.247533367806678
Al 11.855576117987054 11.959811780030352 15.247214066694324
Al 11.2352897794591 9.14730023485696 15.246442417499232
Al 8.650382207716687 14.736940031382318 12.121034525616773
Al 8.304150634836086 6.928819406880926 12.121057966917036
Al 15.243036420732045 10.53672943616786 12.121601351361475
Al 11.166967001572171 14.74096825587514 7.632001329398521
Al 7.0479845802353145 9.105965287157858 7.631021580131396
Al 13.987226768360083 8.35511575103262 7.6332324050467575
