36
Energy = -113.36013603 eV
Al 7.129202336618623 10.425375430246449 12.752375128454496
Al 7.083415064597512 8.916088393533713 10.363024002407457
Al 8.617811213378747 8.340432501571433 13.471655499658231
Al 7.992393931827173 6.661072706536252 11.49691267735267
Al 7.89822906920442 13.082129348694233 12.91557970925549
Al 9.648467987472435 11.166425148315895 13.369045258942458
Al 7.648128954543953 11.66957273972575 10.47752632250468
Al 10.758367130661393 13.718711545359726 13.636233970345838
Al 9.573290478594464 9.564788189561089 11.196386740406371
Al 10.643323427112334 7.057036878060346 11.924046013868077
Al 11.182257400972357 9.041819647660555 13.88413804208535
Al 9.4558736346388 7.4804343283852015 9.378722004534565
Al 10.01869664208893 12.82697602305319 11.145238209628099
Al 8.974885317940535 12.845974717542259 8.537461048628563
Al 13.15017886810221 7.988491892187036 12.38304921062256
Al 11.911349857096937 8.358752731791345 9.997758356609197
Al 8.589736342427772 10.06726155507936 8.482867005163227
Al 7.3098407681890825 14.446118046754817 10.624129763477072
Al 14.313710086971735 9.341064080647817 10.439635521020362
Al 13.963612805173776 10.163326872097043 13.875528231318313
Al 10.847796279572009 8.702315574087946 7.372986230519973
Al 9.773255335578368 15.276840273278019 9.835348140189529
Al 11.922528527087737 11.534809799144849 14.691729443186324
Al 9.138375208226881 15.53667382430318 12.51180091326243
Al 13.312058541244825 9.453666730176979 7.975399579433351
Al 10.349924186456336 11.371822547970684 6.711510552931359
Al 15.964738430834172 8.865640484550415 12.654890786222527
Al 11.132618909869661 10.952168525456148 9.302506903390368
Al 12.051529319293294 10.68009475282905 11.825755421627107
Al 13.013419467562908 12.064111776963648 7.394318748837646
Al 11.508472489332453 13.747099250037463 8.657822452587899
Al 15.262849422071223 11.456574179931847 11.728721408466392
Al 15.292547516900937 11.23104831624006 8.769544240418835
Al 11.972163571603652 14.638584470113653 11.296775396829045
Al 13.296799965904773 12.442665037565574 10.15045771088463
Al 13.371458015227638 12.961145858238059 12.7984950564447
