35
Energy = -110.21928654 eV
Al 13.657165078703224 9.721346036677579 9.863549673147343
Al 14.21247130351687 10.857655756111763 7.488608093401396
Al 12.6729438859222 13.04587329226356 7.866288007522354
Al 13.099974547020116 8.404300796428046 7.454052938989719
Al 14.180312801664925 11.189113862010858 12.159740775565611
Al 11.490279221505746 10.607454093396864 7.854959428470553
Al 14.858085966876589 12.295370456035473 9.776826490495823
Al 11.28261415207852 15.216977958421928 8.682936550492864
Al 13.360674763148914 14.508652205629714 10.37698877400592
Al 12.529140344246832 7.243751328896867 9.83136893843716
Al 10.395253742036454 8.15621332261015 7.9750661951312125
Al 10.04431636869445 12.763688954711192 8.451068112759348
Al 10.954232519424993 9.460971309160614 10.358823730982905
Al 12.06546886165008 11.94597652428653 10.323769960158245
Al 13.090907592175922 8.477408970474505 12.1707762388076
Al 8.85245416895474 10.325899607105235 8.427458487331089
Al 8.555552260107618 7.991918405058708 9.911387448357827
Al 13.507531869592956 9.854820123968265 14.374306765540826
Al 10.510962105587845 7.063549299550699 11.608432708171819
Al 12.71298345383987 13.38356359162663 12.756281796444343
Al 11.439681600341236 10.85368842039887 12.805077306416973
Al 10.644582546726529 14.198569039996318 11.090732665513428
Al 9.426604612300915 11.734785421766365 10.98633833555398
Al 7.470266251005205 12.519788778299962 9.182035352736815
Al 10.996762198853204 8.404432800286287 13.931585024822494
Al 8.667730770287152 15.007517433806179 9.276845829093622
Al 7.037141763937781 10.252566909728975 10.534327264293456
Al 9.033635685507447 9.377744757260372 12.303675846832087
Al 13.63990225068983 11.281895625427758 16.63334361608668
Al 11.793936302134663 12.426766629160296 15.074122140462212
Al 11.402439906303078 9.935006135916762 16.094244173662805
Al 9.878737474308405 13.27846916262611 13.488963381506776
Al 7.999002549427538 14.009923147207358 11.698188558222574
Al 9.373554332477983 10.827413876674239 14.593661106841108
Al 7.436870351968485 11.65109957003779 12.868341886759504
