34
Energy = -104.4326842 eV
Al 12.988045026194737 11.345944562170345 8.644429373610214
Al 10.275896664504852 12.881288068131711 8.843158370968725
Al 13.594016709120512 9.014033880845183 10.038686961794562
Al 8.061281589223276 8.467392926041551 10.85947929119051
Al 14.63360808114457 9.256995861801824 7.502362754124539
Al 8.648515341057209 13.189002469044238 10.880323387822596
Al 12.732459829261478 14.202760110649919 8.710219415853206
Al 13.980353938639581 14.65341107837807 11.430995811505694
Al 12.802753782404805 13.512979847001565 13.400837689945698
Al 7.395635434533978 13.25310394959479 13.22287772171687
Al 9.986199940233607 12.400126100259149 13.14167860096997
Al 15.567462287808986 10.66316367911808 9.645784544472045
Al 9.15052900593322 8.249114622576899 15.305538820899567
Al 14.831960901810056 15.778278607409547 9.209217768482892
Al 10.446803464649433 10.565047728741373 15.6201580305593
Al 10.512808212991326 8.482378126490103 9.938409054204989
Al 12.18963421408681 10.86944367404785 13.597916945936433
Al 9.917189062933971 9.340646510629304 12.822900819738148
Al 12.109123867621975 8.410578513787758 7.888349164295597
Al 12.435657047756475 8.573679153268763 12.232975061955829
Al 11.383481197749129 13.713464480562642 11.095428200343688
Al 8.763993734350207 13.037959824845622 15.561680733563229
Al 13.644018175483252 11.663719577423647 11.400671527926102
Al 8.487162780437075 10.757050669076547 9.38310936007413
Al 7.331506744327883 8.419743595527562 13.336280314575395
Al 7.964733340097759 10.75375988986105 14.573968725419505
Al 7.619128701448216 10.893907460350619 11.924591755850068
Al 11.741791994916506 8.315025295941853 14.734944121057348
Al 11.393023048732712 12.992006463128154 15.491369724824613
Al 15.12759153853773 13.15095591867223 9.493093266024164
Al 10.92539695503089 10.996616326317794 10.868052921475972
Al 10.430146852536817 10.453192166230036 7.672038160272363
Al 12.626559623855336 10.323830161449953 5.966681955067865
Al 11.708584257189868 12.714052652941067 6.693544909354825
