39
Energy = -122.65141372 eV
Al 14.25116618454984 16.22475580452226 8.672971151877285
Al 11.843211909058917 16.465357351745624 9.806233917996224
Al 13.874858345988118 15.674299287280306 11.396700055408022
Al 12.457360357760328 14.156700674430352 8.460077537831442
Al 11.256042598834092 15.633296396755814 12.283441309855009
Al 15.09286777633032 13.841027962174115 9.633863924344109
Al 10.057672367342747 14.53103379731185 9.902257013847597
Al 12.369520101045115 13.300520149867502 11.154387964227752
Al 13.355504546218532 14.5819981491569 13.74697780111875
Al 17.52315987718674 13.048586393451773 11.062172262214318
Al 10.840276284521668 12.112766148645477 8.91021492165956
Al 15.098098316212255 13.327463319296285 12.249643231593497
Al 13.443994981899195 11.702570533158708 9.069491230829188
Al 8.40347226656325 12.526661351633512 10.070415907847885
Al 10.710015504653919 14.740541008320777 14.764520680072161
Al 9.467333299130866 13.648583478608877 12.42521092490535
Al 15.869533802536676 11.221820044821456 10.02593883507432
Al 11.612616237976363 12.356327859732113 13.638025516166978
Al 10.475217347877564 11.240428377603507 11.536074558153096
Al 12.742569677245434 13.292725585565712 15.979267363411054
Al 6.656575377588679 10.419594995878795 10.236650459390207
Al 14.317384268714063 9.149885245838535 9.312215929127213
Al 7.683938396819274 11.671417263533668 12.516359031823447
Al 15.998750970193713 8.661040197960615 11.37191315748715
Al 8.992971341044953 12.664565783230742 14.911086030912623
Al 13.67842824910128 10.840891957556016 11.739340247868162
Al 11.775995274519172 9.612458341637033 9.69112031676569
Al 9.730161869828517 10.075377202888472 13.964377328247839
Al 14.290911566072506 11.867317861677373 14.359241814202575
Al 16.47508955993969 11.096331473518529 12.707451865149565
Al 11.099542792025396 11.142176606447785 16.084210694164558
Al 9.166989926958228 9.808423183277705 9.491528909424764
Al 7.016679818227886 9.862441153638901 14.359314602773425
Al 14.882595513991912 9.246644659961252 13.789279611826172
Al 13.256383698929303 8.185610724102194 11.735382650305286
Al 12.345161985723946 9.691495403725234 13.969325199729141
Al 10.674021842332364 8.449837098816904 11.950736048068912
Al 8.089839700050796 8.969779669922481 12.068029251251081
Al 8.62296492110905 10.456126358408538 16.453429599151118
