38
Energy = -119.05220119 eV
Al 9.391741669777565 9.18388122524389 15.97465250819428
Al 11.10720286383345 11.319529397186262 15.33106514014459
Al 11.716115218179748 8.490267666236834 14.485237813618914
Al 12.11966338221764 13.602897352209176 14.07822335033338
Al 8.279314168119818 11.621304086786132 15.074704880534846
Al 9.02348486516434 7.359112331192675 13.811852847864657
Al 7.169849176320468 9.293419647414101 14.088530962204267
Al 13.993564190091043 13.151554960004713 12.265554188111755
Al 12.39322392464668 10.906118789423076 12.962751033439565
Al 9.75482002712479 9.852933808838479 13.281627112246799
Al 9.993595580189664 12.378628300079997 13.04057427939795
Al 12.726463908991931 15.246120407183016 10.894446577181517
Al 13.414493656441882 8.289447156885407 12.463897030247832
Al 14.746844098447587 10.621198923629404 11.461108616492618
Al 7.8032525658584 13.813169629071245 13.380094903747327
Al 11.48430656767437 12.906941670999085 10.838366263433391
Al 10.2655765705338 14.94076286641094 12.359422734573137
Al 7.493271308032895 11.247738962039428 12.216630723091376
Al 8.135576171203969 8.621932570569024 11.366269315029879
Al 8.514741611948205 13.30130295408183 10.814458635659806
Al 10.722729626597957 7.61025413025995 11.865968832659284
Al 14.005249458900385 12.850063775027104 9.662998333477834
Al 14.610016269761347 8.171072204318111 10.034403559160602
Al 12.346701288575277 9.65133680774551 10.44901643858976
Al 7.889574636581224 10.425112565374201 9.18017680054303
Al 9.962955254711877 10.800855419960506 10.740957991817627
Al 14.42240142793693 10.384205732266931 8.550027716244534
Al 9.939266952541674 15.25678302704029 9.636682907106263
Al 12.24815658713429 6.8590530444618585 9.910010620560989
Al 11.857136307233198 11.330864515697634 8.536465639324618
Al 9.42930793803737 12.64358993326357 8.410387290647906
Al 12.000759702634635 14.065110126070683 8.357023998722294
Al 9.95687718543436 8.449300293922946 9.307811144345237
Al 12.367909552327852 8.606991475978239 7.89490163627549
Al 13.884386274550767 12.61804884083048 6.930273602712175
Al 9.933873964022263 10.077415117884406 7.066912113959384
Al 11.047488592690987 12.522376175520002 6.187215544035459
Al 12.692053862326352 10.339880237332883 5.906206266471096
