35
Energy = -109.96888009 eV
Al 7.436758879859209 11.980888537594701 7.925239765792341
Al 10.173574092418752 12.682186486201061 7.176706454872854
Al 9.13540615721247 10.026664643797556 7.556577112952611
Al 10.518143269071492 7.930131074847748 6.7256248344109615
Al 11.717627484768506 10.470686007777521 6.4986275202770605
Al 8.462408706771477 14.280905601844964 8.776902918460806
Al 7.183100732988204 12.694805775087275 10.748695441008074
Al 9.066516248077077 7.900123178324028 9.304647115970655
Al 7.364503202789947 10.034534219764222 9.670664810413749
Al 11.137956941208547 14.223023942798084 9.256809129348795
Al 13.16503919393078 7.674786927170284 7.117876576109552
Al 9.641027237224495 11.763505999127043 9.771861469737855
Al 12.346814726051026 11.9555917279547 8.742486013189666
Al 11.49612922331368 9.34521154698045 8.940114129174894
Al 11.414737577598638 6.527729713473105 8.971604997425938
Al 14.053423237777748 10.036357943598825 7.945410019552028
Al 6.782655553529316 7.946508537299273 11.187707726778822
Al 13.719492073405725 8.061449137612929 9.956544896535702
Al 13.184801387936405 13.238607624405336 10.931988757183461
Al 9.406587011041305 14.230805489560433 11.325561759113382
Al 9.146404560693888 6.538029219987668 11.681518033761645
Al 6.77956728246057 10.492618422903792 12.39700241456767
Al 9.13978148315785 9.355650021784795 11.754122666700896
Al 11.512668730758561 10.77469300645493 11.343757181731663
Al 11.323146308383196 7.90669301438038 11.193897935609632
Al 11.838667037441745 15.445880882974349 11.596792782267048
Al 14.202518168127622 10.791388929452246 10.479074396862583
Al 7.6337383143141855 7.69917438007629 13.725037722847487
Al 9.10462992973286 11.969774689511055 12.616209164732638
Al 13.19366488384672 8.86825877840693 12.75371035667128
Al 11.410926081863886 13.247070439628807 13.049989627921864
Al 8.613877504998948 10.060152990831657 14.443920511801794
Al 13.52798250887067 11.44951502510372 13.027526631442448
Al 10.52889874071008 8.077170808670203 13.768801708737428
Al 11.136122432920933 10.806709283254698 14.144144169242171
