33
Energy = -103.16431433 eV
Al 10.196899811838003 12.628288144600736 15.292950943878388
Al 8.068004824703626 14.09110132518041 14.756034392613516
Al 12.368195845408078 12.292148528527012 13.84297562699159
Al 14.556055663631595 12.457710122401298 12.452077782671063
Al 10.725788543196066 10.083003328417519 14.799654896924789
Al 15.203487668623811 9.749250169142885 11.750090600775765
Al 10.24883739290935 14.346619046366651 13.095614530381713
Al 8.182677069750492 11.152602589288811 14.212767997071454
Al 13.036421864656752 9.479404775273373 13.358668965772527
Al 12.319738892232444 13.912945507177863 11.562800204392278
Al 11.21842499595351 7.52626037308608 14.17106639542701
Al 10.23343902460017 11.513893699660457 12.494420605784093
Al 8.911894441140277 8.642490648909938 13.329996501365754
Al 16.53946924705986 12.035986004966535 10.765625834093207
Al 12.61135955372926 11.023685208213706 11.096591619049013
Al 7.765730165491904 13.136758808013548 12.330845322552642
Al 11.148774811112286 8.652514984906444 11.730700033096989
Al 13.470124129900368 8.45408572927481 10.178432360645978
Al 7.873944176394121 10.445433328854339 11.592854302754956
Al 14.74973188734407 10.750431937193866 9.261174669050751
Al 9.756221377144783 13.459815923142953 10.575679928867963
Al 7.276659392982623 12.391576359262345 9.813744957770146
Al 14.384302894298813 13.487054571317971 9.849584983194864
Al 10.196206431122393 10.515380032801001 9.943598669092198
Al 11.835342376317657 12.777169405582343 9.133695997934513
Al 11.08696608661007 7.874120936233601 9.071553015199463
Al 9.29983939714926 12.416881974760633 8.104855533753344
Al 13.781289447509742 12.503380716713496 7.37836706592536
Al 7.74856390464637 9.867026388270306 8.792289999667766
Al 8.814334134808123 8.088006108046624 10.556524955818286
Al 12.43722381154493 10.141024085700115 8.286411040098498
Al 11.339862923177177 11.891387602298195 6.523969144905612
Al 9.965429254606988 9.563803078008783 7.245622564073634
