35
Energy = -107.98991926 eV
Al 8.90758590531448 10.521184087738098 12.700002511156244
Al 8.598911383226199 12.934236649998784 11.222519821410907
Al 14.86826292747524 13.317659996639051 11.536062096939132
Al 15.241409568922952 16.098281123790475 12.552997803160409
Al 15.411635448764542 14.197360472771694 14.553637404291237
Al 14.149484296535862 11.853254046957698 13.731474025627522
Al 10.36256290879169 11.194297134953883 10.410465445895442
Al 17.752566997842127 16.808893845494634 11.660054463673069
Al 11.364208628129894 11.675855861576167 13.149716178898911
Al 17.333909774680098 14.258770655964163 12.106962383103372
Al 7.37460463934748 14.881124634368323 12.62889906123728
Al 13.23079201190417 9.478182116994581 13.174500273112566
Al 12.878855082696223 11.340131686702199 10.922783468565386
Al 13.143851445811304 15.280158310751139 15.945992033459813
Al 9.509773076661386 11.540630772853442 15.243776878178
Al 19.622979149410163 15.434605924214518 13.15272377550136
Al 12.006737890320693 10.666017560071886 15.604644222121138
Al 11.00357270541703 9.13419111960189 11.983158240865631
Al 13.881439432716265 12.704719925927636 16.333458997039646
Al 10.885777472171885 15.848515747964667 14.622032873493897
Al 18.143334880746206 13.579860520790616 14.692083647748815
Al 9.67600206241759 13.792460331801973 13.574901585266788
Al 11.257816194448143 13.696089377817483 11.09980265834171
Al 7.2891981361133285 12.413861606691917 13.688714374738334
Al 15.224577334284469 10.501551842384954 11.520671037807512
Al 13.232650160441542 15.422340197197009 10.882737286941072
Al 17.343310627134056 16.15607981239326 14.385706709838297
Al 12.758418528609441 14.123030679043222 13.405834835965655
Al 11.244195630495001 13.43312304310471 15.790493244780274
Al 12.918897218722195 16.820555370892574 13.412329695112724
Al 15.873862476629883 15.474170741593813 10.008074612020794
Al 16.39594531386359 11.857183668053661 15.753754496138066
Al 14.996294018893776 17.000140292346885 15.13083755487034
Al 16.767025671293897 11.88560383965054 13.02927926414853
Al 14.508847957474629 10.018487249862488 15.699755116265816
