37
Energy = -115.97561061 eV
Al 11.099851843914378 11.273081101146447 7.280441176482652
Al 9.672528421866861 13.48089072158624 7.989479369012088
Al 9.932019157710796 8.845519174035408 7.432012595788891
Al 8.485583841033401 11.050832778200352 8.210982799874769
Al 13.518770281379998 11.205923087337919 8.202559478512253
Al 12.377920189586307 8.669143290880422 8.398080025138805
Al 14.241380619710636 13.817181793867183 8.856432991107825
Al 10.044537507428656 14.919071484231806 10.129073626808717
Al 7.439483371711855 8.429445073670507 8.389272905026885
Al 11.800213644180495 12.811583418809786 9.679207579082025
Al 14.894366802947314 8.974814484278529 9.439466394779684
Al 7.855703809046957 9.964310258486728 10.577062182587651
Al 12.74227776637846 15.300333329125378 10.477689998774455
Al 10.634582611962088 10.245713496003216 9.821355673296978
Al 15.666676620643209 11.648646310839613 9.760182516615014
Al 9.06486902338474 12.44933220452829 10.463486361172496
Al 9.51468314507064 7.622163194985422 9.926682942656905
Al 10.807868723269277 16.499643285744764 12.151660459512636
Al 14.143603247457326 13.170209444171597 11.437600965467277
Al 13.161529980884339 10.550510165781043 10.880979840910168
Al 11.933623928763193 7.820515789234518 10.94801537554548
Al 9.470404902946553 14.022034002620032 12.755342780157873
Al 15.55720189106038 10.769956768476803 12.215185273579465
Al 14.394338224654678 8.181734340274689 11.993708724531388
Al 8.161067493535251 11.455718820018147 12.808710561984109
Al 12.21210552199696 14.312314848761536 12.93644070217698
Al 11.087492174128565 11.74717893540404 12.21904219141877
Al 6.897259338120188 13.593930016121476 13.848564520735502
Al 9.767886537179425 9.080185553808485 12.255568335344671
Al 13.551793090326353 11.924495774248843 13.595404644676051
Al 12.230017040638302 9.338178952697671 13.200725840041523
Al 8.684993690612218 12.588579640630197 15.422403075589243
Al 14.643006477511275 9.409872474244402 14.358033585937273
Al 11.328023200974254 12.871344016356383 14.876640183272443
Al 10.05655331122237 10.278075313132552 14.553586274187628
Al 12.594361202172 10.451672809126144 15.665326436534599
Al 10.483222157423988 11.377664639968081 16.995392404513307
