42
Energy = -132.07141366 eV
Al 13.999796943561563 11.184588976460217 9.120653409767236
Al 13.195566901576477 13.866840725132164 9.82285362543797
Al 15.578443172819684 9.77193886993308 10.947094082576397
Al 14.03684399778186 12.123414936640229 11.611568901612127
Al 14.492439878416906 8.53865034618096 8.914491327500345
Al 13.201126331114697 10.224698182805142 6.732305122440426
Al 12.081958124687905 12.613453626828667 7.741528694017569
Al 10.533358158152003 14.095849943123383 9.572033811283923
Al 13.776580509143798 12.94212571204135 14.052239141149144
Al 14.141502057036732 7.188965831478988 11.55341736374735
Al 12.795217517770821 9.497199583883562 11.061530614639524
Al 11.64075373946802 13.784035558759177 12.323320073434315
Al 11.456859136016215 11.684512514118218 10.295372794041594
Al 13.167154740040239 7.455925561883625 6.871453472875474
Al 10.598597010854139 10.845438213161549 6.409032042829495
Al 14.46573351458185 10.17861139398901 13.344699089113504
Al 9.504478621365516 13.327219348208223 7.171338318080631
Al 12.462958413028328 6.687679538292968 9.299764106417292
Al 7.870938117660574 14.265898380004693 9.516629017629908
Al 9.49573953791088 15.387462884873804 11.648788339906591
Al 11.514209006488171 9.186215305482405 8.506824934612979
Al 11.314018351753793 12.829915470374617 15.008225364501229
Al 6.84769077033935 14.659918736119419 12.049187065298288
Al 9.736696869303294 7.055711285614874 9.04214783907077
Al 8.688175515470338 11.630971178826835 9.040969129723763
Al 13.322050649512246 10.793993504470619 15.636910164703753
Al 9.182381104479807 14.09068435523273 13.972919957745741
Al 9.19249167532549 12.526188577901848 11.671342232421393
Al 11.723151609756822 11.009450393567372 13.070652438955333
Al 8.734410536645795 9.188855430491525 7.784896624897558
Al 9.790628279876202 9.647181800146598 10.51387724429308
Al 7.966403399631174 11.299569660760977 6.289756757528831
Al 11.154515952395723 7.311173952503246 11.489331244575721
Al 12.505863274742444 8.309879571309237 13.63060440661551
Al 10.96783091016699 9.661515922933681 15.505918018864374
Al 6.514739132668786 12.067825808948788 10.787667387978951
Al 9.175843895784942 11.215098525519313 14.345614042869748
Al 6.98122397242301 12.42247944997942 13.512782520624826
Al 6.992181342542449 9.527749336923154 9.786144537528099
Al 8.306279009308529 7.5928070431173955 11.35229594246484
Al 9.807632334902525 8.796196811573788 13.292745563252547
Al 7.7280965258445455 10.161754398257706 12.345300423167636
