47
Energy = -148.88495422 eV
Al 9.006431558875269 9.595613852436568 14.934242429147492
Al 11.155692894294353 9.468385193681854 16.495935121706527
Al 10.164583091021978 12.098285674388123 15.445062202249616
Al 8.972847210090618 7.406944991045245 13.285599047827473
Al 6.977423139815818 9.378100362386991 13.130312669178556
Al 11.357200930791478 7.633596044383911 14.428504950727833
Al 7.940948375564672 11.82059890956082 13.871725418792428
Al 12.787280953793706 11.595924573357093 16.040649699083914
Al 6.006453775903158 9.059987633326509 10.605845433382564
Al 13.638279022253526 8.965986834188168 15.510234054695603
Al 7.112344509170994 13.965274328741925 12.504743693001116
Al 9.245625031683186 14.329739391482821 14.250283836177353
Al 11.50437872336966 10.367367094929225 13.858899041508792
Al 11.055276031241961 7.538801940708008 11.599014956417351
Al 9.39079305939258 10.054443486310992 12.086515251532832
Al 8.403324032731796 7.803010088922986 10.740173017953994
Al 7.081495038108503 11.543844299978792 11.192491707815037
Al 12.180132136044529 13.299548082091897 14.111275902005389
Al 9.993697420182986 12.8583434257488 12.202517200073038
Al 14.072716677309534 11.230068255473855 13.544328416039495
Al 13.391973607602536 8.48515122841884 12.797278961635634
Al 9.05958243193536 15.719374508472864 11.81925955141479
Al 8.259634156147145 13.875650228348828 9.958282790601542
Al 11.878355167089973 10.334665629744382 11.294102805638305
Al 14.876210642325285 14.358225903899157 12.50970894458212
Al 12.81286716022249 12.897398884569963 11.52721151504005
Al 10.885274638069946 14.492646513900793 9.957560362693304
Al 16.000382212487427 11.915637032727355 11.829519401704623
Al 9.788856142893572 11.713368445506454 9.838065176624914
Al 7.959831260327833 9.972310180226952 8.94849770116798
Al 8.042493947091828 12.406043064558636 7.6276768911421975
Al 11.606980445425627 15.287561408122576 12.49596194477678
Al 15.055038363425393 13.414478128739297 9.792941291324485
Al 12.239674380970486 12.197633339956196 8.954752840970357
Al 14.145436746244755 10.824440326056111 10.149881340098629
Al 10.504531256877161 8.97918568064289 9.323645293417238
Al 15.529823431946031 8.798862392516025 11.13209618919587
Al 13.037541956648877 8.152608735369803 9.965511174894619
Al 10.392419590260298 13.674586810569311 7.414430747770511
Al 13.41986084661742 15.458936553625431 10.460339708738775
Al 10.245902408973238 10.813450375915972 7.267709990025571
Al 16.755767858018338 11.010085146767253 9.340121175415023
Al 12.724161699035244 9.741174441604445 7.736090687105573
Al 13.049208910870684 14.559006518704608 7.8162533095896665
Al 14.684283156511075 11.819150411758978 7.6569106306787535
Al 15.196698754966176 8.895768793005015 8.366781817475955
Al 12.431872911042948 12.20981007371636 6.2445988970879975
