48
Energy = -153.17742095 eV
Al 12.045492282479294 6.527539098483145 11.786306066339717
Al 14.4218352083543 8.35835660624982 10.900202849925412
Al 12.39520416165853 7.59865119018186 9.249197232514836
Al 14.301568821907116 7.6740895801206115 13.430853673745997
Al 13.046433741949748 9.657152950769438 7.496976708271079
Al 11.803548059781772 7.079570181020509 14.52973971080796
Al 9.573853508445795 7.797466422554991 13.171407015076717
Al 10.059293585143847 8.186397452381437 10.559649539454123
Al 12.199694537668528 9.137741122681904 12.522391626438164
Al 14.758416954640207 10.310334631808205 13.042919845485033
Al 14.986644458865332 10.387729651538768 9.322030490892791
Al 10.298177157709645 8.869038061624423 7.96474490437934
Al 10.360827738196775 9.52141319665125 15.21944395020256
Al 12.223432207864523 10.238784966957063 9.991409302628371
Al 13.08875210274893 9.375152081358717 15.225845937588138
Al 15.733719415923849 13.158087016628112 9.128836998347204
Al 13.493265292721572 12.317117962261227 7.973403276250125
Al 12.218145667376854 11.684558629947931 13.554419318451231
Al 11.48676323474059 11.835941220798588 16.19966924700613
Al 8.236245406917492 10.66312147154915 7.5795495453433865
Al 7.7449353762401945 9.64237645667139 14.101329060361305
Al 7.677866852773398 9.339765087540057 11.25835759229508
Al 9.91389117296222 10.427241992907616 12.576406729207768
Al 10.984660331675858 11.485184569127206 7.4420849009917545
Al 13.77558106337994 12.222975284147699 11.053124202873926
Al 14.262125154233651 11.611059022564078 15.63955701346973
Al 10.147785029815077 12.995541081172714 12.23086561797339
Al 11.407569198903591 12.811781396641061 9.92839444164304
Al 9.050726724534119 11.940861141487877 14.852503085353806
Al 9.585962113061498 10.878937700569406 9.957472638499725
Al 11.499073751882117 14.221859950784095 7.5222264464924145
Al 7.510019215241187 11.948115695061052 12.458964630555652
Al 16.37577633687736 11.721232626554725 11.403772295760009
Al 7.096168879744561 11.845217092783928 9.792074753713697
Al 15.180545548104835 13.02301719061062 13.52170662970138
Al 9.034566554212658 13.22254520085959 8.374097755349272
Al 12.66963997208715 14.20839989777276 12.515389190825038
Al 10.62248522224687 14.13124315957298 14.778450831762402
Al 13.31971002701977 14.679849449195624 9.50551760767542
Al 10.245801619613095 15.774300471725676 12.418708939762011
Al 15.315941304876544 14.672911061683806 11.308537256986526
Al 8.19645390328861 14.328562316121086 13.527498248079642
Al 10.527704404710184 15.463858088606576 9.72309059592632
Al 13.265324062891136 14.048627205077674 15.341396492548768
Al 8.193972526297602 14.253381291703667 10.784663698078417
Al 14.729372418159771 15.681219254094179 13.755574086344017
Al 12.2194044235167 16.494657093906422 14.107389340224955
Al 12.815843767918237 16.616636218232493 11.36891574555966
