44
Energy = -138.77352262 eV
Al 12.315136706134073 13.025214702383085 6.907187447846179
Al 13.353115177142021 10.471815032420613 7.473290164475332
Al 14.29252337048795 12.584682866562929 9.079879575522297
Al 12.481370502835343 16.475471538805664 11.1008265541256
Al 10.087979634720941 11.309077626596197 6.651356908022951
Al 9.914134839628753 13.744612065053294 8.249018344481724
Al 14.081795063374216 10.027211602232613 10.177279980332118
Al 14.264910054506808 14.441647655774117 11.286077588194978
Al 12.44281962818758 14.553689049784607 9.150279155190745
Al 15.443831207720596 12.039137014135777 11.558018093055438
Al 11.409640594031476 8.918840308992287 6.447789765883846
Al 11.58724221719064 11.719049218151115 9.06635057633361
Al 10.068208723991367 15.369998785209367 10.415126504533163
Al 13.156545864909967 15.640851047667725 13.741905412494521
Al 13.06233742981561 7.950747679610123 8.572283089207234
Al 12.71189814503407 12.159528163344854 11.363010804589399
Al 8.68292091443225 11.388082763172058 8.93823854554872
Al 10.019155817460396 12.683564533223763 10.929137591216175
Al 11.291679906403182 14.127178535509609 12.699077500178886
Al 8.42305079097156 9.094179641074637 7.61135072533466
Al 10.243120086913416 6.995812846791897 7.8103358614035825
Al 14.015888879699475 13.07628129278341 13.712090831332512
Al 10.446000980677596 16.701540671415934 12.880347133778699
Al 8.68871962534605 7.473139054843318 10.014918401351455
Al 11.709567347548035 13.725243715189816 15.379451410888272
Al 11.923221145207147 9.195383685340513 11.687504293993866
Al 11.33178080064255 6.732646465167654 10.37488190606163
Al 13.980304105486798 10.458565230262376 13.109277413381657
Al 7.455076502155295 11.945570976372819 11.406457227574082
Al 8.502675183143097 14.440283534472856 12.395454703431401
Al 11.099478394839172 11.312213622209976 13.273953284639216
Al 10.709745996622923 9.283043860588219 9.198298556036415
Al 13.87893615105399 7.379721047863765 11.104225587149525
Al 12.946177285529437 11.34803916508456 15.529842054288197
Al 9.411317924569936 9.994960042221791 11.403720459782738
Al 7.008150740328229 9.56648652060143 10.01535696523457
Al 9.243852832106755 13.1131557187114 14.605737521152928
Al 12.44008993291947 8.917339105715392 14.65405579525124
Al 12.028483737551644 6.820490143783958 13.05928816717222
Al 7.458297564706911 8.498456527639997 12.494756385862456
Al 8.18504753098412 10.767075083006855 13.85176875835688
Al 9.428527440773808 6.5065510088466345 12.410201934027368
Al 10.275666258916797 10.735660258208108 15.722754484288897
Al 9.896600382326168 8.672985495941369 13.865474156970963
