45
Energy = -142.65840581 eV
Al 12.920587946214212 12.079725135262503 6.679541531686666
Al 13.888500333039431 14.627507461130103 7.69338386074822
Al 11.419441123295595 14.51151125134743 6.728109945299015
Al 13.823636385052534 10.156032035609103 8.386579738643968
Al 14.94749015156124 12.481065170274864 8.781131121673544
Al 9.953992107041902 12.395322683066563 7.280203286572281
Al 11.177393875171665 10.12223114232223 7.854200079700323
Al 12.356928921145828 7.829143816032883 8.404157667623748
Al 14.988390101370877 7.909065443612251 9.354629154834992
Al 8.19412585003424 10.519061781716902 7.920795065453028
Al 16.082795273379848 10.344634703779233 10.18648164893119
Al 12.134433179551268 12.817655777763903 9.169417018252565
Al 13.961837362254789 14.403428005346443 10.603568683304976
Al 12.014190593983875 15.72596484244798 9.292688457796368
Al 9.756227556915649 14.310440376156368 9.22444420220552
Al 12.081896482870487 9.463846341222945 10.529463043842505
Al 7.539052290025246 12.807984843915062 9.38984864959766
Al 13.702716989505793 11.454518701239968 11.048725984944214
Al 9.361733338677114 8.657267167466616 9.450192072133195
Al 9.968964019415065 11.46387644641987 9.967359415755755
Al 13.118615363872067 6.75530763306292 10.835030236996364
Al 14.487837359758126 8.879729174293901 11.921749856527109
Al 16.10200387796048 13.048257723226358 11.259756496772027
Al 7.518466492260911 10.341522663543467 10.645259167152297
Al 8.943265399527737 13.481644418218961 11.659247511047804
Al 11.433818617130202 14.479106627859968 11.634860602550672
Al 15.791884248300446 11.065805832723216 12.955592254040551
Al 11.28503769306689 11.706937499073165 12.371554275145662
Al 6.404566129227313 12.499321567054308 12.004602227351663
Al 12.245139471047914 7.98979693406732 13.091555745336724
Al 10.426247529125552 6.875294107684362 11.111345360325833
Al 6.312214273497631 9.911841826146214 13.007531901467233
Al 13.514066566130658 13.13694057396732 13.14271916848634
Al 9.8515107994338 9.433208259762257 12.066542069131375
Al 13.436624768821558 10.394238632201228 13.940010203377573
Al 8.658881248049607 11.4304579675835 13.296290327151441
Al 7.538143122325395 13.770137798095364 14.145515943412612
Al 10.300123298687554 13.811738300737922 14.022233077390354
Al 7.746106959817648 7.810415623626329 11.779221651144228
Al 6.7837400537831565 11.374536065558198 15.32845995452276
Al 9.790092746640235 7.178353225913219 13.764010153613578
Al 12.095578141894823 12.234332236577822 15.403125462126102
Al 8.316799831379832 9.153689328239583 14.753043514132537
Al 10.862629071416936 9.91527744262868 14.52637093597951
Al 9.41596558743238 11.770871661285248 15.929110420891487
