49
Energy = -156.24936324 eV
Al 17.793163914734127 14.486048761877989 13.095531849584516
Al 16.20093857356059 13.092236171957959 14.823987076769455
Al 16.834484480496194 12.080232224961607 12.259647615601946
Al 15.965593055323975 14.357998290730846 11.063657159756792
Al 15.181729552029141 15.316980946188332 13.402076506348973
Al 15.52866850562969 10.490600837789748 14.071937626525527
Al 15.906691327128085 9.828722866723844 11.26751722124068
Al 14.17071294715993 11.796347429592606 16.02377465946498
Al 14.032445201079861 14.481394758134416 15.677035382242197
Al 14.951894176185728 8.10349842301583 13.059440901379773
Al 14.493790610744417 12.148026628519906 10.649781499611633
Al 13.83480466128734 12.77830908152727 13.417547798865382
Al 13.189028887718726 9.135402675006848 14.826269242950929
Al 13.28093343931493 14.688701006998869 11.518159943874881
Al 14.360531120178361 14.394256050852297 9.004747849762412
Al 11.588198907290552 13.233363341818356 16.0637726236153
Al 12.697721018563005 16.097169366814562 13.84167574164773
Al 13.73056713441559 9.752991426867357 9.587642685503022
Al 13.262512092991035 10.341867186179869 12.309818063253982
Al 12.199265157390974 10.402666763233793 16.95342485803711
Al 11.933010322379953 15.915734865735384 16.497513401571055
Al 12.825743522887256 7.713005800585321 11.589195613686545
Al 11.500541974695222 11.204044635045205 14.320690559625863
Al 13.381218086750073 12.027526126476783 8.12715264555151
Al 11.302092226275903 13.536962150402573 13.074825454305557
Al 12.713641767422837 14.363617175292436 6.860148266182412
Al 10.874200916978582 8.754413996345527 13.245752757970719
Al 12.000591209697829 7.785498073285717 8.970641351241053
Al 11.812735149866128 11.962134912988802 5.888245080577711
Al 11.09673340775442 9.728413279774143 10.72477805739533
Al 10.129684237138973 15.40828598865683 14.621774345752032
Al 9.72133794510212 11.657769572589116 12.179413191188777
Al 11.730873173193695 15.191829210331296 9.314635222937765
Al 9.751294608535977 11.203540028583715 16.768189691480483
Al 10.758803286007696 15.920673143819736 11.824268094558061
Al 11.328855170605829 10.272286925787322 8.021283068602967
Al 8.951293589034766 12.92148757555559 15.020063254351067
Al 11.788274287098378 12.405521800376075 10.512608753502215
Al 10.22197381310138 7.068019077620669 11.162386880491814
Al 10.552296033075892 12.978771198600299 8.03514722104078
Al 8.535707643437162 14.312769849565528 12.768167652226918
Al 9.299240790393457 8.38904121373105 8.977358766205146
Al 8.923119514851582 10.079776620361521 14.375722738699704
Al 8.46567734790253 9.263759708474149 11.721039819718346
Al 9.512877801573728 14.038864848521612 10.264626115210524
Al 7.1533858231332585 11.825417348524638 13.338308687337753
Al 9.06219632463035 11.035671940526273 9.442884675272488
Al 7.359060446993573 12.580064773273017 10.851233563399868
Al 7.81476830577856 13.15318740989724 8.289402253397162
