41
Energy = -128.97088607 eV
Al 8.771486943771011 10.232074307532564 14.838571147286766
Al 7.5059420834158015 8.23647572992582 13.468394709554206
Al 11.358318968383081 9.917743542517961 15.61548551656393
Al 10.253339313396385 8.216346197118575 13.634206331123309
Al 12.60034106310262 7.555105058412259 14.63123328155859
Al 6.234909685624314 10.628692003594507 13.016449822062796
Al 9.024345731094954 7.5883738789400486 11.393348097860708
Al 14.13043556459008 9.831798245424109 15.41798395594908
Al 10.577445930973594 12.051089321379822 13.83424948825913
Al 7.050010098395049 9.398885145405913 10.699648562602043
Al 8.538452610668374 8.335894116233266 8.801534552660915
Al 7.9308586307525 12.553664940627135 13.60981078791274
Al 9.135909017812548 10.396772790435618 12.133371109708431
Al 12.37894987500775 7.262856396444464 11.848115965983379
Al 13.093716361536195 12.213600323632061 14.470920812485764
Al 12.38029641641735 9.84034564954486 13.07931672115777
Al 14.777637477071368 8.233342670347938 13.21351655294281
Al 10.585824010704615 6.660882336298639 9.416300042401566
Al 11.028128146643445 9.275252888923422 10.614587548428451
Al 7.293100989066077 12.061645317795632 10.912535262177297
Al 9.32795317296198 11.013829469574892 9.266025248314222
Al 9.720203350013714 13.111349273471054 11.495718295554882
Al 14.86310166337279 10.96230585503366 12.851637075770757
Al 10.833942940918824 9.042540052707599 7.813392793716321
Al 14.013439519531019 9.353267644159336 10.83511513289987
Al 13.006094937830474 7.733166681285291 9.039460582328934
Al 12.22185517011535 11.93848910626718 11.484299842644878
Al 8.405620947910466 13.743061165562901 9.217708409482837
Al 11.792044602295638 14.372226928723304 12.729947399917307
Al 14.412929722876974 13.622200422962965 12.467237575321358
Al 12.545342488813619 10.7590352375976 9.009299035966539
Al 9.057837085985549 12.895588066605438 6.756478907124342
Al 11.075314366862925 13.144248595781447 8.82568114763267
Al 14.645300056100277 11.938721177094285 10.203705449044211
Al 10.619370689894751 15.443640876096305 10.288325453851927
Al 11.353710287734296 11.406659131918001 6.644982550167761
Al 13.253007823056892 14.365522137701157 10.21220208698449
Al 9.794833011837206 15.46111065336135 7.724846054677941
Al 13.556554987900691 12.884284537444575 7.66423845428816
Al 11.550024620788223 14.029203992328766 6.004089524520891
Al 12.54879451640933 15.49337969223245 8.034092058276498
