47
Energy = -149.37398307 eV
Al 14.7717990752423 13.49850969859924 15.761802664504613
Al 12.528399859454327 12.024553437278037 16.618360202876282
Al 14.421837544301074 15.593566908502206 14.114229105744451
Al 10.057414315373968 12.669888370854636 15.621977386094397
Al 14.395869588298712 10.927683420678841 14.916743938485794
Al 12.422476659861017 13.581258410727145 14.118653079626307
Al 12.774730506134636 9.194012233447822 16.239324855841616
Al 9.924517799565004 14.85881353019068 14.283283212041443
Al 16.814369215174125 11.941575239508975 14.554894717773154
Al 12.041185042212819 16.34750541701187 13.536478691263417
Al 10.29476051824787 10.12694245263524 16.651158417566155
Al 7.806186784597469 12.937574594930588 13.885439598853406
Al 12.84939711398388 11.470131777416979 11.976347130715444
Al 11.665176862333448 10.838084293348402 14.260536564459608
Al 15.051328795454046 13.279338502845915 13.002899905712574
Al 8.958331184857972 10.592016938393677 14.25510552903513
Al 15.60276041871943 10.698155184439209 12.41959476233769
Al 13.40975241444252 8.814274763592046 13.587525231720184
Al 10.586593425831554 8.25657460173464 14.413199131381715
Al 10.250967698489351 12.56486516256197 12.664542707823934
Al 13.501196497058226 15.001122000707815 11.449355765864148
Al 8.108572517258711 15.193518408242662 12.257103513380468
Al 9.65026030188081 17.20616529081225 12.954437790100473
Al 10.730042657654622 15.104809503576774 11.55483142267633
Al 8.793091719864838 8.659882207186428 12.359801397021046
Al 6.263459609724981 13.392531169940453 11.535430692788964
Al 14.738529250961646 12.772258332115861 10.460527409965975
Al 11.410299596425197 8.90574242433096 11.816637406594356
Al 13.989555462617624 8.856945236548071 11.060879108370557
Al 11.82220509855577 13.370094013448162 9.961379850324821
Al 8.837685406953796 13.468168300664955 10.290972788557673
Al 7.8932045329737095 11.20532573529405 11.69462211707944
Al 15.821606757099469 10.405495188949624 9.708282560977272
Al 10.471637235073482 11.050795411046762 10.442925753591457
Al 13.06086113668404 10.85885454979629 9.279886002350931
Al 13.860572105510537 14.715706460971699 8.750383293461782
Al 6.91625312654766 8.92663009514272 10.37233171724748
Al 9.535919550611236 8.525731061810928 9.72858947266874
Al 14.914300631838366 12.363424454650586 7.823240783975942
Al 12.048122164794053 8.141997268717045 9.260383847663638
Al 14.437639676728763 8.418778869785474 8.423391457788219
Al 9.854205090528156 12.730103593175711 8.062398065683958
Al 12.340836558336179 12.88009181181933 7.272726721705238
Al 8.196110819228386 10.800657929421286 8.90832731256207
Al 15.918335259312505 10.027784377552175 6.9521543077838475
Al 10.7195631676439 10.109990248260459 7.743912588930426
Al 13.193993845609223 10.3479857173849 6.648904617078818
