46
Energy = -145.90800628 eV
Al 12.944343168162156 9.308887189416316 15.765085974434973
Al 10.168632235404967 9.322460063308979 15.726811616378898
Al 11.802627839286743 7.533422007910916 14.134324843156298
Al 15.330205257475708 10.455658944169798 15.069656221016674
Al 12.060899891491609 11.922391342986524 15.593868280335982
Al 9.112588546878461 7.5291912289858605 13.948091563308232
Al 13.96805836986531 8.848870160725534 13.308526965868209
Al 10.484329449610577 6.040537889850763 12.266692223841458
Al 9.441687792931742 11.913414291916434 15.034658291847123
Al 14.550767144512001 12.888275450939789 15.670572446812622
Al 12.762756130448837 7.093578487369304 11.565670208048703
Al 11.447507812239628 10.278228101261513 13.49688164614647
Al 16.082111560754367 10.258732564885104 12.498289239002084
Al 10.156531189713837 11.375048004421595 11.265878909177928
Al 10.375859420259106 8.596405055147798 11.558529001949596
Al 13.402790476800657 14.612069019510212 14.12482242286509
Al 14.929266095023515 8.359137416180129 10.793234436213657
Al 10.925322590694805 15.520541796284576 14.4394229703822
Al 13.681545717969717 11.847040192510834 13.150352471728379
Al 8.650094560502405 10.046349871598146 13.233255794891672
Al 12.828587333654346 10.214518943772829 11.169204097968167
Al 8.64055088192348 14.14878527794479 13.75609747477024
Al 11.136708833930541 13.098692613047811 13.200665649293347
Al 16.08677224904243 12.959921650615616 13.419717480504959
Al 7.1595708509516465 15.009970775495262 11.810220191616933
Al 12.408058898359416 12.991774620431404 10.76586955878527
Al 14.65511193792445 14.602671401833884 11.682672639198389
Al 16.783250651849023 10.018790530848092 9.840887698323645
Al 15.17224240901295 12.111174529462517 10.641481944309215
Al 12.304465030708736 8.406573741365229 9.160933325826418
Al 7.847585274831446 10.038326286553907 10.63140661317179
Al 12.05291721843826 15.455100980102511 11.903429208802546
Al 9.699192720028261 14.080515502979138 10.87887582853902
Al 9.563219290082198 16.395903687582265 12.263474383621064
Al 9.828357219157839 9.411352564223648 9.005556345616952
Al 7.466564733427985 12.676020830368548 10.712044493992991
Al 11.761964174295537 11.222777380475025 8.807112438796107
Al 14.321858052464984 10.175800531207845 8.71206429021364
Al 15.770395464042608 14.38064702790072 9.155048366224138
Al 9.139641753332661 11.999272698676574 8.71803959115075
Al 8.136936097623941 16.629586529225442 9.915798845146446
Al 13.264651055602252 15.364174611232054 9.427333091730882
Al 11.203351097649037 13.827098237334237 8.215234096425677
Al 10.768608676926235 16.219687913827997 9.641564062747873
Al 13.745085647748784 12.889637638780721 8.17018054979768
Al 8.582420392003424 14.526977610370558 8.356455401058207
