44
Energy = -139.29565267 eV
Al 16.69836712223072 11.179581436874917 10.689093364187421
Al 16.103885479999807 9.630569240392138 8.519035274462013
Al 14.957351200693273 12.149477196302396 8.656950354162245
Al 16.138033376074297 8.566122873421774 11.116824722352044
Al 14.648887773261416 12.82238445330722 11.400355614166108
Al 15.09465712446557 10.468636914247211 12.88351819409876
Al 13.6688170330201 14.393473103188777 9.395697536492973
Al 13.615018282458879 9.977868621674455 7.545560257220619
Al 14.033964733386693 10.231377084570997 10.359749176108362
Al 12.230689986492404 12.342871177483167 7.735144252373749
Al 14.1884779129012 7.7310595505662105 9.31365886516034
Al 12.813256499048942 12.307349739867037 13.229601785841988
Al 13.75872836032623 8.140463544577871 12.21809587184924
Al 12.06952345785727 12.344287344299275 10.504008680255968
Al 11.099297526354752 14.639382971908269 9.00190529631146
Al 12.938670481234682 9.848633639683014 14.410566564499119
Al 11.954555805051788 14.652716275922572 11.862361552939367
Al 11.881845045114128 7.952209034225286 7.695098275765925
Al 11.441005776647945 10.097700451543131 9.348603444728354
Al 10.276334781783657 10.183764277991278 6.920777299972502
Al 11.659386074244871 10.02334154176092 12.009253042759346
Al 11.808917899737601 7.502722174421187 10.514641499510066
Al 9.657978768932342 12.347616644640143 8.584030606785841
Al 11.374855091861829 7.779535444530494 13.50072691095669
Al 11.295512317276783 14.147237387115037 14.580982171130316
Al 11.634400660222195 11.847590191420489 15.71454021051765
Al 9.579119346821333 13.412350758471625 11.16868800238899
Al 9.812586902978676 16.069573739702133 10.951857104177124
Al 8.006549442372197 10.289877739883586 8.479053430098245
Al 9.615572949169328 8.117338905457228 9.038641917834012
Al 9.247577393921677 10.79332520720548 10.949623425985298
Al 9.468923525138734 6.879050832851808 11.66222985721843
Al 8.35756224080344 14.74941674313826 8.847522126034427
Al 10.063263040758988 11.721212078726674 13.454558883559308
Al 9.12695896732387 15.076887581279802 13.42208749583733
Al 10.29431200224277 9.50162666538395 15.51612363086715
Al 9.065776608479839 9.16149552054012 13.095633169532498
Al 7.10868455323804 12.407562112651886 10.239766990958099
Al 8.807676930399689 13.184647640572031 15.465953072316767
Al 7.307065449841977 14.956272486486371 11.291132888327581
Al 7.548985365859995 8.579946155475863 10.841491351376002
Al 6.598178116324154 10.4658333953287 12.353287786912793
Al 7.779410500126368 10.785877483569683 14.8517735607117
Al 7.507616413752969 12.872976302313083 12.994428836983275
