43
Energy = -135.90375489 eV
Al 13.974359576725279 15.415027384655048 9.616289922008978
Al 15.448607512951433 13.79606645764652 11.187040810641816
Al 15.87038742088564 11.212358911346614 10.179326188968824
Al 15.206889640878416 11.442202633017763 12.817202983986165
Al 14.669760900544617 13.89770914251942 13.985150125781757
Al 13.277589252043267 15.428468922615219 12.321419542346286
Al 11.88965608093701 16.946562454402603 10.565710095685722
Al 15.583108570516329 8.878992047361937 11.712105869164569
Al 13.567229733881472 12.760077613933857 9.36694696797294
Al 13.319216935205109 10.435154376421169 10.96153531649362
Al 14.367362585131843 8.641382856472212 9.21716690277266
Al 11.49004169492726 14.246912538028846 10.442327780159681
Al 11.107104786142886 13.084382869674426 8.113810851904276
Al 12.846837553027614 12.726205852806647 12.142145236124454
Al 13.228239571831518 11.835969754438699 14.845304025444273
Al 14.018233370712819 9.386576198936142 14.084948625014702
Al 12.392986458076258 10.680142475235803 8.112023520734875
Al 10.553645766879898 15.716871357781567 12.667750863566303
Al 11.857325978247019 14.147540972815738 14.374106067483767
Al 9.337167892587114 16.004280247546657 10.267905735327657
Al 14.68837222811036 6.901045561069803 13.619010548303452
Al 11.546090197967613 10.384922483139231 13.051467477074368
Al 7.928588360132336 14.900866905772679 12.287767488376074
Al 13.054172991155871 7.820290754303301 11.773643304506509
Al 11.84002394713273 9.760616261999187 15.924107431794685
Al 12.764522049863931 8.229554713475643 7.102661543837128
Al 8.908953361558343 13.271446615960338 9.998258164461259
Al 10.030381578214351 12.858582255001744 12.502938212726573
Al 10.794243522292902 11.217924859225135 10.35891576276705
Al 11.996379861553514 7.483768050153324 14.290800797473903
Al 10.477619973829174 11.990816948541056 15.217374862011345
Al 11.67424809186909 8.46670706623166 9.69543766157126
Al 9.215870181525965 11.354674522935346 8.00933811889242
Al 9.14448865201907 14.342224045994099 14.656078778773391
Al 9.413232362923951 9.38163534407273 14.55495785970996
Al 10.22220206710147 8.896086657510374 7.486451628681663
Al 10.299810780619733 8.074554951850123 12.176276489956855
Al 6.981584341299985 12.474566225578203 11.99713141960547
Al 7.2974740424726345 10.921688578979268 9.85245745461225
Al 8.841043763371093 10.390803653478729 12.118599232077395
Al 7.9195277013739815 11.69062073724465 14.345844444624596
Al 9.051859080298929 8.882415966893861 9.953816512131711
Al 7.529066854840973 9.246809046592666 7.671954648106554
