47
Energy = -149.01958832 eV
Al 7.128177616872086 10.99968064355435 11.660558840971593
Al 9.620126272332696 13.278606491903805 14.498058622409847
Al 9.75481047297931 10.492964330605131 15.26021774101408
Al 7.544314437302785 11.58915065698577 14.156399346133005
Al 5.984822442043141 10.501889664149111 9.35976558272748
Al 11.133437774100303 12.533777687465722 16.649231346026845
Al 7.4835725243850915 8.506602035247687 10.631061887854655
Al 7.357649806206214 12.920852459804129 9.514451687314898
Al 11.412537374272185 8.921730743465524 13.813773829624957
Al 8.158310512437232 13.61714931739195 12.185762281021622
Al 8.736418423457726 9.15438092841721 13.015833012238673
Al 10.677606121066482 14.88352164672774 12.482292063862323
Al 12.338753498240767 10.024074021997832 16.20462820873631
Al 11.822180917602145 11.689206517027806 14.033256717582159
Al 12.152726543487972 14.334492178430507 14.713727044860132
Al 8.83348705276005 10.60827338838133 9.388278630860201
Al 9.281824333296255 6.773190283662229 11.648221694113753
Al 7.30989248718945 8.877966627137662 7.653348925804306
Al 9.909287201662885 11.539175582897439 12.202409140173218
Al 7.430409122084155 11.558427660237163 7.052035184396455
Al 9.974109190711006 13.475226190607648 10.222185323974546
Al 13.752386502803708 12.450877376651093 15.91917593644418
Al 10.672239175712814 9.187036322917907 11.018306229342327
Al 14.177761124221911 10.02705669882669 14.154025487650022
Al 11.568372028585095 6.747754546479114 10.161645890555057
Al 9.459370043578238 7.820119673128809 8.904905716807034
Al 12.567115874144587 13.274275832657422 10.9836674296538
Al 15.155030830094084 14.677807442941635 14.868384614793765
Al 16.336077967174806 11.237940084997703 12.839088967454607
Al 9.815759099651501 12.563163709026053 7.6016726264616565
Al 13.530341532198959 15.4039291235219 12.616518289932696
Al 9.777701798418823 9.922604623129635 6.860377059134419
Al 11.480799094552033 11.347268913020102 9.426528788150371
Al 13.09046111748114 7.991600652752267 12.101919712761841
Al 12.018788843563307 15.967741558436666 10.37716067427075
Al 14.062682530207995 12.693298691448563 13.216843955314582
Al 14.103417624553982 7.551674415565968 9.56588449666724
Al 11.813469722006442 14.183181585614303 8.366124907594154
Al 11.884040507839057 8.812490353388045 8.31038494039935
Al 16.081081408324692 14.093775532813918 12.342767762789425
Al 15.256583050028146 9.387416238979469 11.19328309109247
Al 12.838008348777638 10.682886489394399 11.68799444250709
Al 12.290668755289598 11.07695335507767 6.764455462282737
Al 14.626761209972992 14.855445543496744 10.030641590887818
Al 13.995979672896178 10.258239011230149 8.91107949702254
Al 14.047447176431188 12.874267176887571 8.307722404249777
Al 15.090379882009808 12.16604502541046 10.634822588468738
