42
Energy = -132.09040901 eV
Al 16.177452912439104 12.236076719786386 10.808974809349413
Al 13.068936614753103 10.490733443868207 8.159506965025077
Al 15.852170711467588 10.753000242732174 13.039461566767343
Al 15.073153206678482 14.669910214269485 10.904339174910422
Al 13.99425862896932 10.291391481403348 10.778924991155389
Al 13.864501784681039 12.75235576821272 9.342120612159354
Al 16.247637742868264 13.561501489947235 13.280564846776473
Al 14.14869791298504 7.864634497709526 11.876079903510556
Al 13.382374744187377 9.923769600558675 13.64466940784765
Al 12.570749477942208 8.312513497601008 9.558497174753892
Al 11.379205826566265 11.603938992565018 9.943947376711439
Al 11.03431801487164 11.823474016811566 6.9624720844065475
Al 14.356517178514627 12.387468830401431 14.931078748302827
Al 11.955025667746302 14.053694930572922 11.244293483209914
Al 13.359509894320484 16.862041568539663 11.1552986900076
Al 13.19544460706623 15.325458436962197 8.979852648549162
Al 13.809761973445836 12.487598739041639 12.296432377421555
Al 10.960066900373459 13.935784626861244 8.533564928824712
Al 11.887625566601724 6.356649696874164 11.306259900202624
Al 12.542479064344032 7.010626894876785 13.927164636354725
Al 14.0133201404834 15.12697422448675 13.377548694262144
Al 10.24213526840297 9.641235681449846 8.379956068464274
Al 10.730485091226093 16.306901131383817 10.208151586620868
Al 11.502930264441135 16.261776551479795 13.028008673911744
Al 8.820480291989762 11.96744937156693 8.442007011485838
Al 11.499767001709642 9.05131551692652 11.90895489209902
Al 9.869099151684454 7.606327838327507 9.995017099219325
Al 9.876459535013502 7.179971991226096 13.11005652348202
Al 9.11968705246208 10.485470477557584 10.833164879636414
Al 11.964506287216478 13.653511055455331 14.07999124761262
Al 12.017310446556642 11.354693265647052 15.550211379255746
Al 9.09635849065181 13.731984110088911 10.484735501989347
Al 10.921853691178526 11.545997041583327 12.621377910878307
Al 9.633840214979262 14.42998494385032 13.018067425645786
Al 7.5361560816488895 9.180233739824454 9.1021643827934
Al 7.768074389628802 7.93633605371962 11.607541316303505
Al 6.762066260316913 12.17955121337922 10.108986278688343
Al 10.968526283483877 9.112074648847786 14.712906982691196
Al 9.590278685162401 12.249894231453675 14.803374261253957
Al 8.006870992083876 12.299917847111297 12.631990199151913
Al 6.489838221221922 10.180015848911175 11.836148960261342
Al 8.711854459652976 9.791594947959931 13.465723060746898
