43
Energy = -135.19787841 eV
Al 14.767376951933116 9.313264555686324 9.29952296927676
Al 15.081718473178158 7.627371957575386 12.193769784964799
Al 12.906625356400767 8.119596496554712 7.861522077589464
Al 16.31018774359029 9.8528267905662 11.37732580640083
Al 12.960869481979651 7.616789341169698 10.479917631511174
Al 13.601000476493251 11.50170724339331 7.612141741528587
Al 10.015706285217576 7.56155931464377 6.959907220575138
Al 11.265914000609772 9.972706129585339 6.949014823541446
Al 11.297115064200248 6.203206537289778 8.907564060820896
Al 14.758403450115203 9.368637194546746 14.329845263344176
Al 14.582356126953766 11.878978284359286 10.19776334126282
Al 12.122523473989595 10.590831620047657 9.654830577674087
Al 12.502371342368992 7.573261885256718 13.108279230368119
Al 13.520981262099117 9.966722092892116 11.97952043984224
Al 10.532817602055893 6.732112836539174 11.461182678730543
Al 15.38857137953882 11.898404579205907 12.793363142544132
Al 10.343917503955181 8.723473034202387 9.40350420489801
Al 7.838721506669133 8.467431490878113 8.518925339596445
Al 12.552190349458265 13.418971086158432 9.46460800118982
Al 10.98151845220806 12.571354597164841 7.48075271497895
Al 8.914609728749458 10.869119618097645 7.907093603831308
Al 9.516229076625157 8.705811045370579 14.14362084917063
Al 9.788080037269221 12.458255404213302 10.005406748458082
Al 10.343799963513623 14.895158797566419 8.509139999328404
Al 7.535671915521782 10.656940459937385 10.08830563896585
Al 8.40285634458362 8.35009070375789 11.264827154509806
Al 11.722684666555454 12.213385275659403 11.83657678558805
Al 12.03266171716812 9.591477898381966 14.764054887322297
Al 7.736530127181375 13.317473755943698 8.438834025995375
Al 13.75500214895825 14.050531286044437 12.0301363651233
Al 8.183257661416897 10.65818261271579 12.756375127965194
Al 10.873253385824547 9.578411088631716 11.907776745492804
Al 11.255531686620664 15.032788915334136 11.146511518345207
Al 13.15040913347296 11.965776199025811 14.12431266356382
Al 9.312612639172118 13.308891377160084 12.46300765680527
Al 8.480578172884027 15.01618483351864 10.43973666865232
Al 6.893633986057368 12.905248349675677 11.204161896759421
Al 10.28054279449671 11.58568165100556 14.303627391422125
Al 11.623733313449392 14.171869203372163 13.87175972383318
Al 7.05475003163452 12.60546045770433 14.041204982009429
Al 9.734806844484797 16.029873623210253 13.043112466995133
Al 7.224221715669738 15.086103481931277 12.934085112617536
Al 9.133273491971314 14.160665820125342 15.035223130487438
