47
Energy = -149.49435274 eV
Al 12.631797125208498 7.261174474537147 8.526529814817616
Al 14.542122136050706 11.211629743862412 7.084948982244198
Al 12.463900564156836 9.407847922454277 6.814912563444355
Al 14.318596688374594 9.341003417370157 9.010945032728845
Al 16.007136711480886 11.433192754386353 9.363992307262176
Al 13.395754875914637 7.924611019770292 11.013620575427701
Al 15.3303653343558 10.069669752443273 11.586212204701232
Al 8.97517498226689 8.99499144888608 9.223056799290749
Al 12.038729908935233 11.88456601650627 7.931475761257207
Al 10.78536878616038 7.227589957494143 10.556757885197218
Al 14.184386634868176 13.599932406476334 8.194623728123933
Al 14.67638609215807 7.898973911901299 13.312631819727965
Al 9.980674565441914 10.303307753827566 7.222646762613254
Al 11.596796851376558 9.686005790355283 9.496725075172664
Al 13.251070957257907 11.587723780203104 10.409050774815773
Al 15.214831502938084 13.647205957320805 10.652157747263365
Al 9.54217369418049 12.875651533531883 7.646270583287618
Al 11.944844036708144 7.4781055861793835 13.30188674195061
Al 14.299920598847626 12.409930119212213 12.885714028029163
Al 8.064318658544245 7.176894938721675 10.9713191382394
Al 12.842304884646044 10.032101875559297 12.764478632645396
Al 15.294380609528888 10.314343835266788 14.361548113745197
Al 11.721683210585967 14.528917521592357 8.134801698628548
Al 13.12773198497335 8.82568587214781 15.385642742939735
Al 9.421929967863065 15.611775984497918 7.269892987497883
Al 10.178561257651944 9.55697447143655 11.776923563350836
Al 14.464622666488289 15.244481667724799 12.572541920287954
Al 10.464602208710755 12.298504997329088 10.271261468124372
Al 7.911949645000273 11.691946623836353 9.576797648161557
Al 7.607667557434202 14.348519733353092 8.764411818374201
Al 9.456314542094114 6.911983287598235 13.164237090070753
Al 12.407008645634903 14.21014124381576 10.957451804749828
Al 6.991859862623461 9.627248046383217 11.008730218758355
Al 13.013649990653391 11.49562110344282 15.099282773231923
Al 11.143719144252515 12.229937583878451 12.829981405921664
Al 10.704459962132614 9.81642662441265 14.49631653330217
Al 9.96134048990812 15.262383113149017 9.962184341765079
Al 12.526877453160685 14.201979183629206 14.078713053187224
Al 7.971419365115799 9.111186316338504 13.484567500769062
Al 7.959742278766853 13.949379056995307 11.315638942496305
Al 8.518553354895174 11.55489147396055 12.275911738644169
Al 10.302180725708853 15.047819278280434 12.51169652844333
Al 10.75289437896091 12.524622429275299 15.64423486952842
Al 8.453685689453254 11.245936858229411 15.007930755810914
Al 8.3224362863845 13.702583112668641 13.857120359685482
Al 10.232821672322025 15.124171575870994 15.165598699217494
Al 8.458454179655469 13.567631563719878 16.513827184900457
