42
Energy = -133.01414246 eV
Al 8.40457617904329 7.862367067271427 10.208966212825922
Al 7.299412634097315 9.295054789652566 12.143358798449828
Al 6.546833903873825 11.429034377829797 13.561281924533672
Al 7.937329244508871 10.632656640813131 9.8888031778581
Al 9.262715674298851 11.996329354109896 7.907512732730458
Al 10.087260737096996 9.248062471354206 11.984752750047903
Al 8.665652615539623 9.851728711674582 14.477802578225637
Al 11.072697145327703 7.392163447546675 10.200809415285466
Al 7.244716069941631 13.937901737223832 12.59490233130001
Al 9.806553205068047 9.321391355104849 8.40008038129266
Al 12.158960745715508 8.25292742320697 7.909849469395234
Al 11.210701269758458 9.11230517389898 14.486172512383025
Al 10.56693500303839 11.316442003510371 10.279801072682313
Al 8.51158595372713 13.307635005050706 10.20840204919138
Al 12.479386275807874 7.906330881078171 12.438434926848773
Al 8.355948714105189 12.44419458623451 15.317578342809082
Al 11.792788272951022 11.241479999990363 7.835143639541704
Al 8.95678089994443 11.746061631352484 12.374147087844477
Al 10.829528243997569 12.048360596425743 14.272179794388585
Al 10.910281233906735 13.82600869111646 9.049474215172722
Al 12.728301004607355 9.55726613290232 10.264444313039315
Al 11.179279823342917 13.388300209764518 11.849603948282644
Al 13.029962215643613 12.25913486997374 10.186449240908491
Al 14.186666448255954 9.976354636039176 7.798160816062062
Al 9.41271825182053 15.546747218727628 11.401272633833566
Al 12.626291104713024 10.736578239854047 12.770646490095602
Al 11.869409030347756 16.04438278802449 10.468022368907647
Al 10.202826795713776 10.74996268815856 16.596370660496117
Al 14.135570134755346 12.660554423568875 7.414976646810564
Al 14.841532818861811 9.255511097626089 12.299303794156616
Al 9.579492740788568 14.482705547359728 13.944751554754065
Al 12.75997449242167 11.02853107376779 15.732686186299699
Al 13.8475831145242 8.630780544662288 14.755608137792038
Al 13.2365943007859 13.169956680649847 13.911438665246122
Al 16.53042306256498 11.391002800176246 7.787472003391956
Al 13.871962121614647 14.542774864393 11.538633251915028
Al 11.9211278515251 15.545381150941289 13.279447560007744
Al 15.580075142739808 10.466964496070181 10.100585690170812
Al 15.163522523021463 11.062672708713237 14.522264229706257
Al 13.399782649874815 14.776504872429452 8.758824989450032
Al 15.02389896039153 12.159207055500536 12.16265951988921
Al 15.590819357473416 13.21874792378638 9.73538185351412
