41
Energy = -128.19937957 eV
Al 10.487564217061736 12.717585805495801 15.257792534007384
Al 8.643196403200024 11.547593183887356 13.566477470059757
Al 7.870458497948226 8.666805734018535 14.059624687769189
Al 10.120855917666729 9.762299135919928 14.93501304543989
Al 9.972742895643806 13.65981957772115 12.587399551278633
Al 7.188192133653553 13.335049727724096 12.04242638594121
Al 6.96514061933068 10.107664245967124 12.091448105565895
Al 12.578803480034296 14.531185099184853 12.386157495729485
Al 13.374820042659833 12.989924024878617 14.445605215623374
Al 12.432613111497885 10.799412855811402 15.640455470020179
Al 8.999015632353247 11.81353711442992 10.615374351274356
Al 10.087434057245263 7.184525354009316 13.669431207291396
Al 11.55060589051054 11.434302347384236 12.994045445742076
Al 9.928142425498438 9.51949323569487 11.983994256644712
Al 9.358545318141644 14.594010241369237 10.118580799131665
Al 6.264431579057113 11.575254554864175 10.06579477126838
Al 12.283595948115625 8.693133316175409 13.80639699645084
Al 7.222127693339225 13.741848807082125 8.870685311906096
Al 8.24950718106064 7.387509815908187 11.590698196194541
Al 11.599371314015375 12.602986447465906 10.389343920581101
Al 14.256268521474682 10.455198464891017 13.64209327245699
Al 14.221530288371945 12.435633811849021 11.884848605422555
Al 11.457647055155302 15.161350799700957 8.59860181118794
Al 13.678024979853516 14.330558196768788 9.917779872889058
Al 9.65714462335417 13.330138208100475 7.70807538722962
Al 7.99826984852048 11.284491144440672 7.881124586070381
Al 7.990376153625518 9.398846958881288 9.76654887367933
Al 11.729902978767564 7.405587620279288 11.494891111046964
Al 12.716101166286128 9.985854644620554 11.010591267751096
Al 12.263172660299569 12.793037022304356 7.677909499182444
Al 15.438213249072744 10.129319317063624 11.195702516581468
Al 10.726536175964396 10.354950217911483 9.032823843546073
Al 14.415331957589434 7.916818878741908 12.342438542023466
Al 14.206646256719766 11.757948663568481 9.297426247383775
Al 10.442817648564867 11.066897247988544 6.403432337215781
Al 9.82745156923191 7.5495539108156855 9.406178737905364
Al 8.79743515653081 8.862391689017263 7.2182883500500195
Al 12.54882459014719 8.12969262248647 8.94833016639677
Al 13.149104370800083 10.330331018509007 7.1411953801844765
Al 14.937959161188935 9.193058297741295 8.784631376577122
Al 11.354187450110567 8.4676018353231 6.4955028250318465
