40
Energy = -126.08711951 eV
Al 15.489664932200743 11.275340700257592 13.710520354290994
Al 14.19979616919758 9.201919475809918 14.887590393033268
Al 16.528473147181863 13.145907842165112 12.122315662596117
Al 13.103911092892547 11.861380321001588 14.901415585575196
Al 14.352276525750371 13.87377086897054 13.598306299900964
Al 14.360080757955522 9.392771212018395 12.134127835567474
Al 16.64044651738888 10.524663157208726 11.167086591332701
Al 11.643044955766394 9.634115633960569 15.4739567272246
Al 12.316936121082662 8.014218479390935 13.177490249265794
Al 11.738914525558306 10.706616259603658 12.879064523103086
Al 13.747337850386787 12.015679805398815 11.648769371012738
Al 10.446678220408367 12.049046359933767 15.380890851338982
Al 17.108465007644035 14.89645759652369 10.186261321015976
Al 12.328748111888537 8.949464099652673 10.58604494682923
Al 11.679054111309538 13.871282633701806 13.918710406942068
Al 15.874209476431322 15.990389466433982 12.425229864837068
Al 9.047717283478846 9.881149980892276 16.25628326255461
Al 14.452729079337583 10.29587713863903 9.474270146880947
Al 16.009479741421615 12.537673890262658 9.458822987602565
Al 9.638670023657042 8.778586166378977 13.84659545417728
Al 14.380837716733591 14.484245636253346 10.678975647147967
Al 10.196158645870716 7.476165648251689 11.57805309302673
Al 12.871683855631249 15.861932374005898 12.53164941003744
Al 12.291890356008443 10.135367923284262 8.001396800959661
Al 8.90470546347666 14.051210763187564 14.464187106203626
Al 11.303489081281777 11.436121452871555 10.278850728037693
Al 8.252914057890163 11.21010996037707 14.002327237004334
Al 9.80831085528947 12.673304859766093 12.256955460568575
Al 13.355225363585914 12.701051751589194 8.833393039751947
Al 9.269833328232247 10.120277074062333 11.553987043509112
Al 11.793012923914898 14.086579807436577 10.561165163686221
Al 10.222033519434744 15.462497634253836 12.284345420074791
Al 10.067502435525084 8.876706072484417 9.205918545371016
Al 9.901594281032677 10.295512098301923 6.798869971204184
Al 6.431727880836366 13.0958915447553 13.483972618440072
Al 7.748033025270969 14.736903385876767 11.865426971963814
Al 10.811046021342282 12.741476323274526 7.937069463683501
Al 7.287454840309248 12.085665243587814 11.124909494323472
Al 9.203645615165515 13.857091433471252 9.81983377469025
Al 8.735651139894223 11.25896198236897 9.048344232899032
