42
Energy = -133.9117898 eV
Al 8.379143607717689 13.347777723664255 15.482547043702517
Al 10.069705481755683 11.510594391548814 16.55358092983614
Al 9.246439011714154 15.15892841643509 13.559056307821647
Al 7.32094206911675 13.050628413221244 13.029921488580461
Al 10.985716426764885 13.360889056238399 14.622345585084874
Al 12.68067337821983 11.568700134104073 15.767181689219688
Al 9.08516379086664 11.114598536127136 13.991653219053513
Al 10.784152801293008 9.313819922880896 15.09444115743535
Al 8.251803370771492 14.970064134852938 10.994701838453096
Al 6.461426632457018 12.971803288910952 10.486980712736592
Al 13.623155057302185 13.412777476171815 13.887865157985347
Al 11.779565182624717 15.185122709954033 12.681281316664926
Al 10.017256489158772 12.988302215176443 12.028385579941284
Al 13.422141577669553 8.944705585717166 15.664598633065795
Al 8.125370657483936 10.9075901239179 11.521715016127349
Al 11.680562049627632 11.174684042041282 13.120118027617773
Al 9.748078567059222 8.87297156045364 12.532695647270073
Al 10.776478267789031 14.879176922950148 9.99697372656352
Al 12.781555132200985 16.66088795496836 10.619040453071891
Al 9.054004487530921 12.84044908376524 9.407689252742712
Al 14.310103064036367 10.751607947119597 13.754188468390144
Al 15.049420545296122 8.078293009666591 13.669761415339039
Al 10.676906960516947 10.837993033279798 10.448883913669237
Al 12.410648637479836 8.534489105736357 13.055077187350431
Al 15.167619753643754 12.358102143053642 11.813782144572103
Al 13.26829333911808 10.34696790510185 11.107130583264608
Al 14.46971888639286 14.930276392809926 11.78550420140017
Al 8.78582996401637 8.833000632978642 9.98363037658803
Al 7.151789279577983 10.849204282523003 8.96715922611289
Al 12.570031768036113 13.002096738889598 11.091570482594758
Al 9.715425483854286 10.738509067346476 7.880826932704192
Al 11.520971170523316 8.152741339207832 10.439870999457131
Al 13.414292337366659 14.588598294286873 9.018559657738148
Al 11.560336897238475 12.712675514013853 8.30592051238722
Al 16.00081425742388 9.74462549043601 11.776199197783479
Al 16.745997278018656 11.294912904409307 9.70594209304839
Al 14.08304233310847 7.700841223123361 11.085986615669006
Al 12.388903070637447 9.980696793401798 8.38495540014034
Al 10.394157594331531 8.132471519049878 7.955349625602196
Al 14.950482379825806 9.347489354799817 9.046025746392386
Al 16.025778161052763 13.898160213257157 9.719184255903432
Al 14.114423587575418 12.000096190604685 9.010038969114177
