47
Energy = -149.04045264 eV
Al 12.104210918892294 13.617110087276979 16.208121293338518
Al 9.489599510263998 13.201745578035576 16.142427708243307
Al 12.030671792287777 10.8423689909638 16.02248642973929
Al 8.448897900897144 13.3013273569025 13.605958008106915
Al 10.374518922513065 14.950230995735852 14.318701238157212
Al 6.55561518851709 11.911626835442075 12.495768081833056
Al 9.013592069610688 15.497762423114361 11.823246275264735
Al 13.160165173965984 14.941931096278074 14.083872627093058
Al 9.275040088563697 10.805878293381385 15.05206452212803
Al 14.009410486574376 12.380875194163451 14.805216318239047
Al 9.940426981420726 14.349165386026957 9.252991189328153
Al 11.56123212115137 16.93129550638974 12.884763666148073
Al 11.290224148331518 12.31352530796205 13.81444848277679
Al 9.166373104877543 10.970552101911164 12.30422084184762
Al 8.025911915416 13.046562270188579 10.661396647195103
Al 11.159273844056058 14.014498523258526 11.792333711950267
Al 13.873371756785547 9.67724731921312 14.32279370827488
Al 6.7949666078484015 9.367922879496211 11.81497552101205
Al 8.66817977776531 8.542637171604817 13.561629026880782
Al 11.308753561861709 16.318897446546305 10.224383503085997
Al 15.675239666405021 14.106668610098382 13.447847673196627
Al 11.203367196855776 9.454313533695801 13.730089147848435
Al 13.624836992771458 15.638046283918849 11.451631137958103
Al 13.045601720834275 10.432578084197235 11.798517002098091
Al 8.161485012376568 7.255515256460306 10.972940778315966
Al 13.530561363623207 12.961739809349682 12.091927535545024
Al 10.522278552530446 11.79737344384622 10.202612622652648
Al 15.581591696454351 11.426694193375718 12.799447050980648
Al 10.425147753439493 6.796151180384153 12.540249549995048
Al 15.736520283948847 14.071525359477175 10.739487396698776
Al 12.853753639932668 13.768934554865544 9.574437835825368
Al 12.97279414560668 7.795503727332579 12.574327416725913
Al 8.326216728886509 10.014249269353101 9.709891245901812
Al 10.744667362215456 9.1671239840272 10.940263543768449
Al 15.468074604751108 8.868584601460899 12.240241093549749
Al 8.571468473786341 12.236297126353122 8.095170335492131
Al 12.607509737368071 10.620020451971756 9.136056034507208
Al 11.268005972161323 12.556065451444075 7.639651269238835
Al 9.767762743209952 7.67230462659919 8.880658897442991
Al 10.206352348315527 10.071348873405368 7.755874649849035
Al 14.952212473981838 11.63375667089657 9.999785883180015
Al 11.909233647254267 6.747929895226969 10.228211663357126
Al 14.074280617374084 8.394438961133904 10.057758699838082
Al 14.034079138542017 12.481371930356069 7.451022740424356
Al 12.33514650731991 8.12532644249756 7.8283742891889725
Al 14.838794079593267 9.74367769434837 7.789760260942686
Al 12.54081976400093 10.417126055592124 6.363574051565281
