40
Energy = -125.19966959 eV
Al 7.141109245264874 8.98550775771764 11.904457601804111
Al 9.273464354312338 7.998633572487231 13.322135259394178
Al 8.015631988023172 6.684406428261812 10.927777784741647
Al 8.693737550561552 9.52199935872293 8.418689323015984
Al 8.241278192803987 10.6445847646752 13.680956499911888
Al 8.17520849000886 13.096347978992018 12.56860675231814
Al 8.14097697815796 11.146769558488748 10.702111748693621
Al 8.659944180083453 12.48570763977388 8.318654100093674
Al 11.926662786741439 8.32396314721719 12.693829784712253
Al 8.466594585124318 15.367268313948188 11.162663823058633
Al 10.531807609961264 6.169874513756658 11.614703423837877
Al 9.906725508444898 8.811668044361909 10.811373290860017
Al 9.844050418338695 6.793561576234787 8.926270725145296
Al 10.467516068985962 11.023883351725301 6.813350062596443
Al 9.938803308933563 12.414665523732387 14.753147568770839
Al 10.194448445318102 15.533397113245112 8.97239476594876
Al 10.24207291979052 14.731895769487172 13.131019886776569
Al 10.658567075046475 11.095384827907194 12.333603511371361
Al 10.763678746036897 9.734648650695771 14.756970807296772
Al 10.666437719433052 11.091713275006652 9.529325908788309
Al 11.54358579152104 13.32623639481067 8.274723637950315
Al 11.429483377393886 8.78406107674155 8.237840658227542
Al 12.717792384398848 10.03964484170807 10.63233532611016
Al 10.242058402867798 13.389457202009956 10.711102787406508
Al 12.474402825170479 7.173134344039959 10.21666622960044
Al 13.828685386703766 9.28871092285754 14.266437837025817
Al 10.926771181256314 16.7275623078479 11.385086660171511
Al 12.642282553195896 11.648140463864944 14.52917504319929
Al 11.978878261687525 14.204960427192688 15.075034138432608
Al 12.388175661271946 13.176511764806104 12.331608524888852
Al 13.068267501139905 10.908482613014927 8.000187335769025
Al 13.764447737114377 12.628259047293797 9.901167419525509
Al 14.300948621495172 8.43523283324955 8.758169437717797
Al 12.937716185632183 15.750727869296059 13.015064987005116
Al 12.619901082369378 14.976217991617059 10.23188754067418
Al 14.598684517584436 8.63837076072485 11.743610660543718
Al 14.515280161515756 13.65978106254526 14.196826382010466
Al 14.425478542929048 11.4216311489416 12.36932642371894
Al 14.93995523547858 14.33547228324275 11.648017693018303
Al 15.454636473465328 10.567108182988513 9.862440817369015
