43
Energy = -135.80038253 eV
Al 13.955476330677019 15.17198192151311 12.683356973407612
Al 12.613864370603334 14.368451091958411 14.718837847704707
Al 14.025494954879802 12.44805865405562 13.224616097343995
Al 15.674359697664164 13.457910926046964 11.292189129561471
Al 15.064206905080706 10.38273214961374 11.877500832532428
Al 13.587335914936196 9.695747914034484 14.139164849357307
Al 11.13776455514304 16.015164204619833 12.904923034371356
Al 13.308934692792114 14.792833799204205 10.173462431632098
Al 11.885220916773337 11.75098983244048 14.724816895630605
Al 16.16879161871413 11.337093023985537 9.458575199541128
Al 15.007060145322896 13.572204599189748 8.522557733898328
Al 11.637982818516466 13.439740449635627 12.308992648541413
Al 9.975064231717411 14.055814207646582 14.900249568009574
Al 13.568015061383731 12.054082267775007 10.370915461718798
Al 13.249152737836537 8.370050468719763 11.720173809572879
Al 11.932591945920331 10.82926840757049 12.083716379939888
Al 12.297196762205523 7.0803738350663625 14.006629242804584
Al 14.384579125053977 9.25120691305896 9.395861953508538
Al 8.937435259861354 14.301370574267063 12.421018440135207
Al 10.64552895860192 14.965398039094119 10.242837485167415
Al 12.009285126366455 13.093461391511534 8.382805021259326
Al 13.889781295275672 11.226949151780437 7.685208478738736
Al 10.010878165341182 12.314751654355536 10.419838168796364
Al 10.666212035155773 9.343715696778526 14.039606731657312
Al 11.76658099806709 10.311887860942143 9.391539018061549
Al 9.469571278381926 11.783844469756758 13.504598035888435
Al 12.278663591298706 7.515911177740409 9.2025686041354
Al 11.61930681098967 6.161607986186875 11.453232228454628
Al 9.519965876727406 13.958030148316286 7.997507160326678
Al 7.797884523113882 14.453955948532675 10.056428418556614
Al 10.52991429930275 8.6893677115407 11.283023120635315
Al 9.55184801056508 6.910473126143356 13.106166266265
Al 9.872240345561657 11.238394892569278 7.755351432735914
Al 7.475833754147715 11.972287812603525 11.61503104036719
Al 9.312454145674934 6.425308171007214 10.230163259854582
Al 8.613057864830017 10.022547016833698 10.110434199480979
Al 8.299975724004728 9.498320491366739 12.76838031314563
Al 9.879706729790302 8.41757747410479 8.366004084533053
Al 7.49143996704932 12.135650100117807 8.804940118001001
Al 7.182474362004015 7.197452579021682 11.928204082263537
Al 7.539019689628095 9.804245262999018 7.555661473765734
Al 6.069093317853773 9.546817840643769 11.112787100206713
Al 7.252328529385037 7.815662267390066 9.233011909520492
