44
Energy = -137.84864607 eV
Al 15.54113111100034 8.726328844659491 11.313288505291817
Al 12.276209654433394 8.268586775066284 12.265751902912626
Al 13.470291782933538 8.462262220130482 9.773889192006935
Al 11.023155553270016 8.396417130358468 8.832609115060023
Al 14.21082624274221 10.044224118657251 13.187537687144104
Al 14.45367391821418 10.924717452780017 10.26587146847663
Al 11.52989555411151 6.4173752519935885 14.115067568143102
Al 16.453141525535408 11.136380797546025 12.038595200917596
Al 12.76552895929106 10.48408353232926 8.124987260256713
Al 10.635236655177719 9.954710131957835 6.599255467178739
Al 9.971450442989484 8.574315605309994 14.128842595330962
Al 12.68531906934143 8.65239931715494 15.062594639498768
Al 15.986203417307129 11.744065485149106 14.534450469102142
Al 9.69607114322606 8.772636250344972 11.164482777063954
Al 11.666016547827926 10.75782518396612 13.391324107966774
Al 13.03785008536009 12.928827784926844 9.453024364919846
Al 15.584845144361072 13.40663415409146 10.469424701790011
Al 9.48148279370725 10.650657418309672 8.845591340424145
Al 13.347018084408896 11.46947826343455 15.451614437066805
Al 11.122938082766002 12.497531805997244 7.405955449679145
Al 11.715636221580407 10.680840956417432 10.739512517439875
Al 13.534122092167562 12.662798151605262 12.453681654814774
Al 10.255551032189864 13.079045763902926 9.919081927580757
Al 8.811060731617731 11.32472432273072 11.294333609482736
Al 15.29611589700167 12.713577022038457 16.8766291312372
Al 7.63708553483507 9.387133817560466 12.851553265585219
Al 14.09975821863362 15.630749211056404 9.523077886991706
Al 10.677632849005676 13.077540995290418 12.618689408276644
Al 10.8984460823834 10.399442123185327 16.08145688620211
Al 14.694655185913406 15.30579095617182 12.331479462977267
Al 11.560700772500361 14.975049660920307 8.397606105372383
Al 14.819064778462245 14.124173930934477 14.629438927161338
Al 9.157944735048078 11.208013482670045 14.206176205496531
Al 12.964246445656594 14.034398475644892 16.66089880865576
Al 8.297148127775351 13.988725032334521 11.605081405788138
Al 6.882509234050317 12.0817024175073 13.073865201095577
Al 11.910942356168004 17.281521828991156 9.779448136736008
Al 10.867854875963252 13.066924409986088 15.447817640074957
Al 12.399404958301838 14.92035948675799 14.00654337082155
Al 12.142554779096615 14.965772214180905 11.306713084556742
Al 10.05553411145506 15.750096231821994 13.084617913980436
Al 8.565493674496668 13.892543653871655 14.350623992014397
Al 9.74625919109668 15.81941414719084 10.351046674841541
Al 16.5732158998333 15.861427736302817 10.487692085824522
