43
Energy = -135.26118901 eV
Al 14.480455599301761 11.79484741504977 10.21669122036856
Al 14.211752880968254 13.978801264840547 11.911022405185243
Al 15.309762274311243 10.197961478489315 8.121436245951564
Al 16.247415644279652 9.732755128611013 10.92369874029022
Al 13.05702797399078 14.229099105358062 9.444904460810664
Al 15.58949374227813 11.722585696774235 12.741983942949474
Al 12.934834749254161 11.831288000992554 7.899340988580912
Al 14.915623787978356 13.33510203774349 14.744173034361912
Al 11.43963081693794 14.644934866800522 11.611717446284418
Al 12.264931672846526 12.102952051554439 11.990634875070509
Al 12.72464496833788 9.109574042286676 7.581545035822233
Al 14.095306174084916 8.334826062183382 9.762334736153413
Al 11.87066613736588 10.105657972543316 10.125709614555438
Al 12.410260527175183 13.982626960966883 14.075878133261805
Al 10.373065065109108 15.095549682335983 9.123557651754506
Al 14.894828682257666 7.298799280618867 12.070936881223945
Al 10.769190725020877 12.517139408475197 9.745188324171762
Al 15.692074916578267 9.203225667584162 13.795672045197131
Al 13.744011119580755 9.84036317279595 12.006187742949972
Al 10.78715322500362 13.26200624220511 7.208937900248598
Al 10.410369099115691 10.443573115757076 7.85810016325045
Al 13.309508162927807 11.050068750691475 14.46495352549893
Al 8.798279432125213 15.639603202890925 11.233197710377697
Al 11.053394309034637 9.932448777624918 12.78056600058887
Al 10.771068851504541 7.864408933811299 8.928220111542272
Al 8.302703967351716 12.037723834657589 7.545068821469316
Al 9.238649754410513 12.857130206143442 11.884777780300453
Al 10.390346775206973 12.031450199130662 14.329809967239397
Al 12.98351299215025 8.27310698824478 14.1183517419328
Al 8.812515692330937 10.856971839833424 10.157295094099737
Al 7.78835215847835 13.59476030145855 9.605837229034796
Al 9.803018321539147 14.740291822883881 13.804901771799763
Al 12.038799645451803 7.641613646539712 11.539204485961006
Al 9.32989718473062 8.352655776437668 11.323048755060844
Al 6.32921250043917 10.781823858854905 8.803506330378209
Al 11.020166781397545 9.615199210049726 15.499146917590439
Al 8.360058194264983 10.413287504610123 12.973461533293968
Al 6.726418082432842 14.289640317756728 12.161937697356047
Al 8.200916959952679 8.784326446690962 8.538695360721306
Al 10.240435805047921 7.609896513838335 13.829112187304272
Al 7.72294975159486 12.764131155144753 14.156069639868337
Al 6.4760749176989 11.807106122312332 11.356389212180115
Al 6.804668299286864 9.12560425659078 10.984270567137564
