48
Energy = -152.5231003 eV
Al 15.524617075930713 9.12189782057418 12.971292150952527
Al 15.572408143244122 8.303099864383352 9.078327729425506
Al 14.425051736842484 7.109307532737258 11.304171864542006
Al 13.887289756131494 10.692713212833121 14.585717918690175
Al 16.108882176837234 10.899605375301789 9.742117970453814
Al 15.468727581968302 11.77954638600746 12.296927873430548
Al 13.023719658108913 8.21398313451773 13.499682106890853
Al 14.807095174348206 13.249252857231522 14.506333443063399
Al 13.926636274176289 9.694736425531248 10.902576278762034
Al 11.792816396937917 9.246264173428441 15.66409799794685
Al 16.23935597624241 13.621988556015005 10.018979391322608
Al 12.890799608933605 8.090259169631736 8.734025634685858
Al 13.989521656891439 10.455872547055035 7.9752249528227175
Al 14.860686977472614 13.002258280351143 7.7112074882082
Al 11.613125953475116 7.9138371478974285 11.145531850987437
Al 13.817949477936832 12.257728105876568 10.19804417446615
Al 14.691100422704993 14.496750071277178 11.997442756165421
Al 11.690514433526435 10.380882373539508 12.549369556113886
Al 10.242423647677242 8.285910688985874 13.492744852441675
Al 12.791010672555462 12.704185514766467 12.748546539098651
Al 11.382950116120295 11.889171529916892 14.9806514682636
Al 11.693629167024504 10.453186290929203 9.716283022820159
Al 11.513121919543458 10.001876048283139 6.94610810321996
Al 13.43472845686615 14.78361933313127 9.282197974582532
Al 12.885875780956784 15.11161910723031 14.084997697904189
Al 12.116312377658238 12.626448944851138 7.9819544625640235
Al 9.203854531415033 9.919509094927369 15.499867171711044
Al 8.92465513608514 7.3036449227436755 11.268020676947376
Al 12.016903430846945 15.438799238994612 11.550568990577368
Al 9.299655089255694 11.328224303433814 13.217871634343886
Al 10.81676209572309 15.206446626984796 8.93745145174836
Al 11.32656745029899 13.03598922819269 10.535511135744192
Al 9.57331749420778 11.430402357876165 8.219209400449872
Al 9.286146497300567 9.98946099179889 10.85852899382086
Al 7.699636511175358 9.025888417459964 13.172136918220591
Al 10.158512796073245 8.248219961761809 8.831052087017525
Al 10.396914571145892 13.938289194220053 13.199047366329603
Al 8.996720579486754 12.97588889498659 15.501522936502338
Al 6.993523806781107 11.292675498636846 14.721923076060378
Al 8.88066356508368 12.6323756506157 10.980983253271276
Al 6.778034458196157 8.900222737865665 10.533104150340492
Al 9.038699995648443 15.415496540393187 11.151814432219952
Al 7.788230840171165 9.199168265872874 8.007606743304603
Al 8.422975450535954 13.89733959772872 8.657728338888917
Al 7.721463446867574 13.76010168545464 13.179934121107028
Al 6.705672216376539 11.323855259869019 11.97359477020823
Al 7.0746219508180666 11.487373200985136 9.245027128954058
Al 6.520943302571935 13.904767909329946 10.67277705658526
