48
Energy = -152.03784307 eV
Al 15.415432808194321 8.01867240484583 14.443976054099116
Al 14.897934811311034 9.92900488334438 16.327570291147993
Al 15.7897349041524 10.84199095443005 13.91859428846387
Al 15.170890601713383 9.084263117887431 11.953274752601795
Al 12.859742220600534 7.9390584602189085 16.19821039404868
Al 13.950229818124074 6.631652178905435 12.500407135405526
Al 16.055850804425425 11.880452953995691 11.510794244301954
Al 13.201320680207655 9.573087968383959 14.05051721833468
Al 13.78942887764829 12.412143512510335 14.926897439236456
Al 12.2786277976133 10.66489156067262 16.487738778006314
Al 14.407072327117438 14.020712231707904 12.647162644457428
Al 11.684191422121831 7.153963110531203 13.769063059032451
Al 13.463265467459232 11.494658159279611 12.173429173917086
Al 13.968170256098299 7.490592664441086 10.03059772432555
Al 14.371066462092372 10.338600383577003 9.773065197531883
Al 10.518664104293265 9.1566467729834 15.142632297746069
Al 13.673031868949883 15.530363485249104 10.509533845444619
Al 11.367400101004563 6.664668380689527 11.008088853415252
Al 14.277822525522177 13.03460953741488 9.886128008755179
Al 12.355334024378502 9.124690360826374 11.51557326995551
Al 12.177093967511203 14.539581531353459 14.381340400544252
Al 11.357083487148138 11.502043591987423 13.862075566856484
Al 11.70059721759402 13.711978093541408 11.789916731448459
Al 12.713247329053935 16.719091281411533 12.735773424491414
Al 11.910311908818878 14.013443539483127 9.036201353364776
Al 12.389421767367166 8.97623762927477 8.501073678432553
Al 9.824511333318117 8.586240006262614 12.549285976689635
Al 11.172655714547622 13.01893813546826 16.212403662874042
Al 11.705447761848104 11.415968717430191 9.956815711831984
Al 11.045279534473007 16.212340661635235 10.564712427972392
Al 9.664627256818191 11.608992453002266 11.605920702146909
Al 8.70880178318258 10.754146408051525 13.986827448259806
Al 8.95059369822773 14.297210203772401 11.226089210042817
Al 10.03113551462718 9.14366810646636 9.993161871657044
Al 10.108497341902483 15.846807904537348 13.06045369751149
Al 13.104600858953935 11.757404328190443 7.681139529158552
Al 9.566092520816964 13.402974540619937 13.92561660327931
Al 10.429738194096052 10.376628911251357 7.578622172699856
Al 7.64773808561097 9.736315549574496 11.578079195451721
Al 9.584865555525772 15.34386660346088 8.547967476030424
Al 9.251696676322343 12.609145899153907 8.936722928928146
Al 10.828089442323577 13.106989024999333 6.760962679785291
Al 7.047470896198543 14.650922222213989 9.271361238311727
Al 7.843465412546443 10.20885509111767 8.850872289245618
Al 7.173621720854007 12.266706893297576 10.682194285806771
Al 8.592522553787438 11.563247079038197 6.141373759209287
Al 8.167383838814931 14.141357670680948 6.6592380016879416
Al 6.589345421115338 12.317321789569565 7.96935610771219
