47
Energy = -149.84499959 eV
Al 8.333198937580711 7.830977831636542 13.521780157717137
Al 10.3840333663228 6.8337496531231094 11.430072414062947
Al 10.763856000905369 7.027280581070227 14.126056633927618
Al 8.373700010850959 8.759890035847608 10.97137574383277
Al 9.809574225552169 9.536924817689204 15.086907177107713
Al 6.9008659950561535 10.958862801876498 10.632260278325738
Al 7.822218689990885 10.445317813531497 13.224006757485425
Al 12.94662143443175 7.406938780393311 12.629275904571998
Al 12.688468333038898 7.1555097102880705 9.995929472614955
Al 10.758705103425973 9.392330573965063 12.519151322734615
Al 10.673177271175973 9.089298677162375 9.706023237756215
Al 12.550849909315952 8.822566994627055 14.97576570659643
Al 8.857456463739974 11.164925270821321 8.555004489448818
Al 11.639752624201714 11.230045131441404 16.047743162275804
Al 13.140138562073952 9.985759865224134 11.11846367699661
Al 7.630424336109967 13.382627093805773 10.04606032566752
Al 14.794644703404396 9.158500492531905 13.425464136424045
Al 9.66912602934556 11.514043325791937 11.16068199970987
Al 7.675575568299982 13.066419768015708 12.798678811444935
Al 10.080430867390955 11.984653191162817 13.767278194980282
Al 15.049983118993714 7.975387177706836 10.993703914690615
Al 13.209159653972238 9.228921319363742 8.448795513154682
Al 10.827826290786932 9.818060415759996 7.053060606265841
Al 14.357407963094548 10.709153463327896 15.576214979651535
Al 11.791012573645421 11.460868513844028 9.275009818566373
Al 10.268090287054706 13.59023864825326 9.432142529318952
Al 16.009337642180245 10.431880664367732 11.077927462473212
Al 13.473427610166558 12.940793945747249 16.936095164785396
Al 9.523413796557183 14.617927391518325 14.141929688861975
Al 11.767847831054837 13.319869602291718 11.832196357586556
Al 8.338686536061802 13.763211096090902 7.432595203221668
Al 10.671026674183622 12.507173381133663 6.946620613591998
Al 12.637982510061155 11.168187967382783 13.448820441938881
Al 13.216306256172912 11.416146425993494 6.8866886827961675
Al 16.374154171568374 11.312622121925312 13.623040837581982
Al 8.744031411904889 15.907015253658885 9.122299848132304
Al 12.071155528115392 13.716947320160052 14.621363028672675
Al 14.85353277755608 13.24831976112704 14.627176977486286
Al 9.32471592205035 15.008914994295433 11.551400394825546
Al 14.54735424924089 11.926905619547297 9.308669860471142
Al 14.030457422218694 14.590429989793018 10.362532701416352
Al 11.628751500850585 15.819079615116122 10.08857045279203
Al 10.760359154134289 15.318348317852388 7.403304528568079
Al 14.016952296182053 15.069006111859041 12.946047462407718
Al 11.543290759032992 15.91299233923253 12.873232964173386
Al 12.863228407725085 13.83522470730473 8.107030021855012
Al 14.443032764980863 12.475094967103265 11.980893882792994
