47
Energy = -149.55511111 eV
Al 6.9635939771133115 12.985757856336457 10.70291999445053
Al 11.199862935805147 16.020629008202317 12.146015731903077
Al 7.788614690265722 13.300175859512546 13.429269053639329
Al 12.303993856303101 13.615781615706526 15.045954324472088
Al 8.39384486454072 14.175038396163812 8.566261447079855
Al 9.045172356449397 14.55981634501846 11.393195072643682
Al 9.987910152236127 14.66916020441867 14.123760915250262
Al 10.370869181482245 16.04085685900284 9.508061918148632
Al 9.412480161335038 16.086276208728552 7.026138539093108
Al 13.516682992521792 15.103905017442534 13.059029116389349
Al 6.934136715991645 10.342862078035175 10.635223148207531
Al 12.574421493832103 11.16191917788207 16.010235061765776
Al 12.79027414851989 14.971562774431241 10.236878449663207
Al 7.218044226504605 10.673131263105956 13.245521003663058
Al 10.495890715421046 9.535392236169631 15.662146217701409
Al 11.621948651316023 13.22798221458769 12.160674097508883
Al 8.435622316779181 11.49570065004785 8.687457439130009
Al 14.724209918247665 12.737188860348262 14.095173527635454
Al 10.099088592400275 11.938044531175393 14.397867024203835
Al 8.279136117751277 8.590280437286145 14.559545738526346
Al 9.249768066257783 11.780421709185193 11.56519724469134
Al 10.711431735667318 13.011142492068442 9.60894687163207
Al 11.51267117228541 14.481400604738639 7.5049659387239736
Al 8.30203935200048 8.625639826428149 9.157875268500254
Al 10.204302057644803 9.637341356464171 12.754160769481837
Al 12.581367596075864 11.075345898321276 13.301805638440955
Al 10.016818186292058 9.880042771886574 7.237471803494507
Al 7.892443606019067 8.083936393095659 11.92198477768476
Al 11.890162348872824 11.796920148434399 7.423809595867272
Al 14.846294298663503 13.55256597256671 11.37881988233587
Al 13.943054252967222 13.404933296953729 8.431658593987034
Al 13.012653547113198 11.48337780979029 10.299387134690368
Al 10.566782626745907 10.073241871260327 9.94294707676268
Al 12.51661995674254 9.102867461977329 11.48252819306951
Al 10.197309389763253 7.0412572747952655 13.60056066236371
Al 15.241143327326686 10.836932089021596 12.204199613383944
Al 14.654186028875827 10.007503981239765 14.733438870349358
Al 12.48028552554865 8.44044942301272 14.29804233397814
Al 10.18560511609443 7.186451753591161 10.85984323503737
Al 10.617567738290774 7.533774694029011 8.297124476066008
Al 14.786318779699616 8.125005692026894 12.691271065051602
Al 12.624534144008772 9.221117588367312 8.091872811360037
Al 14.499793290647682 10.908443149730902 7.641334762198605
Al 15.820588104859791 11.720465425851293 9.785576181008897
Al 14.871974970850399 9.113637021915071 9.979249274220306
Al 12.959917683961823 7.053625969910952 9.712186527341409
Al 12.563142886633875 6.495270584458669 12.306987431927993
