45
Energy = -142.90845366 eV
Al 9.415626630890536 7.842195180104044 11.613133215660183
Al 10.614423037512523 7.717134231107625 9.221058299073409
Al 10.69568018560629 8.138272097200282 13.897293019629139
Al 12.198216521070382 7.491656453268445 11.527008713217787
Al 8.931947637940306 9.962475524573406 10.099458393062772
Al 10.720462907236445 10.061565350178086 7.90196182393168
Al 12.668331231495095 9.584219550837725 9.738729486495085
Al 10.045862481339329 11.913294109875784 6.223048328505317
Al 8.727822789426579 10.151298931177262 12.837640458188876
Al 8.605163882945055 12.174564815207065 8.521648317130959
Al 10.903636081020561 11.827522878609024 10.072245596638414
Al 8.379115803000131 12.379865092096065 11.290762183274422
Al 11.711519643612753 8.368662316199151 16.29107704701008
Al 12.991752110926972 11.869277370692602 8.171398216721467
Al 12.833421208460267 13.467965129065542 10.483748634449249
Al 14.163339236772519 9.287677958887468 11.950997539952422
Al 12.870959817860038 10.0160027478238 14.445311289011366
Al 8.44275113510607 12.504250519253977 14.083143043726063
Al 11.357831627748228 10.103522348601098 12.065997913892762
Al 9.274249794394857 14.435071807290955 9.820899767845942
Al 11.04702033157311 13.702333861979863 7.853522058445073
Al 9.362797452131074 16.89112923516313 10.802806339273847
Al 13.460899343721659 7.426269504318926 13.986347194662594
Al 15.490530525420935 13.61636031020631 9.174343515331818
Al 13.520432084130713 11.853184318557433 12.546633113283235
Al 10.931854956602303 12.816956202385414 12.67620556995973
Al 14.810218990901046 11.210917793026228 10.16865069502771
Al 11.498227279848967 15.9524247381668 9.307981771640806
Al 10.210686827291934 12.928720572714415 16.23700797278729
Al 13.971822948610036 15.830333616902461 10.699892480474759
Al 8.340624789408336 14.82516851234701 15.374479201045476
Al 10.27700683579894 10.56715711147647 14.948870628998504
Al 15.46731940946885 9.272564314383656 14.36929143092233
Al 17.375264265320276 12.200975852248392 10.353457396405183
Al 8.9197930881695 14.85098592134925 12.624814449990826
Al 13.533251380641051 14.803999222367107 7.97977890817056
Al 12.012067907496693 11.033884759466766 17.03734182594052
Al 10.986639641002203 14.938364146956621 14.521661254026618
Al 11.452815811654668 15.648824609396495 11.939910298847497
Al 15.64001804378727 13.738706632260133 11.854699169684714
Al 13.4705879394386 14.615898761660885 13.242304398645853
Al 16.24193229157336 11.119395155505854 12.528501653537614
Al 15.275658021206993 13.008537011081955 14.39863177917579
Al 14.60508312653933 11.145769863038279 16.193786583290727
Al 12.594974822016102 12.75428543911085 14.972160901132952
