41
Energy = -129.56718225 eV
Al 11.343498930275569 16.42194207811738 12.423109090821379
Al 9.082911794167819 14.443864884693363 12.78107046224626
Al 13.3716963843507 16.147402438251323 14.206044314994356
Al 11.240109910171169 14.408926274039638 14.364479981007939
Al 13.559067563683264 13.84641998653695 15.752354464475118
Al 9.447403970200371 16.09732737098162 10.61694142842161
Al 8.321126533395589 11.955422181245018 12.051888675110625
Al 10.379369844814047 11.458896014126145 10.175084607052776
Al 10.749942078875467 12.014335511575096 13.292039227980736
Al 13.905261362990228 16.03012571497666 11.256623826005413
Al 11.42948241702812 12.303691251411317 16.129229215267483
Al 8.828823861491884 10.016406765546305 13.869307922563067
Al 15.671695056064785 15.45532976290446 15.730166168308289
Al 8.814478362011899 13.707054301569007 9.756197098572969
Al 11.228731225603006 13.90734882920388 11.226400896038756
Al 15.786001709298695 15.64607883616536 13.049767405903278
Al 13.509785564320367 13.754429782091611 12.783359656332935
Al 7.613344863424829 11.318993117849674 9.442827942990533
Al 11.290689567271228 9.912754992342276 15.029831861598757
Al 11.906221672255013 16.016327949565728 9.487101255838477
Al 8.236299822155761 9.38264970820925 11.145872275192396
Al 11.192042531861498 13.57853058859076 8.414884881447243
Al 12.923528138131068 11.376663524912344 11.47863190255118
Al 13.560086846800981 13.719778197560654 9.84707709559158
Al 8.984046115532959 7.521999993807008 12.81708209959227
Al 15.821978794467679 13.132869561207727 14.221682133012253
Al 15.876822866895392 13.712879587413873 11.364623022306652
Al 10.92575290754957 9.478923756402914 12.152616680634498
Al 13.411965246728748 11.559620655317906 14.371926413152535
Al 11.532869797511506 7.4177596210652315 14.118157776819688
Al 10.932225381827662 11.111568064525773 7.426832869789179
Al 9.355744974397417 9.394611421034558 8.569415115635154
Al 13.289275046801984 11.3951955359834 8.521574329416254
Al 12.000088460076828 9.321216747860657 9.566014414729732
Al 10.163762571763534 7.497984845510211 10.274148690918276
Al 15.394594346398353 11.579558967950874 10.01412521346308
Al 14.587995868433058 9.202716545152711 10.815463868887274
Al 10.84621542663603 5.606770021214712 12.237315771197697
Al 15.537684303586332 10.916961456965314 12.743436186189538
Al 12.711553868115272 7.415723103872966 11.426511054752025
Al 13.56880612759681 9.145922167212005 13.381764818154059
