45
Energy = -141.74358017 eV
Al 13.186969214686368 14.49379768075925 11.254457487928068
Al 15.204120728390892 12.826061608718115 12.312545256553319
Al 14.246178950640486 14.88704519026137 13.973890461784563
Al 10.993832275489474 12.910199677230988 6.296649978083507
Al 13.979729786157906 12.302291775009355 9.765571045229898
Al 15.16509414287536 9.117515296378581 12.984418276561687
Al 11.61749617946608 15.53026318628998 13.169841503927374
Al 13.124325504843593 11.570881416637771 7.313098768071379
Al 12.004837601818464 13.845781412512626 8.770974301009113
Al 15.90899532228935 10.728838208291084 10.842937460580556
Al 10.479142577457035 14.896438306921365 10.733930690739761
Al 12.702174216243327 12.718765477544794 13.461289306357376
Al 12.113493887255803 14.373209000663051 15.633853766171047
Al 11.041046726779877 9.976027306754055 6.434908315159338
Al 14.180582969321458 12.645876491979337 15.805634619553786
Al 11.40985011158337 12.376643005214778 11.128213126307427
Al 14.879278190651869 9.813920111699241 8.500686051198588
Al 13.265143775942349 10.644521528053499 11.757733023523384
Al 8.775694978435435 11.382760857589638 6.559696949585584
Al 10.40464347427188 11.675617074203517 8.687849590235796
Al 9.868771731944411 15.926278742818821 15.23368165827694
Al 13.329302881259618 8.601382670695841 6.361137160626341
Al 8.753729054479209 12.763584167307426 10.978810919446785
Al 13.370473209727278 10.305625998743135 14.583290592476583
Al 8.70790198021079 15.329554212934896 12.698309296622355
Al 10.091199278466902 13.281554055887991 13.789475880791395
Al 12.218777156158412 9.595516789198154 9.010750378618775
Al 13.57803253386011 7.15105631050505 8.524287996282572
Al 7.722062414737083 11.260801729738281 9.050781392435857
Al 11.473076429273137 11.702698875700543 15.891466511789432
Al 10.871115684680358 10.570159529988917 13.385436261109858
Al 14.19862614878171 8.244848093045237 10.758713086585558
Al 11.025366178826683 7.38969827147104 7.7064195386296594
Al 10.195400798200733 9.953207021554343 10.731518405851245
Al 9.841353888931364 13.725946953589549 16.96226704579448
Al 7.410591628368697 12.761032319840183 13.211175670249334
Al 7.813803233034301 14.107898111783504 15.32692272672812
Al 9.143347296082943 9.200964819760005 8.164654635175078
Al 8.221590554171755 10.257624342156518 12.776080233777547
Al 12.419850611535876 8.27602489844093 12.922550750842651
Al 11.608838275183032 7.37058330095928 10.4636182654972
Al 8.826693264322072 11.387535696408014 15.245630035601266
Al 7.57450363981502 8.980531212836862 10.512541539660855
Al 9.671403140973514 7.895580294963503 12.468179340433078
Al 9.129117515667504 6.964381210022187 9.695642433765165
