42
Energy = -132.25415758 eV
Al 10.77244462076274 13.21950755506715 13.6032857056013
Al 12.49538532602742 11.116622826353812 14.602338464915478
Al 11.419418428028731 15.861825526495085 12.123264213755897
Al 9.730113906271807 10.956424242352524 14.678245076041497
Al 8.012314055388003 12.893164975290894 13.639428040929479
Al 13.225191192740704 13.832565103786783 12.834059187492773
Al 14.634336957934408 11.51456602387235 13.01802511425707
Al 11.507799330291283 8.59243292759444 14.883279419353613
Al 8.655475630008887 8.458833814183185 14.941580495236558
Al 9.03622714696642 14.764777323915634 12.065636836267535
Al 12.135022281379186 11.458982836807822 11.86554544763413
Al 7.628158918142307 10.287141116946811 13.016183742082312
Al 13.299649143705262 9.21160154999924 12.720326195311525
Al 13.697730973652202 15.579579311168569 10.794871962929767
Al 9.50730496840127 11.864597622343029 11.545786932913078
Al 11.559588894482433 15.989826545728992 9.111473534228754
Al 6.933485378337759 11.79468003036098 10.497687003091908
Al 14.991707624579051 13.215837025242227 10.674179209931232
Al 10.28421196834446 9.214250073669888 12.572574630669104
Al 10.07180481193184 6.585918442682495 13.529972780602353
Al 14.635485187725747 10.417117064021273 10.554928588596423
Al 11.433078689475314 13.688082618379834 10.610700944801042
Al 15.335087833052949 12.165541582268913 8.252538607630708
Al 8.85546289406116 13.862801653118032 9.592272646180307
Al 7.696145943815759 7.593010121741341 12.530064744643406
Al 8.586149555755886 9.528893375181939 10.623646488988943
Al 12.797380766907294 11.870379173117257 9.271340258967175
Al 13.61813037613469 14.316975919050941 8.419722461886945
Al 5.866838098905559 9.20875068863328 11.19047487861749
Al 12.128477105581398 7.030790035645631 11.86731297115337
Al 11.735507711448083 9.527669255508004 10.109947637049059
Al 14.108631107362202 7.841560077212616 10.167046324382914
Al 9.728835640141622 7.004785806931593 10.771580598766743
Al 9.111149759524722 11.382192636841713 8.64852796537988
Al 7.023512143739594 9.716823256089507 8.392986974392212
Al 13.984781352487014 9.604259368183747 7.971817209959939
Al 10.983036458644968 13.437648594291305 7.907021951667889
Al 13.15012806102074 12.397322914920514 6.535826437970666
Al 7.3035060561185015 7.338548175695736 9.74612881123654
Al 11.868650457490075 7.174802748035412 8.944680166261522
Al 9.65329677524457 8.622025371311697 8.317454340410874
Al 11.36903798127252 10.51962507429053 7.42027423883026
