43
Energy = -136.07516828 eV
Al 13.234409207486438 8.084755823437826 8.438606750184023
Al 11.3346561797475 7.027394377653665 10.09740287812172
Al 15.155737944388699 9.69823080415794 9.454803672777336
Al 11.198799287047486 9.65760023837685 9.354307293888501
Al 9.26622200927951 6.233723825609758 11.697336154579732
Al 13.29187062224869 8.520146987531108 11.162384849339062
Al 8.95843116926137 8.491004719838005 10.304628213157153
Al 11.104812843862213 7.899811077524362 12.722618281791174
Al 14.92117155877882 10.166980978380705 12.39943367458624
Al 16.6309713576468 11.496160574924536 10.860439106503955
Al 13.11042383165045 10.960879216836107 7.926087202775664
Al 12.996729236054145 9.109242201417866 14.03135976224258
Al 10.592863353536565 11.445356852579222 7.296646588085919
Al 8.636454126100485 10.580395820903455 8.855576337336384
Al 11.83366295251895 10.658307627219545 11.98404648249282
Al 11.195311023738775 12.32937184073663 9.865502140670765
Al 8.450256465849186 8.492149374239897 12.96104131906844
Al 16.276830287223582 12.277556776963609 13.543982273261513
Al 13.786552964285265 11.733494055273406 10.443693990656602
Al 14.632186361329632 10.949409069085581 15.105137033066343
Al 13.40026408252197 13.74927990706432 8.674081827800181
Al 10.253353734004367 10.116582010192667 14.090967831442816
Al 13.578442357851133 12.579848132227276 13.025662089498917
Al 9.115974193289183 11.01411790458528 11.655522622426904
Al 17.730221128663143 13.878676627587124 11.938213227440707
Al 11.076523880839922 15.071017697775863 9.345192518554683
Al 15.435135655634024 13.892306799288717 10.442330694607987
Al 7.531881646750347 10.622912135725754 14.134782515695758
Al 12.03383830992703 11.764615653499227 15.144613149388322
Al 9.146815835968978 13.406068387822783 8.404409080431716
Al 7.165832359998219 12.444713729632612 10.088863018755845
Al 14.099548582426456 13.65127282701877 15.465348682890202
Al 10.947843434074159 13.023714835980249 12.924560340705982
Al 15.31864602523245 14.869061196231723 13.034756664924489
Al 12.982903179161681 14.492430058901771 11.263445317901168
Al 9.195727496791152 13.912570180148851 11.0579247447291
Al 9.254800747280903 12.417380062744785 15.178147782663164
Al 7.326740087556143 12.864309352160117 12.7034098006944
Al 11.213181051590084 14.268443375325031 15.502898706149496
Al 12.908258129322364 15.576067305566397 13.765818496006057
Al 10.8225852148478 15.79057626857783 12.042448682016419
Al 9.001175385721194 14.769736564821832 13.763313266853507
Al 10.619383384181905 16.779755430100277 14.615683619504402
