41
Energy = -128.53978311 eV
Al 9.333684437783422 14.318823616245039 11.146657425019606
Al 8.353434412900514 8.816724598689806 10.594829000131726
Al 12.090372590921111 10.767407533432273 12.756866646031705
Al 6.718227537242151 10.526118875801783 11.911291864551805
Al 12.083288635479786 14.989841742523582 9.943587448337274
Al 9.286500267038504 8.2051390741128 15.013423967439618
Al 10.654796155113678 7.092365996469427 9.98143768601915
Al 14.825975246688403 11.257244405053795 12.826672011159799
Al 13.94439338292493 13.442407102394398 11.330697515040464
Al 7.507603215777002 10.46201362056853 14.692839777151443
Al 11.79567894668438 9.911796236465594 6.358883078035771
Al 15.986548012359448 11.387884862488102 10.183506291137533
Al 8.669661686127379 11.749921462457714 10.369929109906726
Al 13.37009526839532 10.825121225536142 10.429308247817566
Al 12.779888012469272 8.305536236534829 11.510010178807512
Al 9.997073531283805 13.618357205560281 8.626892295933306
Al 10.425894882462051 10.505376322202663 15.456264318403765
Al 13.119387824554018 13.258372956171808 13.931510570678105
Al 15.042696737029395 8.779309744401388 10.012062159112785
Al 11.714008278135122 15.086286342048988 12.54926787855577
Al 12.596103547468266 8.614399865213917 8.73431223067052
Al 12.008204266700744 11.736242603399543 8.369158050757889
Al 9.345458624498434 11.065965766879792 7.838943375706502
Al 14.500170412439532 12.955039876736688 8.572564800824706
Al 9.895866809957596 7.444209791198726 12.458223106776218
Al 9.138313158425216 14.980491964231447 13.756134851969888
Al 10.761249728338942 12.569568917066311 6.137360673895409
Al 11.865010862674762 8.479303445574011 14.095715612796724
Al 9.450055580726481 10.167165504147416 12.79184543138086
Al 7.269125018608108 8.162697360425176 13.19420150093716
Al 9.970055949532515 8.504500579153271 7.9055760306540845
Al 14.485709691396686 10.290397469423706 7.7972908668735785
Al 13.288170623767403 10.675659723731602 15.080105670763452
Al 13.50842786008896 12.13655211825411 6.059603248951419
Al 11.357325561635724 12.585993092942497 10.938916955886112
Al 10.770057305799057 9.955295919455773 10.271572903778926
Al 7.851324794741143 12.703775786598639 12.827179816388874
Al 12.499445394333474 14.380109678179759 7.294233821937416
Al 11.507089407377167 12.783079121570912 16.15937118656304
Al 10.510333721018261 12.690329359140764 13.51715847913233
Al 8.740571926326 12.817359300398556 15.568434559623794
