41
Energy = -129.62149559 eV
Al 8.792632142535535 8.491494200403386 11.913718284617376
Al 10.82795924678739 8.2076063923552 13.552702749789848
Al 11.068150615327342 8.123108329890789 10.442999506681277
Al 7.8725040739141985 10.903515324743434 11.536843593247434
Al 9.65902771228135 10.219869453906753 9.648243361061734
Al 13.213151892964813 8.490366045069146 14.869756976098584
Al 8.753515411466594 10.830988565507491 14.177052812175399
Al 13.126083312827303 8.563185210412243 12.029731496501272
Al 13.64340938627668 8.231269570490893 9.31193035368518
Al 11.319755530909179 10.635100147598582 15.001646603096551
Al 11.645884354487928 9.50571725075 7.926625652881395
Al 9.641162782280144 11.441694595530548 7.1064503370827286
Al 7.882450414294894 12.168232936209742 9.012247040378098
Al 10.704044693501059 10.569845393636719 12.287761192443996
Al 6.085462732747778 12.896285881538567 10.9819891776318
Al 13.492382036828197 10.845838437607856 16.49807571315082
Al 13.855510900530676 10.811667945009576 13.588931845999126
Al 7.927369045888905 13.352126518909442 12.986188680931715
Al 15.542742519060539 8.405653758381643 13.142786697536605
Al 12.391900015144923 10.649198444568842 10.352768428811869
Al 15.719210318881302 9.732537527192639 15.53239423247856
Al 9.984938214523142 12.709786050815685 10.850268935669527
Al 10.376977531157824 13.062074694055926 13.967773315687122
Al 8.018083530681775 14.64684467753943 10.428370135566096
Al 14.243196322036036 10.761082867053611 8.27557556057332
Al 16.696112740386305 10.854804044529116 13.155232268714462
Al 15.030873904138925 10.417049406886074 10.97999581903301
Al 11.993298851900725 12.300773420431204 8.258510650563954
Al 12.4335127072937 12.828658540672222 12.21250782032243
Al 12.824947903431887 13.008141707980124 15.084471911726444
Al 9.860375919126028 13.965271573494524 8.30547438540515
Al 9.958661791639239 15.104866857252011 12.255154037043882
Al 15.531675931354268 12.448960128941424 15.148517354516928
Al 15.25410187768816 12.922361708399967 12.366772272425495
Al 14.08495770196675 12.899294114631022 9.959282488441998
Al 11.919251410353704 14.505635121468288 9.992205917369818
Al 12.129354852972886 15.230633694740337 13.772759132302076
Al 9.946161980771763 16.36257891170942 9.714864355706807
Al 14.717385594093644 14.918682971031394 14.274216945682468
Al 13.958502762581917 15.143103556577502 11.644971900390855
Al 11.918333083392865 16.879107772505012 11.497243807004393
