41
Energy = -129.46535886 eV
Al 14.543261246314703 9.043928253078928 9.696117953336069
Al 14.479098942941846 9.720589813758693 7.109541699346639
Al 14.402962710444173 8.655129725921348 12.2664718980813
Al 14.778639466806858 11.28995809580899 11.4639650979128
Al 14.960484192926993 11.770324846786151 8.924426840999706
Al 12.20161498232562 8.641385322787384 8.218996747251943
Al 14.35362504987184 12.479588237219488 6.480684134592791
Al 14.371196488358327 7.7528212026436245 14.730990993024225
Al 12.029892344472964 8.367511487728454 10.86982657043555
Al 14.98068922619427 10.613124707152679 14.024806031107905
Al 12.416747642880253 10.91244108509344 9.881769397846995
Al 15.067559441508767 13.331076698009637 13.229732321663509
Al 15.161566234769042 13.978129343321447 10.733363867550844
Al 12.127772660014129 11.130453782421009 7.00102512655844
Al 14.837002451806612 14.56374324569462 8.19142083042163
Al 11.865440238361666 7.97811752113288 13.634708602623286
Al 13.007490932421819 9.793276563997095 15.663226390579688
Al 12.396410055289527 10.582115473961617 12.769998008198012
Al 9.909504214403258 9.540221174063841 9.47193300485681
Al 12.655844635260156 13.154810725104857 11.60916165723285
Al 12.492574316760905 13.333645906378633 8.608466274612526
Al 13.102517654613242 12.330916389291943 14.859146179011516
Al 9.796299014860637 9.06624449774695 12.328552295386467
Al 10.18786897969824 11.700168542471044 11.295122910366873
Al 10.494861208327901 10.203350963205535 14.761264016207843
Al 10.061373919455354 12.029796335475499 8.310120842535241
Al 12.951872324120464 14.866747535914886 13.92955707097353
Al 12.870047014175507 15.512108249012229 10.243381180930744
Al 11.514301204353432 11.584465394991684 17.027836003867993
Al 10.77214268146221 12.934734843186769 13.63325419899626
Al 7.768788245039499 10.24699481721316 11.06396287608819
Al 10.40476751124387 14.227979911544214 10.044326416495675
Al 8.484501835893669 11.304288286802967 13.438404086936062
Al 11.41149626389268 14.12921262547605 16.06656458851561
Al 8.082732608254858 12.72879003513602 9.853462824746872
Al 9.1521593593593 12.393093388426562 15.888597271782618
Al 10.980821065978972 15.662276371925289 12.332706289230517
Al 8.74534044218508 14.02803234859801 12.137573677234155
Al 6.451527258753496 12.4753893994429 12.074118832830667
Al 9.427711284663168 15.198888016498861 14.572801524333117
Al 7.1824397823745265 13.6270759684148 14.441560598136224
