40
Energy = -125.24657231 eV
Al 14.273295745745841 9.695552090790727 7.546655073738616
Al 11.791184065314289 10.68409815130947 6.201465208074266
Al 11.896019901793503 8.320946663605666 7.709007572835105
Al 14.017713279500887 12.37304397022847 7.256302438157063
Al 13.368078888452807 8.71348142657807 9.916043128983466
Al 14.614191607352387 11.017080720220969 10.004187612336287
Al 11.842786381898353 6.35618304916525 9.712306613374496
Al 9.681005976718872 9.82744945651091 7.851742212459393
Al 12.099681113201354 11.13540928802875 8.860820741275253
Al 9.448579202713928 7.128698825281799 8.095320028991773
Al 14.254950304952366 9.73884003112872 12.65822360680359
Al 12.562506981195405 7.580856496609244 12.092525917444634
Al 14.208284573844868 13.635877198446833 9.644759435522097
Al 11.941500321431517 13.972568846496868 7.99343503241782
Al 10.479647256687498 8.603512166599625 10.394692120774302
Al 8.998336805846609 6.247614160448265 10.612243770785224
Al 10.108756866094046 7.11842358677895 12.939538798144625
Al 12.000149864158685 10.570165505733266 11.545609181011423
Al 14.058450450195894 12.563861966781639 12.21287104706956
Al 9.940462052583504 12.356099136022344 7.407848031597009
Al 7.6049575498969615 11.833659745173374 8.86111692395565
Al 11.673850543327024 15.74013999554703 9.936056771494764
Al 11.590745404543668 13.245669316660095 11.207225686512976
Al 9.761626731175744 11.25387836109658 10.283858640752388
Al 11.64499437791649 9.219740144726073 14.063157609806415
Al 12.253903637655142 11.790006870985614 14.011901698514503
Al 13.815308346181107 15.343016438567195 11.59332452824988
Al 9.553850576040572 14.027283635814216 9.523579806664015
Al 7.87412457107972 8.954425688440773 9.538714959126118
Al 7.605519422730483 8.073239393415498 12.047941240416709
Al 9.462148043612347 10.385736796629738 12.851805105167651
Al 9.117937580760266 8.541323826702131 14.93183469254574
Al 12.47315480294955 14.391088265863518 13.675690713567148
Al 9.965769419067703 13.236696812869013 13.798675820613303
Al 9.868798075309222 15.323641665584027 11.94190648746916
Al 8.289801179885913 13.138369153164717 11.666491977959383
Al 10.117598384893979 11.020510275591615 15.493251372133344
Al 7.112095999115728 10.756004022949549 11.472972632656338
Al 6.737648003543624 9.548241219655058 14.032810636422537
Al 7.445910399961428 12.104311431518434 13.935966134231645
