42
Energy = -132.79008747 eV
Al 9.16345971275413 6.64083554069815 11.34180944426821
Al 8.851031693694676 7.753952279369101 13.678938920340718
Al 11.425716003117806 6.919998017449834 12.864414551218404
Al 8.705380366026647 8.979936175115208 15.991636403504002
Al 7.32086936282412 10.169333385733863 13.812763457535295
Al 10.625016272849498 7.4771067552457025 9.34306001344811
Al 7.662358976019519 8.921816386550532 11.4998675810344
Al 11.142189012303636 8.146132739984559 15.263241059581821
Al 10.427111926001249 9.146033221544947 11.591851513283693
Al 8.87820500430291 9.848856147737324 9.305538849384885
Al 12.203881690734345 10.593562257237833 15.819200015673212
Al 8.237440590853693 11.621576596233249 16.083385033776757
Al 10.043946052912437 10.417839679856138 14.014529299644044
Al 12.993386529873321 8.078973036656139 10.822643020064906
Al 8.275631981820837 12.912169491658682 13.748418374413475
Al 12.567843049744909 9.424603163897865 13.302598961907874
Al 12.857313570576025 7.844144990398085 7.930942042312378
Al 9.00188199024344 11.46478279768903 11.605116787116696
Al 10.334248495614194 9.010652030702355 7.149891170998758
Al 11.83004333298736 11.945069400724629 12.170981074656183
Al 10.13111011417759 11.612863831191246 7.5591077231795065
Al 8.109577559599398 12.553206635606477 9.154633918012841
Al 10.981082846047215 12.786197680629115 14.780844905242123
Al 11.670946823116195 10.028465687984356 9.410845780273592
Al 7.850568558411736 14.103636991966038 11.377448108066533
Al 14.275718553527673 10.536231825934198 11.595056517789802
Al 12.667349032416078 10.500779030895725 6.918650935045298
Al 10.360692865171435 14.23657447512892 12.558233939258269
Al 10.666859966604848 12.952075150670987 9.985548870239237
Al 12.291161657152118 13.278284339664136 7.377775362819645
Al 14.515068206315682 9.734339224890295 8.960803411503983
Al 9.788532799887152 14.286168928403907 7.763580548259123
Al 12.877584444371683 14.310436880579381 13.64854928022346
Al 13.209739454325963 12.14530536335288 9.714008133810275
Al 13.843418065270837 11.764293479298274 14.017274526956985
Al 9.88198733446983 15.587775264240763 10.248376131766499
Al 14.797916204243219 12.170383489020612 7.429315731766689
Al 12.056297814820114 15.821471640592954 8.586427432919493
Al 12.488338263918036 14.81677594143661 11.060755066786578
Al 16.061990225259805 11.998723404772779 9.84756053272571
Al 14.705105891715972 13.314005902008287 11.84075613427917
Al 14.539216970378396 14.424879227024894 9.109572293237035
