46
Energy = -146.30561432 eV
Al 7.226756871531907 9.858932163723304 13.934517679977034
Al 9.598415711872038 9.70286384923898 15.121084629271435
Al 8.883507096966394 12.056129373613357 13.928971915535792
Al 7.234016824340648 11.59705271142604 11.808589783505978
Al 7.17531785339153 9.092974559523439 9.47431055249987
Al 7.228117825832624 8.054436820780465 11.972842429102299
Al 9.543572408972063 7.487866024392165 13.35010428424396
Al 8.278544499129532 14.189964438168072 12.356370841076325
Al 6.284296713860707 11.633287383071806 9.357541345073182
Al 11.193925874975386 12.052924481302991 15.409014779253342
Al 12.023759406414225 9.4717447462895 16.103848441892936
Al 10.48911172125329 14.286587441492262 13.774266633263474
Al 9.371460614628953 9.856986692136736 11.939622221937256
Al 8.049751256326614 13.722495459826453 9.71897884694431
Al 10.328423963852915 12.30701545556985 11.58935254886955
Al 11.620060090846671 10.119313741970881 13.364557792957203
Al 9.362668156738517 7.475347323521468 10.471039864050349
Al 11.708354782700921 7.896955145266512 11.726421127323384
Al 9.394607242706432 8.627502534455813 7.8569973197998895
Al 12.13403825722636 7.441786852476468 14.357071825105097
Al 12.626688159774021 14.390740247172655 15.338802739026164
Al 10.448479714271857 15.103477706964792 10.965690843876205
Al 8.985382121538292 11.065708298563475 9.447740518243783
Al 11.208625785357414 9.575896613546279 9.630647406339447
Al 10.624730072539421 13.055354126847892 9.040461377095836
Al 13.921922016524993 10.767535724660785 14.832292783297548
Al 11.428889290703026 6.835216356061754 9.027339755003567
Al 9.564323498726685 15.44377163683728 8.235916574586676
Al 12.793834775224026 12.631142511732797 13.163501032740447
Al 15.063595933042231 13.255148893627867 14.629016655427055
Al 14.087172089952505 8.713297932592656 12.802340928003915
Al 13.083831329189943 10.67634276685148 11.106757403339834
Al 11.030516536263773 11.050196509655375 7.284034847404058
Al 12.703761629188563 15.33055985438394 12.565944340090192
Al 12.71748182636399 13.341030587039148 10.622552017453087
Al 13.635655935798393 8.116029724950295 9.918845116019169
Al 15.456103478594608 11.384073160333308 12.627052071271214
Al 12.063186046778524 8.471972603719925 7.049010657674882
Al 11.126802556358744 13.755404105380805 6.526892209910618
Al 13.552183713232317 10.310449585232197 8.359656098952582
Al 15.007051149096142 14.017896393180099 11.997951213096215
Al 12.148320144981238 15.37653213782299 8.787075881533509
Al 15.686166968285091 9.689933300904944 10.579959616503219
Al 15.166368841477679 12.218727345682533 9.814691471659106
Al 14.738926313513668 14.847200693147839 9.433210152536954
Al 13.296068545840964 12.938969631045039 7.891887073416275
