48
Energy = -152.31662277 eV
Al 16.673859336667164 13.488262215589168 13.944192383407358
Al 15.848545301897321 13.282496140661152 10.897666007629988
Al 16.18710025504408 10.900633627092176 9.724288029516515
Al 16.34874950951248 11.231686081118466 12.614375073716412
Al 14.698171866368988 14.945143432098345 15.103138164041427
Al 15.44552588371817 15.505537688791655 12.464606891505559
Al 14.804873242826304 11.912319171434495 15.363656607430807
Al 16.080346833202555 8.81722284581258 11.645574891294293
Al 15.0864542818117 8.347357922015554 9.179054078956653
Al 14.119109680167565 12.937830640721062 12.98332359977758
Al 14.243651114348417 13.065834368421653 8.884860482162587
Al 14.142591563958995 10.54028124942528 7.878647104518587
Al 14.113747144007856 9.999136449672887 13.496751307830255
Al 12.43609333108733 13.514511020490042 15.137105684809043
Al 13.793707699723322 15.515058980954432 10.204261449241107
Al 13.745147982132341 10.833293461686832 10.889889142065462
Al 12.805791718951525 15.4777163465153 12.954150541412629
Al 11.585076364858073 9.075460888212053 13.341788676932552
Al 13.526891710815104 8.06690178487062 11.574386889380643
Al 11.682215996084212 11.728685497560965 13.059489322326389
Al 12.264659274630354 10.699596728328496 15.505689502488762
Al 12.317191893694073 8.89821402466913 9.202385522076021
Al 12.392147806949287 13.305764573744895 11.064085432149643
Al 11.806388437782143 11.600966182110978 9.036769849568463
Al 12.986311314187002 12.666993230844847 6.558249448467724
Al 9.798340078109714 9.535921637058873 15.561717311097045
Al 10.650521354468868 10.15963802186764 11.062194202940683
Al 10.991909871803108 7.354414252784373 11.208469196745106
Al 10.383700047327052 14.754894707317916 13.819614249624387
Al 11.736370660588449 10.026751013287944 6.636625662301511
Al 9.22148007189958 7.949478699480023 13.26448865695623
Al 9.132805386520314 13.163354006639814 9.106862385131283
Al 10.00150095098819 12.373321594299412 15.229052590929108
Al 10.930940393961045 15.590671645095188 10.970248022991585
Al 9.786303616313472 13.02606411869477 11.692185844058793
Al 8.989781682968076 10.766800829169332 13.230805247864108
Al 11.720581522839334 14.306345258771842 8.640735437213795
Al 9.524335247710187 10.24757167116353 8.33831333490834
Al 10.26433214148816 12.437893768152048 6.844161949082125
Al 8.486925734179025 15.50336778849745 12.075221666235203
Al 7.131968968834553 8.94832657225014 14.778728347174118
Al 8.785881507739127 8.314182170905331 9.981286582545943
Al 7.499133310842731 11.493139268791278 15.558139870262101
Al 8.109910433431715 11.041434799422303 10.5227183218168
Al 7.96167025846865 13.494595937944393 13.805881156496348
Al 7.122645701611969 13.495886078424734 11.012728610113946
Al 6.370867118390643 11.503248567092715 12.82360571582405
Al 7.170452895600489 9.069872857314897 12.00343059001536
