49
Energy = -156.22153703 eV
Al 11.555238370636081 14.856831391083107 16.575619490672164
Al 12.382733469501495 12.270262262693274 16.260990143416947
Al 15.089963723701144 11.908256512639076 16.393623150724267
Al 9.813985678376255 12.944220895055453 15.523663141091165
Al 17.673414049743084 11.377118274374581 15.195446432134366
Al 13.975672495349936 14.415691650810146 15.421338392695462
Al 16.370767747745017 13.600984792431694 14.652310798881645
Al 12.242751685112925 16.475438750732458 14.377225161199897
Al 13.091156683421016 9.826966830002956 15.522391295704821
Al 11.131662499740939 10.995025303002341 14.149645803920409
Al 8.32102542964845 11.194001278652351 14.269463871459703
Al 7.65871147888282 14.03335805299509 13.715024140744053
Al 9.717299586134219 15.518903406077737 14.694413870523837
Al 15.69895893971326 9.654905906526325 14.948505986829659
Al 9.802228228528966 12.78344932832616 12.573474624788181
Al 13.973616898169812 11.960198192348292 13.934642951855693
Al 9.279135760536672 8.811486464988048 13.1519841225986
Al 11.97365767606113 8.473564763553998 13.222121029741913
Al 16.487310964645555 11.42977809082014 12.702125744766905
Al 6.651614256708227 9.51900981794281 12.953421212668424
Al 15.144827922312684 13.997794654141492 12.428786534178917
Al 10.406100629010664 15.548387249930594 12.112869068930141
Al 11.945307192091487 13.779914969130918 13.725562819361603
Al 14.069514239071317 7.498968879131187 14.530847898654356
Al 14.575517292010138 9.417390770622834 12.619364801165654
Al 16.358309003229863 12.69286024853852 10.287577185199686
Al 13.647335874657308 11.706806795478924 11.309670170899132
Al 13.13198323515511 15.738392630176374 11.997901036803531
Al 8.313588285415523 9.625079039623785 10.792977265571823
Al 9.344106304822184 16.621245228362223 9.846549121127632
Al 8.251519257010964 14.315039618884416 10.826656127389619
Al 14.117348433378357 14.246048609929227 9.98252777101819
Al 11.572016534854674 13.364694916573033 10.738580505813786
Al 7.229325760783059 12.007080886032583 11.844001397651187
Al 10.903665630337736 10.551114098738521 11.53209104150392
Al 10.436213359380279 7.887876727850264 10.853000887104058
Al 15.520475599747579 10.030567520228693 10.20218269411115
Al 12.96723591982588 8.907393622948351 10.64371605936298
Al 11.920102055764216 15.857828365858241 9.56026354607539
Al 11.892334869348225 10.926007954630563 9.107263497726969
Al 9.479373081568173 9.613331437744055 8.370103974321943
Al 9.86590901182234 14.26504984445858 8.566639501735237
Al 9.259890968016002 11.96101854723147 9.83202147814422
Al 12.401951658631365 13.58922669460014 7.986681343409105
Al 11.643100103966088 8.06144818348076 8.405533242195286
Al 14.50178537025955 11.968394969285027 8.506243549763623
Al 10.182755786779705 11.926084833520443 7.21008785130174
Al 13.966375099287974 9.253666983716203 8.083113589250923
Al 12.755266964972003 11.285974819961949 6.553895739676707
