45
Energy = -142.45076483 eV
Al 11.834556166051328 9.236284144805957 9.000416406883891
Al 15.07453875041242 8.1190421244287 12.52202740325075
Al 10.687427285200707 6.853262556018365 9.471288164747625
Al 10.5436876110091 8.900570942168446 11.673072831291817
Al 14.46247174751071 9.456209084872222 10.072451358334787
Al 16.570506833098566 10.279026319808995 11.563661045578252
Al 12.643561330574183 8.875328793984506 13.472110672908068
Al 16.36335539971938 12.851616044536922 12.973771654536302
Al 10.49768776404581 11.497457741834175 9.807459664048489
Al 17.532652743776165 12.38508168719844 10.402672509467017
Al 12.48469562258827 10.876412694347112 11.570000525422664
Al 14.760822561920243 12.178542154615759 10.752758352825227
Al 7.831299921356306 9.645821968902776 11.483492144587258
Al 14.657638865761752 10.700090840165524 13.394275130239357
Al 12.432124361553203 11.27376057327577 14.818845718573991
Al 10.362013677010719 9.513379107780466 14.690723085826269
Al 8.59383179373268 7.985973573824822 13.563141542584013
Al 9.356060334211598 13.71184313840022 8.482520277884126
Al 14.812156389064876 12.650624528123755 15.27555201717334
Al 9.764982373323226 11.51438737190114 12.618502639698507
Al 12.812499316681247 7.563553736059086 11.055997354770831
Al 8.56138169233206 7.1294143411549316 11.067688403289907
Al 13.551299804316542 15.017406174373923 15.07339805616286
Al 16.06391240417424 11.041415276329634 8.596116020633222
Al 13.551330189713287 13.219849958186225 12.927050211456699
Al 11.334597441373758 13.434553062006078 11.550579033773452
Al 16.182869759449442 14.604041490413149 10.706318608905741
Al 9.124207462763437 9.173933692801727 9.146493378205586
Al 9.132385106046033 14.556508436235362 15.740263641085152
Al 7.876291147850517 11.610782427272184 9.283373618318466
Al 9.568853561602669 11.85837505541039 15.565563224706391
Al 11.259334650533253 13.582522470420376 14.314616160876188
Al 15.009588576275275 15.548699036346774 12.897329841416525
Al 14.757191949621859 13.65474571355262 8.433121898724528
Al 7.68746234455872 10.548072022501431 14.107818885758288
Al 13.198939680372915 11.419115380018937 8.647429242997744
Al 11.155961871147525 16.204498495153192 15.123902327476351
Al 7.891100684205392 13.325812299808526 13.777284719179349
Al 6.8181987058901345 11.998835902285157 11.791368748807816
Al 11.992321988038544 13.81998457996573 8.710063184782245
Al 8.674071459491316 13.732119900736981 11.01491245466995
Al 13.498062237414373 14.84848851615976 10.622587902956404
Al 10.636177132343155 15.748842427224085 10.296437039202099
Al 12.334548687050326 16.11612215742886 12.681350105593125
Al 9.690826392277595 15.367077834605288 12.889678567833508
