43
Energy = -136.33603694 eV
Al 16.494470696753844 13.719501724967301 11.278547507669089
Al 17.415894934024642 11.77225325941901 12.973356787132005
Al 16.84447914810422 16.293887344516854 12.381391007583666
Al 16.14881824538631 14.057954572774115 13.919395062711445
Al 16.23453398747712 9.358342278308754 13.10241939372753
Al 15.34058896979151 11.23323890311632 11.234772648538998
Al 14.372183687390994 13.183825540227662 9.700291786945185
Al 15.111465993479746 15.845858337395223 10.299741020625774
Al 14.407302297031501 8.652035475785235 11.11447799682206
Al 13.707799486976416 13.243167396835497 12.416376366335125
Al 14.279194022902606 15.958741461276853 12.994465788055397
Al 14.97197071734037 11.567140579403404 14.136475380518787
Al 13.84470504951827 13.90058979636112 15.162638080882994
Al 13.91232998128704 9.089779518519777 14.504405491218334
Al 13.522375445071397 10.547883058808225 9.290641942215855
Al 12.911293617992806 10.614605206623928 12.354206508267659
Al 13.397941521955518 15.32332072614621 8.281706881728887
Al 11.804575846225875 12.607017626955304 10.490576572913133
Al 12.659057900787406 12.640385854062758 7.7827974075088555
Al 12.527115103094012 15.23569502376739 10.95533420499198
Al 11.775827622097205 8.627698179691397 10.346770513219202
Al 12.498509400937294 7.623920229112297 12.85661090101057
Al 10.074735507644116 12.777745127010325 7.219318124357397
Al 10.825008987346926 14.721444224407858 8.953603108824352
Al 12.692166181221054 11.367354766813744 15.570013317927446
Al 11.841918442299352 15.126876854244252 13.62981701114862
Al 11.159008093858334 12.419813163407559 13.38455718513878
Al 11.213077815182109 9.593656379729007 14.273390508392904
Al 9.963374516254007 14.68239545606553 11.592328331956352
Al 9.904114060809599 7.9795811086899855 12.356012934375908
Al 9.11440883865485 8.725534469563254 9.87637685143045
Al 10.218537886811157 10.642641913107447 11.504654973228595
Al 10.770979164070841 10.637188140018035 8.76055272552837
Al 11.407822524077543 13.856940752960128 16.184403142249423
Al 9.150555553370088 12.703027167851952 9.790580503379607
Al 9.994902699451988 11.589261276153923 15.75399878884362
Al 9.35729336299571 14.31563115925745 14.387216065009993
Al 8.678594681411592 10.038438637523784 13.709186899958492
Al 8.511391747079351 12.602208691955598 12.415545119146282
Al 7.1469000755509136 8.433340572962178 12.002474136455191
Al 7.451775903236076 10.832662309685244 10.596720257481461
Al 7.5440071415483 12.367650712405046 14.990755581121686
Al 6.348373015281207 11.041144895893604 13.02247505720275
