44
Energy = -139.63979039 eV
Al 6.853579021209972 12.003475284147585 14.057416331214213
Al 7.332217661402284 9.340109766515932 13.32229508111131
Al 6.592052527096356 11.666788270877241 11.367379734729845
Al 8.799092410930875 13.473351146131645 15.136467646533944
Al 6.689966969133156 9.146477299818708 10.525238826580248
Al 8.73648172603028 13.126297309763533 12.393082616759797
Al 9.816940202273798 8.338369676775576 13.768188605073561
Al 9.274686317162354 10.87627410888726 14.510398232829397
Al 11.333431007911354 12.435224315755232 15.562680112562754
Al 8.083699579869023 13.2343006183859 9.785892848383291
Al 11.79709624097892 9.99081243408228 14.68448111528029
Al 10.018658513474135 15.2512597905552 13.492195349523971
Al 8.686056702152568 7.700949051410137 11.379338718339863
Al 9.302257497387384 10.418065994188478 11.675213642085817
Al 8.307477453645781 10.632233235620275 9.006318809720693
Al 8.917686306007388 15.49876233117402 11.03886998298114
Al 10.88917072060345 15.036218200260507 16.08089622563924
Al 10.55897963796703 8.912515939169436 9.638289752388472
Al 11.22547587838993 12.029169946943082 12.784096974160947
Al 11.225444202006637 7.02321852249472 11.555497823907556
Al 12.09619934902625 9.57005057013307 11.907265864982644
Al 10.60836267539222 12.086104070040104 10.00810874088104
Al 12.63436085310078 14.407325294411876 13.996805018908601
Al 12.331626282310939 7.472580082176487 13.904125859104976
Al 14.726736785577485 9.441380436912974 10.980225290520202
Al 10.619620794797349 10.562574110146166 7.49611707464969
Al 11.442728446308221 14.359274836118892 11.442410229853893
Al 10.436367843101698 14.614967587241065 8.976341490021305
Al 13.658968677225591 11.884845892267462 14.069195386612963
Al 13.501579391617438 12.31054140602121 11.323157207843712
Al 14.290757083766728 9.265619763945715 13.59007908961931
Al 12.734104668449042 10.577738026976949 9.317158485967415
Al 11.974533308098383 12.910293304993916 7.7232144736167
Al 12.48250018053209 8.563496228841412 7.270900733505967
Al 13.17421726696222 7.763146758943136 9.72316470020047
Al 15.476519270137162 13.855550403822319 13.504882064722597
Al 13.295780283575073 14.553196163795453 9.523034680217958
Al 14.004554460804037 15.464148401238392 11.898093416334
Al 13.396806819353243 11.014059509189012 6.546497360561896
Al 15.903277673003515 11.287783785735908 12.642770240555095
Al 16.551932538328142 11.203125087544715 10.048850286971193
Al 15.075266180448086 9.618069718463632 8.254745044240481
Al 14.54571389633985 12.433420118613304 8.583585576515231
Al 15.731663179237062 13.781463682595357 10.639661736911576
