46
Energy = -146.1158338 eV
Al 12.002054861523323 6.353263229294899 11.04715745466175
Al 13.117272916582563 14.407052168651775 9.48475862256449
Al 14.530902670872363 7.210877031459012 11.265751531186456
Al 7.855106324045855 14.954873428493908 8.401559191139722
Al 6.7543577111007655 12.706285089033566 9.63061466038892
Al 10.206131458857522 6.3621645766061 8.808385182361276
Al 10.94478206948938 10.469608010848054 9.022080282984739
Al 8.840761248960757 14.278418092431995 10.933908158422426
Al 7.377560915701417 12.585485297024247 6.798623122178696
Al 9.658683892400669 14.085898621575447 6.359794379419703
Al 10.638107518406285 11.130383521383758 15.23075711495888
Al 7.785063984663761 10.352128244980603 8.28147019363934
Al 9.84507195198711 11.182128918680899 6.486239482425049
Al 12.733473242102066 11.724868444533614 12.679703542551696
Al 7.905757986674356 8.282218735488238 11.956174780983067
Al 6.443309547908237 10.273229367704642 10.819056872095251
Al 10.307758926674978 8.412388555500058 10.59291102568347
Al 10.619705750024217 15.01957173384094 8.98737399351003
Al 9.28670164258235 12.658584261210736 8.681428261065644
Al 8.430254332322171 10.307061422218286 13.720654024404505
Al 9.036006277118542 10.834544809553119 10.842950159401992
Al 14.610560180398856 13.333957592946529 11.382946965195826
Al 15.338506867027142 10.804402737412193 11.09848057365498
Al 10.064100753508818 12.45534652754161 12.744716536837926
Al 8.51559058425102 12.833348308691656 14.871588049199588
Al 15.178733114750692 11.72348776290687 13.889030345515634
Al 7.956504442539973 7.877670895822324 9.304519463079664
Al 10.927616920136423 9.737410549825526 12.858353541202652
Al 13.071701805495632 9.809347460913738 14.872107419606968
Al 10.062662123569101 7.107864574245164 13.027690364413091
Al 10.083319803516927 8.59208143048598 7.174538707882359
Al 7.298532811224572 12.47248858323019 12.358479840115224
Al 13.721985277897842 14.229724632931713 13.720290596774337
Al 13.467858701483575 11.594375105253272 9.268276018320977
Al 14.682435430599293 9.146052070088857 9.071425124067142
Al 12.364320420947994 7.972413388959124 8.591011024654485
Al 11.535950947686752 14.793588005563251 11.971519446085797
Al 11.062904371445404 13.897935295370148 14.78700212715959
Al 12.479249331858568 10.22364377941571 6.889518274061521
Al 11.833619204192106 12.88078205841843 7.467004368061181
Al 13.115667261615354 12.371048772447256 15.634669124583203
Al 10.790391215393289 8.40546537421917 15.244318146343325
Al 11.281564788498232 12.644013588671081 10.429186449402765
Al 14.986226177097052 9.058479848295667 13.111616027170003
Al 12.860209711488016 9.377604920179923 11.09551857919002
Al 12.727844368111223 7.53193616377036 13.444526505641855
