52
Energy = -166.730657 eV
Al 13.661302372827162 15.05193408002822 15.00167460810226
Al 15.36823322115109 14.407540414700179 12.938948244082546
Al 11.933796656657734 17.114403904751523 14.883112279176878
Al 12.400206864928446 16.0270226069555 17.305223763140855
Al 12.488220594148535 17.01429848353674 10.177051665187442
Al 11.516505303549586 18.12715383969111 12.483695844038197
Al 15.95993096238895 11.755538875714668 12.738234034348874
Al 16.31907368789892 13.49680526495531 10.605468850770752
Al 12.98098366906604 15.745633529067922 12.542259626222323
Al 14.10480724293292 14.919630361852112 10.142964147295094
Al 14.127677517552982 12.469343188481432 14.556769239606835
Al 14.240483997249827 12.314722990427011 9.219707081900232
Al 16.620883294717206 10.899046549332235 10.163190961488471
Al 11.710760343365891 13.34406957099966 13.551896233472908
Al 16.38427993193093 9.063608514936401 12.269713118271355
Al 13.493755994818406 12.748445031428409 11.782783701867286
Al 12.151994735243635 13.693758729413128 8.088634495859093
Al 10.581750024678739 15.808008437439241 8.543106272649556
Al 10.644505871460936 14.653584232133815 15.773554937446866
Al 12.840946973738314 13.403101641213176 16.940868607466864
Al 10.299616834221508 15.62532865361641 13.252356629092272
Al 9.796758419428837 16.82746464997287 10.889205583639253
Al 15.171210611174004 9.97416479158866 14.602129691883068
Al 14.991018607017129 9.719944597199214 8.448388556815361
Al 11.330943900916374 14.369923654999605 10.913792320494446
Al 13.950140852472718 10.24219881724243 11.216533050223708
Al 8.576300540306146 14.47035537788434 11.56141729318339
Al 13.396835887248352 8.196906193221286 15.771667856872972
Al 12.428837990908786 10.40284233349964 14.026518883132304
Al 9.458588562384179 13.39677956870324 9.155109130383059
Al 13.340954772973266 10.763620391091617 16.643685413033047
Al 14.794688655987782 7.777748159482812 10.402346329094083
Al 12.855341199177948 10.990363446572754 7.305120685866893
Al 11.522883612973605 11.432709753062873 9.663076251587212
Al 10.761163807724632 11.880570986231934 15.803496991402216
Al 11.285489894882382 9.662960583622413 11.747165272712213
Al 8.996858258986006 13.293322198184171 14.191243857424181
Al 9.914382412989028 11.991880748676431 11.787308881908132
Al 10.282095221942559 12.057587192695124 6.962059260710207
Al 13.851006318355148 8.15104204817644 13.065670396211004
Al 11.375031984993214 7.763427645856502 14.067760637926659
Al 7.366225311982432 12.242952853718231 10.637107980336904
Al 12.562606589484398 8.814273561485104 9.113142056432226
Al 9.605190903982988 10.006351931339337 14.012954783223268
Al 7.422126927926839 11.404497354176964 13.214468194231896
Al 10.961703025495666 9.309360331263084 16.27551202617556
Al 8.823602768784374 10.730472745565951 9.020823866673213
Al 12.172012891620211 7.0893845479129425 11.150632606965095
Al 10.571502007946878 9.430080445055138 7.3640339988969385
Al 9.996775064920268 8.247675180353347 9.679948092340032
Al 8.263816413541603 9.603226948882126 11.473889026416911
Al 9.631258442721846 7.360000017385688 12.159644638094585
