52
Energy = -164.69888593 eV
Al 13.339846015557487 11.566462557154376 16.84898402530282
Al 12.32527866916024 12.795752793185718 7.2427244378703515
Al 7.208702864602681 12.147220135608583 14.436263167260911
Al 7.338321210314177 15.09776524647352 10.89736600904971
Al 16.118992090711547 12.236281091299498 13.424246964433188
Al 9.915828466198295 9.740668383660699 13.090327849474383
Al 11.018891620935856 10.247252454480133 7.733348777186834
Al 6.582853075442487 9.607359679635522 9.719343606916436
Al 6.749036512412509 12.344669259353214 10.111191924475701
Al 13.86422822799123 6.970269924126174 13.394110990204315
Al 11.441370332482725 11.744573656755094 11.912583793774076
Al 13.406674705112188 13.574966918769167 12.38942684995689
Al 13.278894639042212 15.680156236856503 14.116925875140009
Al 8.913503691556059 8.680530852466411 8.644593829497769
Al 16.27856505197475 13.017248191480126 10.84330226384972
Al 10.571866014853033 14.901633253024109 7.787204675136134
Al 14.699241565714809 13.20804514871294 8.506098381933327
Al 12.164802075162493 13.471146970195303 15.222281001351336
Al 9.809987814128382 12.524759110154035 6.449998291650893
Al 11.470698157272011 7.690050363247423 14.649481353432693
Al 15.450891960343464 9.367289895106264 13.520312120667722
Al 12.356595715334427 16.19422286812552 11.570269324361519
Al 10.799609707102807 14.45860075837887 13.007978187574986
Al 12.424154588085873 14.205265477656415 9.701159614097728
Al 14.722125625973746 15.269697125828754 10.4660143405448
Al 8.146841077133264 14.093146728641248 8.522272469289234
Al 11.408015283220722 10.238956862943695 15.445983931188188
Al 8.142561797268359 11.225514683553074 8.028524358561967
Al 15.656121242371444 14.963925556554697 12.980817198165647
Al 15.72065350765566 10.935615944279878 15.71062523689376
Al 10.282101930604274 12.621371853153407 9.312152266335955
Al 8.212894604962473 14.594629293295785 13.850834413190693
Al 9.988138290757956 15.267834130514908 10.442329616575803
Al 10.514557525484754 6.981792660340916 12.3214770030355
Al 12.713224079350272 11.388925399304519 9.52511606071301
Al 7.1704864081657735 10.418839560457712 12.431257378910376
Al 11.138532163258958 9.161305209831363 10.403145808653424
Al 13.785569274702075 8.840346246638036 15.581818593651118
Al 14.88762100614892 8.535235987466464 11.047146216199554
Al 12.636240228201805 9.254947300505025 12.725643027615968
Al 9.024425498952873 10.67785039880849 10.51818973818792
Al 14.294549446748615 11.157648767270903 11.607120657788043
Al 8.821120375965618 12.909623688606295 11.857849505236107
Al 16.931881599029147 10.398029989824419 11.37210745286247
Al 12.732847344938833 7.0442668808494115 10.81817827353072
Al 15.327411423440923 10.622646397014334 9.102436899647849
Al 8.370903939390367 8.152406297525944 11.309421780016683
Al 9.856261747025927 12.20783584759755 14.41069889612476
Al 6.029356606976578 13.434986184410032 12.43214133321227
Al 14.903186418296123 13.641347095178439 15.428208381592182
Al 13.524485239739413 11.401546599638017 14.134471467178637
Al 13.18979174754962 8.799712856104957 8.656852617931206
