5
Energy = -10.12947062 eV
Al 11.57753901522139 10.704219603475776 10.24278424490301
Al 10.154469870253216 9.102094510178478 8.509894222831067
Al 9.11277429133606 9.85454151987933 11.13583870116366
Al 9.486956192442552 11.700249105690496 9.129291106277783
Al 8.643810583465545 7.603669406130823 9.967335645930392
