52
Energy = -165.37626239 eV
Al 8.493480943804778 10.781465939718874 15.567224847291207
Al 13.129173977335762 11.058611824183084 16.34128532764657
Al 11.563359853948644 13.287285548451301 16.815559028840248
Al 6.101057312261672 10.991353113945443 14.214475925639782
Al 14.455964202676645 8.747079460681848 15.461383332712026
Al 10.287844359323996 8.96040783114141 14.671381919744338
Al 9.06324774192092 13.452729312730945 15.667450633338046
Al 8.098514435608744 9.321211307321269 13.18580646814935
Al 13.790693681428131 13.64126839246035 15.331413343768608
Al 15.0900195602479 11.434670725502771 14.604058654798958
Al 10.962971363302684 11.747285449931198 14.59565351593806
Al 6.298445643491281 13.511256342905932 13.089497263643665
Al 6.483762963211357 11.093164334139047 11.558452302443257
Al 12.343771858103917 7.254653544386636 14.62996556595866
Al 11.401986973314985 14.487889417354435 14.361658093609993
Al 12.706078819040933 9.92630652067412 13.857844696752556
Al 16.35292124668288 9.269341627408673 13.601895943871849
Al 11.597856025862198 7.83723262643709 12.105358730798951
Al 8.590737161922249 12.023393555803024 13.103259518863574
Al 10.595740727991439 10.418179963895014 12.170882660527694
Al 8.704150048314148 14.765672753341365 13.19328542033899
Al 8.457582932766309 9.410056674304785 10.60777062951244
Al 15.609464836172066 14.015994405652759 13.481069200872732
Al 13.189579735077018 12.490746685984602 12.846709643835588
Al 7.53160181637805 13.520698648525443 10.77997489692847
Al 14.21965791083362 7.835029899721573 12.673682139637574
Al 16.087388174697992 11.656729790160465 12.15560860549072
Al 15.957162285378972 9.248114649835562 10.984838610906518
Al 13.433645149570944 10.19107080061269 11.327785428662999
Al 6.999373218767105 11.251283935046692 8.940869470697962
Al 13.58573364374688 7.78111369771363 10.022720355879189
Al 10.786194439089797 13.280809988788889 11.94064650853054
Al 11.114873958466474 9.141763207327033 9.788856497448881
Al 9.641559850981524 11.859498285160972 9.841395659193276
Al 15.766660075836409 9.075642616423796 8.366657382295498
Al 17.341245616901094 13.833420208079025 11.288574362057611
Al 8.254211607444882 13.60575549808219 8.109251997450233
Al 13.377027928603448 15.510250706509122 12.772622057726533
Al 12.40150144917021 12.247214791252462 10.057787361686842
Al 14.489294086428952 13.877228261627156 10.892443562722455
Al 9.542632171113237 15.006191108840438 9.997414386677331
Al 15.429781732965901 11.737169089304944 9.428375705451531
Al 10.784684883886207 16.05090734896527 12.149379625323741
Al 15.80307618997186 16.11708723267301 11.744974745153968
Al 13.372570991295442 10.114743004492157 8.530485555263931
Al 8.990099118962837 9.71954770449095 8.082349427228365
Al 12.217419082362301 15.211359839243446 10.045602974444144
Al 11.000417081489305 13.700597960698868 8.05837484602151
Al 16.299419146164336 14.473619014768577 8.92152890823976
Al 11.165569901123785 11.08152241575867 7.623098182221997
Al 14.480736842037203 16.370026426011815 9.419490053807266
Al 13.75499159378841 13.783183793677665 8.213833105022099
