51
Energy = -162.23428814 eV
Al 11.817782443083077 10.67392455574082 5.482499385674177
Al 9.61219279450918 9.147340146837951 5.952628121424103
Al 9.338180391753268 11.902617782499611 6.317467953215259
Al 7.399855061960343 7.747338351463069 6.721352444856022
Al 7.080086008668712 10.42938258966283 6.992302013430034
Al 13.044718437390653 8.766645970501697 6.919937781291103
Al 11.804851289684803 13.08590784175069 6.633026441176309
Al 10.710559127653228 7.273940543296633 7.531977700022065
Al 9.682783952519332 14.195168341242846 8.022634045810864
Al 13.677382162586156 11.342526207322956 7.686204682263348
Al 11.11470777857426 10.314791603515927 8.18412474695676
Al 6.058282486345222 8.70047426645431 8.962151743049475
Al 8.80848644541005 9.012342367819135 8.58005103349713
Al 13.468538733751203 6.395328252246589 8.076573674016345
Al 8.916555689749583 11.651319000074734 9.01207242587284
Al 5.947952302616909 11.464524651105068 9.426531496300013
Al 8.479405298005517 6.261755083542942 8.780936019518933
Al 12.577176270925502 15.314126325652202 9.913593299595952
Al 7.102809740795737 13.122108989086843 7.499326260772219
Al 12.444505358795476 8.35969139983794 9.60941609355369
Al 14.9708842338555 9.311131102663568 9.02697695395327
Al 13.948929206846428 13.897496384475357 8.186552844124783
Al 12.668195563448867 13.62716836580316 11.88515914125054
Al 11.335477663654157 5.783018873403608 9.72873113091385
Al 14.203469048978208 11.80902247130901 10.379528617439517
Al 11.666860089276115 12.739640124161747 9.390155554955195
Al 11.740320914275284 10.571338571181496 10.967833850362718
Al 9.98673895065765 7.949413457593595 10.66886206939751
Al 7.558480594069091 13.785109944161084 10.105872466829092
Al 7.831475311812584 9.968721438384527 10.896321623929092
Al 7.08264047549595 7.2603821099976695 11.00465345956617
Al 9.03395771380986 5.418125081339154 11.244012833219484
Al 14.099468892118963 9.168526530901783 11.68961983083916
Al 10.119530119626766 14.690079888838497 10.760197367919309
Al 5.192719966000743 9.59278059230298 11.50059536648961
Al 12.761407694503719 13.341150990592913 14.629930382969466
Al 12.395807829958544 6.865755878465647 11.957861232156416
Al 9.41534007823889 12.12915934115347 11.524626211191856
Al 13.525366560440983 11.321582799888434 13.034951531932698
Al 14.832986781143964 6.903882188305737 10.357522536120273
Al 6.359401986979745 12.040926538315981 12.06504401460888
Al 9.838187433258119 9.737098622208107 12.574308384130562
Al 9.923005574488501 7.12112494845247 13.354810871710917
Al 7.469053585949917 5.953699390361675 13.378885117963703
Al 7.364346314489338 8.714542340121378 13.425121266236697
Al 7.9315149776061595 14.128466556956505 12.730623294831503
Al 10.401185591600232 13.743644499243954 13.458119774433584
Al 12.122817398531373 8.921113052145623 13.758289283009217
Al 8.25109996219964 11.480749618902946 14.011622218230906
Al 11.043407328026024 11.31210435877203 14.506494726201694
Al 9.51406088190699 9.226740167966884 15.166859178812782
