55
Energy = -173.97353716 eV
Al 11.208944937128287 11.208945958318925 11.208946083362468
Al 11.160254400753894 11.208945958318925 13.699980669587582
Al 11.147291268014145 11.208945958318925 16.388164833843724
Al 13.362455168827887 9.867565658958586 14.95518675820625
Al 13.046191075242223 9.53700699080878 12.313803259018734
Al 13.046191075242223 12.880884925828747 12.313803259018734
Al 10.470231365317407 13.799892749371036 12.30906223948553
Al 8.726150551676522 11.208945958318925 12.126693404784039
Al 10.470231365317407 8.617999167266493 12.30906223948553
Al 11.947658508939007 8.617999167266493 10.108832219707926
Al 13.691740468814235 11.208945958318925 10.291198761940898
Al 11.947658508939007 13.799892749371036 10.108832219707926
Al 9.371698799014034 12.880884925828747 10.1040889077062
Al 9.371698799014034 9.53700699080878 10.1040889077062
Al 11.257635473502683 11.208945958318925 8.717911497137353
Al 14.953478017860538 8.145928952796936 13.538504922479861
Al 14.953478017860538 14.271962963840595 13.538504922479861
Al 9.652118226304431 16.30525441199105 13.431911146472752
Al 6.363345921029369 11.208945958318925 13.32075800487446
Al 9.652118226304431 6.11263865088066 13.431911146472752
Al 12.765771647952144 6.11263865088066 8.985981020252183
Al 16.054541660758527 11.208945958318925 9.09713416185048
Al 12.765771647952144 16.30525441199105 8.985981020252183
Al 7.464411856396034 14.271962963840595 8.879387244245233
Al 7.464411856396034 8.145928952796936 8.879387244245233
Al 11.270598606242428 11.208945958318925 6.029727332881373
Al 13.362455168827887 12.550326257678941 14.95518675820625
Al 10.526976294264093 13.658193271888528 14.992804941756253
Al 8.656601900410012 11.208945958318925 14.881706019731123
Al 10.526976294264093 8.759698644749 14.992804941756253
Al 15.17255551461167 11.208945958318925 13.105116215918985
Al 12.39643255926189 7.021306087954929 13.544096554451924
Al 13.962848837310156 7.025210417033522 11.251280315769412
Al 15.602583920527298 9.334891533987886 11.149565112346584
Al 12.39643255926189 15.396585828682602 13.544096554451924
Al 15.602583920527298 13.08300038264964 11.149565112346584
Al 13.962848837310156 15.39268149960401 11.251280315769412
Al 8.023085803611746 13.862765798197858 13.553100790209221
Al 11.208944937128287 16.33751346677424 11.208946083362468
Al 8.455041036946257 15.39268149960401 11.166609558487005
Al 8.023085803611746 8.555126118439674 13.553100790209221
Al 6.8153323171163835 13.08300038264964 11.268328200612688
Al 6.8153323171163835 9.334891533987886 11.268328200612688
Al 8.455041036946257 7.025210417033522 11.166609558487005
Al 11.208944937128287 6.0803784498634466 11.208946083362468
Al 14.39480636311335 8.555126118439674 8.864791376515557
Al 10.021459607463207 7.021306087954929 8.873795612272854
Al 11.890913579992322 8.759698644749 7.42508722496884
Al 14.39480636311335 13.862765798197858 8.864791376515557
Al 13.761287973846562 11.208945958318925 7.536183854525452
Al 10.021459607463207 15.396585828682602 8.873795612272854
Al 11.890913579992322 13.658193271888528 7.42508722496884
Al 7.245332067176228 11.208945958318925 9.312775950805793
Al 9.055434705428686 12.550326257678941 7.462703116050326
Al 9.055434705428686 9.867565658958586 7.462703116050326
