50
Energy = -159.72684099 eV
Al 16.908832493636414 11.526302446538429 12.88528088904974
Al 16.433963875068567 11.206593533640756 10.207571835256756
Al 16.437862316525035 13.992215759756006 12.036455507663138
Al 14.39024728319608 7.196450998626621 11.319856207944353
Al 14.966506561720792 15.473815260342931 13.712395990372837
Al 14.787178151017605 10.133351800281067 12.096244297276705
Al 15.619186929685625 10.149611367196 14.77590643351735
Al 14.885566886333821 9.161322446432324 9.493667324664035
Al 14.4946693962125 7.958020577559738 13.848454209543544
Al 14.022683162272708 14.224466319664584 15.91043548974603
Al 14.645220217369003 12.699429671999043 13.743021158090288
Al 15.673542728986822 13.675433411645653 9.48284845192985
Al 13.953564420943575 11.614513924469907 16.299302900984337
Al 12.680894178171219 11.872371704610275 12.126872399007512
Al 13.751914162403772 11.708857120161467 9.732144586106806
Al 13.739950178863015 14.218450782223828 11.402507749561783
Al 13.086607236967694 7.009030361794881 8.944111114409647
Al 11.496357282096891 10.638861301567927 16.553068007174357
Al 11.469148281168033 6.461102377909673 11.08310969186204
Al 12.722716270288352 10.06362420330235 14.129892259059387
Al 12.226043839964525 15.354765523858326 14.309776354470662
Al 12.496155952234108 9.078284854020971 11.23175287797232
Al 11.928860668210897 7.398729776369796 13.515329303319447
Al 12.586529972576406 9.641465694752293 8.256459030133588
Al 11.905994010239832 12.72349592299094 14.725154624844512
Al 9.968876586062807 9.854577988560466 7.188330688525271
Al 10.481827149357386 8.352482659461742 9.419144290606752
Al 13.248069953869521 16.88661174699445 12.31086709524779
Al 10.21519371841377 9.028807460129865 14.846120253086749
Al 9.92488627482905 8.638321992193177 12.068635187123192
Al 10.314624755931717 11.292471646217118 12.957300149755383
Al 11.80609018491568 12.157177521865892 7.740823488981435
Al 10.998304623977198 11.098944626704764 10.171853098707928
Al 12.092705230387397 16.10375763274463 10.083442578679856
Al 11.059273184717108 14.003439298238167 11.980669008697612
Al 13.347080895246608 14.245237895883626 8.565888346866448
Al 9.354011110320684 11.832503410489835 15.50069985154411
Al 9.748227809148863 14.458257032568696 14.412757321673595
Al 9.070161232271804 12.127441830116041 8.338899573224415
Al 10.571324766370068 16.596377024171456 12.55365226117746
Al 8.450091304046461 9.992641841204666 10.026030676449523
Al 8.070309636140873 9.938803034986519 13.638144958200265
Al 10.62691446309548 14.032064404764878 9.293231934067132
Al 9.499138642796954 16.53770669700204 9.996381035290886
Al 8.814997446048906 12.560009649529759 10.954666835321097
Al 7.845555763891368 12.706848992205384 13.514755807842795
Al 8.41292350112349 15.068070883468826 12.104222204579672
Al 6.590495008606537 11.028127737707575 11.691090413710159
Al 7.815962501711914 14.530692710960334 9.331299593489751
Al 6.265785373394607 13.651084712944568 11.392502226017575
