52
Energy = -166.01260904 eV
Al 11.871701071937903 9.497294587268582 6.376163285319651
Al 14.554890929391343 9.887866284586911 7.063076553460793
Al 12.958552746316839 12.076642861196042 6.658287806508564
Al 13.025743499353247 7.827001641476738 8.096473504867744
Al 16.915033265106075 11.350590944801144 10.317781188514083
Al 15.592615401768548 13.623881549937574 10.879831068718795
Al 11.30029678517352 13.65009379263831 8.144747313574916
Al 14.751739894458312 12.068253497486012 8.8309212127941
Al 10.14422203719711 11.229714217163481 7.440900910841159
Al 16.866436260278352 8.999824141161875 11.644646281800645
Al 12.428896009206422 10.577390052921077 8.920697508153305
Al 14.759546690170083 9.467120273726005 9.890895731183754
Al 17.332834193490868 12.479694539401537 12.897034312215641
Al 12.327612244743717 8.147020391872244 10.609603364338232
Al 10.33812252096248 8.737393007692289 8.700142812684984
Al 13.864166814919887 14.61189202065497 8.822173584115097
Al 13.781006642509281 15.452065057617219 11.429974681498932
Al 14.980161903420562 11.218697290922677 12.218524337143437
Al 14.320830411077216 8.589326951771794 12.465423894072279
Al 9.87328565381947 14.630680154877874 10.152650153918907
Al 15.544943219698387 14.686047984306752 13.437094175045525
Al 9.972498777501805 9.24225455689666 11.357121649292411
Al 8.496008801379382 13.04593148754285 8.235062889153049
Al 10.170933891531428 11.758030065552818 10.179121204599584
Al 16.530887316307243 9.9274438945344 14.139886904834079
Al 8.017952332903736 10.318370272980095 9.210251652039107
Al 12.446383646545874 13.243364568965827 10.576390083576005
Al 12.463043566135902 10.761014113156554 11.628634604717817
Al 13.237284559927168 13.165836914366512 13.141396116813228
Al 7.643063634214389 13.127061333253584 10.72081118002621
Al 13.143733224070722 16.06998230521202 13.942216561672305
Al 11.75956754186284 8.732502127992 13.327217897645832
Al 13.834761127251639 9.839429046959351 14.808623110178404
Al 11.230722911855391 15.194398586857904 12.305168315804488
Al 15.327793805342193 12.237486110257182 14.819730795207452
Al 9.131868945571105 8.611599284450168 13.896239329075566
Al 14.167071804351266 14.490340298152661 15.894580594025014
Al 9.74217665350124 12.85380530891018 12.563086036193676
Al 7.864363398123999 10.673725592482675 11.957023807230758
Al 8.415888784246597 15.19333464222413 12.46536995550927
Al 11.328457002569365 11.369218435761915 13.914481119757827
Al 11.42052275239676 14.033789632899298 14.947787127685398
Al 12.914732371357484 12.017676557192447 16.036747856840986
Al 11.186480961423923 9.681457397056448 15.933799933925986
Al 9.896850508883416 16.245863684512507 14.48865649427018
Al 6.801547750164024 12.823807981233573 13.237349694145276
Al 12.02575676428708 16.436517625429246 16.359043824765497
Al 8.534600127419052 13.82333099428376 14.989622311683586
Al 8.743577363833058 11.145287011186777 14.543833030848647
Al 12.136457381930905 13.998180717031891 17.768090008855904
Al 10.239768408125363 12.176510413688689 16.674846439660623
Al 9.73654018648117 15.067542051062082 17.034683077782706
