53
Energy = -168.7641353 eV
Al 15.30018553748296 13.950432318643008 8.133263618049519
Al 15.908644652704268 10.864190583078715 8.03606571506615
Al 13.6401652984194 9.383326695433452 7.282522590522474
Al 16.416192388241903 13.563005299846116 10.617822107586164
Al 13.761870747320641 12.191793226728851 6.889954716314786
Al 14.719445964926694 9.050777618055037 9.830028663189163
Al 14.13237786077551 15.320752655840412 10.29562595404815
Al 12.564486876781032 14.045062407210095 8.563301985461669
Al 16.56198477083597 10.894098184483397 10.645051562470073
Al 11.693826515379003 10.668354974478152 5.882734765196338
Al 14.19274528573327 12.068686728521254 9.802833819149685
Al 12.93479813594687 13.12769881437826 11.874752910359337
Al 12.13855287638773 8.30894021593262 9.34867756989281
Al 15.272937916957908 14.845495611191446 12.700505782766815
Al 10.615324021573002 12.947769531450902 7.0955075667938265
Al 12.722313631164617 10.375081311219912 11.312210525784362
Al 11.495400018403554 15.549241724963027 10.677239755249373
Al 15.590503373678263 12.117288077474589 12.995597485463877
Al 10.052584168378987 15.319396049288638 8.303877158100224
Al 9.53413088002846 8.170305647743731 8.875009171875766
Al 10.55303575550391 12.957820117651297 10.043085903835822
Al 15.175085713007931 9.544646082604514 12.457628852832169
Al 12.786558029463883 15.657079882931411 13.080621310767569
Al 9.341198416258019 10.687140297451261 7.775826049729407
Al 11.92145102728923 11.078913088058535 8.701404532365402
Al 13.878191168865973 13.528338928800546 14.632713742011466
Al 13.271314502827686 7.7390082623935665 11.803967940131793
Al 10.508553766814723 13.68009806826662 12.865068997921103
Al 13.192630052895838 10.930130084342046 13.929986508066586
Al 8.26658477747651 13.248225574073441 8.596703590582004
Al 10.028410980322823 10.290170327140002 10.499258742044518
Al 10.068685374781511 16.2206370231566 13.256171161984707
Al 8.837988241151525 14.939086655000347 10.776287315932757
Al 14.141374840062118 8.245737477660558 14.537784098771517
Al 10.50268133452177 7.573140211969419 11.46774841180396
Al 15.34834691595192 10.629762621869563 15.442135971143458
Al 11.709700073487715 14.943321621025444 15.418332819362254
Al 7.857896790070124 8.594678643622863 10.89442232931616
Al 10.72209770905943 11.084444941415672 12.924072502148025
Al 8.244128893186328 12.315048860716786 11.573749442425632
Al 7.354874268029852 10.88121095430167 9.610485390704236
Al 13.41683357256203 12.04385274927907 16.867831993646465
Al 11.532335346618902 8.60914752656312 13.791856761644592
Al 9.131751454667228 14.313505437630344 15.517904523091541
Al 11.132397954177401 12.249085275239906 15.3003691639127
Al 12.574905966114212 9.48541383707883 16.230140195474718
Al 7.796094526959861 14.456218632065944 13.21756215443941
Al 8.879115791819771 9.11665412033542 13.293539439044913
Al 10.862964233658621 13.724113957736915 17.71104803024152
Al 8.441448264019572 11.889126885114214 14.274952682719976
Al 9.77863507393038 9.826816871777424 15.66411898640396
Al 11.067457753962133 10.978678357034743 17.863367568704774
Al 8.744592146014545 12.03752935197008 17.00818031820358
