51
Energy = -162.75611887 eV
Al 16.111635850462775 12.11376106975848 10.828722013584114
Al 13.994327425249546 14.202066947908975 9.784679609704725
Al 13.073264757882054 12.335227156698082 6.366147966954074
Al 16.030981601185534 9.629777523911404 9.223859049382694
Al 14.91340306297929 12.083194259928915 8.370987431944927
Al 16.094222398399474 9.532787888758643 12.000801778020875
Al 12.054928663245486 14.4651355188258 7.762496395900715
Al 14.664771415767085 11.297942020208067 13.291076691184376
Al 15.133739188609733 14.044689687561236 12.441738319597443
Al 12.334209500949603 16.527292874174478 9.575043498932402
Al 13.51849004340638 9.916587239259245 7.697100493921653
Al 12.187691209783763 11.965238462277057 9.105952141619321
Al 13.883020263685081 10.55509388359745 10.649673751479876
Al 13.414980665321272 13.51928113721565 14.455601603355742
Al 13.972078368412186 7.474488187516681 8.551152249040387
Al 10.979777128757737 10.78780031116648 6.970710338757698
Al 14.284821568142217 7.747322022699484 11.166207699674324
Al 13.874305377390549 8.667910556496812 13.739882526376944
Al 11.189750057792418 14.10277555492352 10.355366395012993
Al 12.77525352721132 10.779260098442498 15.062440855135057
Al 12.020620868254076 8.897450249513275 9.802379094729886
Al 12.8787514037756 15.441502222301821 12.067519736453376
Al 11.95316460816182 13.01278870035789 16.67578654645723
Al 9.779104065360434 15.820967724844785 8.752432872850124
Al 11.126575854480151 15.219262296904644 14.078500505405561
Al 10.855457395078357 12.507484772481495 14.073108832728305
Al 10.154500672186574 16.252687572146485 11.580079602684098
Al 11.95396937205137 6.148718791701235 9.774965393276263
Al 12.67213194239356 12.619585286445755 11.913408518439754
Al 8.384644832350737 14.225355803871745 10.532968961938742
Al 11.83962151770705 7.264513446944136 12.258671648296003
Al 10.03465839030734 8.301204445828652 7.695305354697316
Al 9.587835398573345 14.103588276722318 16.01872487772743
Al 11.298613576946137 8.518413497262067 14.623804632760546
Al 11.790340713547318 10.057967516429525 12.327860537245853
Al 9.66496752232792 13.046164231445541 8.25243145948131
Al 9.901329022760153 10.360261335631234 9.538629224465685
Al 10.271753053228771 10.809678736938789 16.118443662212304
Al 9.949630161280824 12.0408621111727 11.512792423275565
Al 8.87466514827937 14.1684094616145 13.177554103796378
Al 8.3530944247539 10.869195928541053 7.252383350231782
Al 9.660906929148192 7.648548198449902 10.409956907420913
Al 9.42382890754301 10.316543070800273 13.550300049283756
Al 8.696838237517126 8.481650258101793 15.59300571740811
Al 9.221335187832267 7.656968244189501 13.080937204673692
Al 7.560896111477202 8.951917317917886 8.966671838516545
Al 7.615341818259128 11.7464253992906 9.774589548932804
Al 7.756058258839134 9.514489860334992 11.533247536944156
Al 8.05472094278342 12.163757840632767 15.029010054620077
Al 7.281460864653437 12.121533324364867 12.415717872968816
Al 6.807334081541575 9.853554756377807 14.10177989558193
