5
Energy = -10.56280879 eV
Al 9.34798008720917 6.714113381498894 6.880741601935488
Al 8.07691984013842 7.661728291427154 8.8415672386377
Al 10.126528807837087 9.097875259392826 7.65377615314285
Al 6.667646324143571 9.151699972467776 10.298489393079873
Al 8.759984784603878 10.35364293914572 9.304485457136092
