5
Energy = -10.29605068 eV
Al 7.34616035843391 10.154986820824679 8.398416669333644
Al 10.136223790984932 10.186755312496203 8.343116628951522
Al 10.18006979196973 7.39833307401726 8.40127142613079
Al 7.3909440227259715 7.365795470195523 8.412112638515667
Al 8.783727944819871 8.799691390762028 10.133773486365412
