52
Energy = -166.51714067 eV
Al 9.899861070544238 14.809660155864737 8.202045605737824
Al 12.204790323750688 13.69737575388734 7.4903949948787725
Al 14.24986868963989 12.446191852146635 6.297584715136806
Al 9.733604793487137 12.24566682203646 7.3215797255924455
Al 8.330634338093688 12.114861136645706 9.633978900773572
Al 11.998904279414285 10.91259317693859 6.883635775324391
Al 14.646344522516538 14.144226251505925 8.55454818470333
Al 6.7674072884409835 13.67655504601015 11.802828839964572
Al 8.90761502386984 14.710828982788888 10.612265501793567
Al 16.386705285020653 11.759731852878197 7.836260833610625
Al 10.457331872219612 10.18088946473514 9.068723797261883
Al 11.044789353780052 12.796474043742554 9.786338537732744
Al 12.129270354458628 15.322612438331578 9.852560588596749
Al 13.70209306795436 11.666232116252829 8.894453328507929
Al 14.627049439268777 9.801850811968409 6.876195180712546
Al 9.918620762037005 11.52234874788242 11.810453335349326
Al 8.315845147007535 15.3215149630466 13.386310509047462
Al 8.62655633718997 9.163878244638846 10.638482851568506
Al 6.834125392557228 11.016848217428494 11.681506655415651
Al 16.038160524675806 12.706371591182958 10.363582606039616
Al 12.90622785479965 8.93650511350981 8.776292074374908
Al 10.16082417211505 16.62364423636485 12.00912292965823
Al 14.862515565016881 15.407071457350817 10.84704995844878
Al 6.674739609756387 8.340449538110272 12.189920713022833
Al 11.268096200639047 8.10971923603024 10.73478492564478
Al 13.333008056772403 13.253912311255458 11.20131651737927
Al 8.424540791744363 9.88100775899359 13.495839988783242
Al 15.520335923524174 9.786355252185794 9.616665022820579
Al 12.397607638043885 10.64481412361193 10.966436792342963
Al 10.798289588114297 13.96171963468317 12.56018232612631
Al 9.450481856403293 7.4472206485767405 12.749018872449575
Al 8.410906616491836 12.627564703812368 13.731870242428258
Al 15.125417918041842 16.180711270429498 13.479792075071158
Al 14.048053733866658 8.45990323381354 11.401116023205915
Al 11.178925075404361 9.626740809080827 13.190824326636168
Al 10.841153986913888 15.913032461954213 14.653287973107641
Al 15.638737137422522 13.631643030891048 12.866264283303686
Al 9.082815918471766 11.12463767078517 15.75393579042921
Al 12.509967088765 7.214485558515757 13.099539861321032
Al 14.868445078916217 11.052788972771433 12.10405518947138
Al 12.69308813447925 16.045565071396396 12.439737964043642
Al 12.408939432042123 12.006879277552182 13.376970546847252
Al 9.90217658306248 8.61774335559132 15.353085788442817
Al 13.877676974123872 9.541011087942367 13.985849860380128
Al 10.828245996818838 6.084960371627304 14.87244577065218
Al 10.64376163294995 13.318884278670204 15.362909269496878
Al 11.720079142250786 10.7713459443749 15.659551007809453
Al 13.264955855615813 14.438343615508323 14.616146453176334
Al 12.565308573358568 8.11975505351501 15.785345443557917
Al 14.763395966390542 11.944675089250131 14.756054972535884
Al 13.086905276128418 12.818214041648902 16.772801646370393
Al 14.098313054822803 10.22549841947935 16.77156922210776
