53
Energy = -169.11560678 eV
Al 16.010410403880428 14.78398488657815 16.167217797231125
Al 15.623952555688211 12.109060889109282 15.987229665587735
Al 13.426446036775456 14.015069440205796 16.63104625661722
Al 13.229681293066998 11.419551863416459 17.12552079796257
Al 11.297138246251217 12.52467371465923 15.569251778621208
Al 11.143169396990883 9.854901635166023 15.922845555737785
Al 16.071532334340795 13.884329431026087 13.5755601708465
Al 16.162864320594455 11.136980661993524 13.601564461372066
Al 14.078400436049721 15.657304233666075 14.536304314996341
Al 11.380914851888386 15.167490050969258 15.196950355726479
Al 13.66429003720603 12.750236368793864 14.138844356929484
Al 13.944659816082918 10.038658219497847 14.929094336178048
Al 8.804538880211398 11.101502040303773 15.086892731636942
Al 11.888318251343705 8.104954542284528 14.092116595017478
Al 14.625757814532127 7.978844963831068 13.428567504869372
Al 16.482593822597376 9.171825592984058 11.860037559643391
Al 12.594956658664762 6.548385679083488 12.109061436850334
Al 9.056098665228577 13.716650765954277 14.742922964815932
Al 9.522978727882817 9.206366286757264 13.407698012306001
Al 11.7662241640096 10.869994006208916 13.429651901389123
Al 9.636537892282679 15.731116503960083 13.118284225619059
Al 15.66571978893631 12.509465560937697 11.249451404592435
Al 12.205066049172986 16.380186390611534 12.846980448447278
Al 13.944580538664216 14.527042063633287 11.989527591594793
Al 13.93881159845106 10.389222897440886 11.997397996391442
Al 11.280480000640114 13.501577019954887 12.834592269014214
Al 14.361126220381658 7.934350472187051 10.69746829651784
Al 8.234845103973418 16.197520178607512 10.963061122884811
Al 10.025686840410168 6.848245252846232 12.262094185383773
Al 12.69754805170263 12.478210234972439 10.747107556430015
Al 10.096354285552284 11.323536141639623 11.504983602246337
Al 16.42479014168628 12.49052270476449 8.581518742163945
Al 10.614501073303927 17.28838183478525 10.954288170402986
Al 15.454697571489351 10.26308887583721 9.624900550023236
Al 11.554070243638831 8.944752298019164 11.259473798682624
Al 14.514850115136314 14.171802554574594 9.290640884128953
Al 8.381849553496446 13.421661407462498 11.99570546268418
Al 10.937336196267694 11.471480515138698 9.056181678472926
Al 7.553214343349636 10.854287031255538 12.472466996034736
Al 12.666831477350062 15.938373568121815 9.986437277889062
Al 8.718246789727269 8.768009518888226 10.830332086839466
Al 10.341711439436178 14.526422820340596 10.365391036315284
Al 12.971665927004839 9.307552348014433 8.97410877775711
Al 13.726847913353247 11.80641554697093 8.097103017671794
Al 8.159195863438661 11.657884355031108 9.65571854691226
Al 11.97956393700101 13.959244375005719 8.260310995510745
Al 7.674520253659022 14.253991198517715 9.456793620431023
Al 10.403101403996228 8.789261719374577 8.630054149570393
Al 11.876951335304238 10.272650449960556 6.757593904616099
Al 6.183116810825498 9.79788628801677 10.384518105318861
Al 7.712230858012568 9.252335835268912 8.353922134396127
Al 9.460012159350342 13.423099212613677 7.7389916097876945
Al 9.246571844332905 10.897217887372278 6.941781535547286
