51
Energy = -162.82842112 eV
Al 10.438280180331361 9.325000806391342 6.157497967268982
Al 9.914660924429512 6.574442941014879 7.119909605143935
Al 11.777982027166294 11.569073431071091 6.414423045710096
Al 12.472470275022639 7.954245923582661 7.100435129089701
Al 7.841995600338455 9.148782140249182 6.488258433275378
Al 7.120141715779581 7.122306354282639 8.177460389839169
Al 14.003134286758044 10.222225235340042 7.18872152630625
Al 10.94330848178053 13.796658551581622 7.6268332888490855
Al 8.535008592258073 13.825208077963131 8.658021248138864
Al 6.665779376723282 9.989395824788922 8.715211159644875
Al 9.23194207554228 11.334126243392843 7.738645108122799
Al 15.319354046027966 14.038299882352257 8.303448414297485
Al 9.353485496345266 8.687856658851908 8.710769995279916
Al 11.588772660977376 6.886300711823935 9.3730017532975
Al 9.012854183227272 6.153728134065402 9.956406585898211
Al 11.740178830149205 10.067793435614483 8.969555098679592
Al 13.970779895320016 8.462106927644037 9.327283546080372
Al 6.544922072838604 12.49667980190848 9.769875384412114
Al 8.732497631979966 10.673149117783941 10.336734088019584
Al 7.108543769811738 8.162986599301082 10.746754142928205
Al 12.954961448331286 15.001636782159272 9.304653868215217
Al 10.386275264624693 15.079492140494859 10.251744583510863
Al 15.28544162306906 10.985393092113785 9.463047976083233
Al 13.15146561754192 12.41502627412579 8.597454805295406
Al 7.742226348627413 14.871458037094412 11.104516945555472
Al 12.345964479275931 14.003553919724345 11.866405810349773
Al 10.767808417046204 12.433504199296822 10.121123925344392
Al 14.196601076486791 12.67322646792156 13.376723249069553
Al 14.840108920337281 13.519245570418251 10.860413582116111
Al 16.19617836917423 11.352732281992871 12.027490660797115
Al 13.641244684519979 6.386377020209822 11.15352643954751
Al 5.425243496940187 13.28238030113874 12.127958979016013
Al 8.076837878271574 12.391514851721343 12.094813766755905
Al 9.905920525847511 14.258950738848778 12.84045117914505
Al 12.245578598396458 8.793141048990366 11.443427105590509
Al 11.003771540321601 6.022743730659931 11.968065288115866
Al 14.887246159157417 9.016941364099523 11.856012783177194
Al 6.146787864946857 10.515964353161312 11.608903794214632
Al 9.747618103759123 8.465807443970968 11.312080495123642
Al 8.374595426948492 6.709516886636558 12.80335041686151
Al 13.097582214503403 11.30487983241468 11.190522514694333
Al 11.695787710454603 12.684924590585906 14.202179532485152
Al 7.28676240621193 14.339852073528823 13.866995987652547
Al 13.229190823384512 7.400425234773508 13.613193285938902
Al 6.371674911754751 11.603155944915086 14.148284536794726
Al 9.016290599110627 12.298395811688815 14.602949488548603
Al 10.610445895110425 8.02782373836347 13.897377600860638
Al 13.003746143809801 10.141316310907218 13.785696067518183
Al 8.205075711100674 9.611531999157462 13.383960912341937
Al 10.542477900754333 10.89471505719281 12.3952656546413
Al 10.599640180469011 10.32064856578344 15.148805317452908
