50
Energy = -158.8850892 eV
Al 16.471937762737518 7.989983906808336 10.606708015607866
Al 14.423500541620333 6.253400264956637 11.095004382269426
Al 14.850450240000029 8.756034774325915 12.706963084247418
Al 16.538858334281958 10.484595064363843 11.333975170092803
Al 12.885715652362373 6.82006536014697 8.83531486697963
Al 14.702654858684069 10.87363648413905 14.276519358901334
Al 14.629540180162046 9.65933806322379 9.50834765433097
Al 12.933161767100511 6.8579600341082605 13.306106628251271
Al 12.638570403368929 8.4057557518804 11.007361783538594
Al 11.689388804809235 5.772987069854755 11.041922829329138
Al 12.360009928813318 9.802954067090326 13.276945721028442
Al 16.1494570329615 12.778966211135716 12.758305385575602
Al 15.646264702332946 12.49849485243718 9.836133051929142
Al 13.846204834810969 11.526415632675924 11.653108769867602
Al 12.183674119000122 9.299773358224568 8.305708819785728
Al 8.23287935848157 8.176279099939064 14.201967922420923
Al 10.214534122852013 7.9147555550325 9.90563980955289
Al 10.467207488283028 9.494186539360873 15.228186639432142
Al 10.476750707052597 7.7530192411178325 12.718926428678973
Al 14.007277933251471 13.582370417576145 14.147720970328098
Al 13.303469679546843 11.841064734982576 8.677347741633046
Al 12.388723953796134 11.519994462278092 15.484507696109981
Al 11.493899510760388 10.775812078471427 10.661953009170615
Al 14.375561580704495 14.35368750073085 11.545573052535929
Al 7.989407783010277 8.079432927230805 11.457279028627767
Al 9.668317500576034 10.543279479788145 12.850307875676084
Al 14.167690071390265 14.491329656084387 8.793884224745282
Al 11.711764301501615 14.212529755218075 15.28201367690398
Al 11.714318620575602 12.629464212027724 12.949466388238134
Al 9.812750026429878 12.288511977987891 15.054099383360736
Al 10.7081531264674 11.724098565634714 8.104452137453219
Al 7.763301791419768 10.695130105452364 15.023440366218173
Al 9.44524306994197 9.42734650878472 7.844909581191982
Al 12.32711490478117 15.578148052205293 12.998604072928115
Al 11.953643314394096 13.95495617492186 7.378744625344383
Al 8.900945744133882 10.402837596427567 10.30114896402025
Al 6.7905345048318555 10.387380824339594 12.522105858061266
Al 11.890570050294224 13.701213812829804 10.190756706888
Al 6.291210194038214 9.918453755127908 9.893551172045479
Al 12.951444864315611 16.3790537976175 10.475516891698227
Al 9.675286346218934 14.647875013191912 13.512200700898628
Al 7.726252648199925 12.847792412789971 13.297272474449752
Al 9.618920726304 12.891411300410635 11.298812285744944
Al 9.252647756382986 13.999936098817422 8.843386899617027
Al 7.887613921344963 11.661888184887157 8.142637365041496
Al 11.042880506013029 16.19621286760765 8.566486457400183
Al 6.9254080521873345 12.483204176974233 10.609844289955255
Al 10.3452739337468 15.79378585567429 11.199077504025555
Al 7.674294830072661 14.892110556888571 11.452646091254
Al 8.454218264309608 16.56201631386775 9.421588170555138
