51
Energy = -162.00545972 eV
Al 6.911102372103502 8.956390104522 14.049195035548705
Al 5.094398879636273 10.861044883537193 13.333788830960378
Al 6.786246745392378 11.751725401849352 15.420601830045703
Al 8.678166804824428 8.15441957740397 11.999374748648945
Al 8.558892496497 9.754481451778885 16.236362132189154
Al 7.069792532629452 10.320885692499589 11.504911933383553
Al 9.423818120392504 7.894378815504603 14.572378531669798
Al 6.912808119705965 12.804965271801372 12.748081633519568
Al 8.998649932339445 9.898142200149051 9.646635847689787
Al 8.829573258995163 10.931932794824405 13.730905826372984
Al 10.731000793630962 7.789558703735328 10.397458153740853
Al 9.22349977446902 14.418268923200603 9.25463877291944
Al 8.68390381720487 13.638065559711341 14.703617454455426
Al 8.934018853898428 12.256116416532237 10.948793211452447
Al 10.098811592192474 11.96099582088168 16.169330306527527
Al 11.37208641756344 9.769899231121629 15.044631472317917
Al 11.375040022737478 11.68270407879659 9.85371069896924
Al 10.669466063876698 10.2057792778331 11.977799759023496
Al 9.646864463818744 11.829530778182848 7.8131114500689955
Al 11.633423072131507 7.862172474944802 13.050562322326007
Al 8.50275267208461 14.76936691221745 11.980109513782867
Al 12.91409529886864 7.398704438910755 8.841648319921779
Al 13.324685046729531 6.719392053967329 11.371380678434816
Al 11.190427510340562 9.395512383270917 8.173008713141648
Al 11.045947029971588 12.513221776391301 13.52988907203078
Al 10.314470598684153 16.732393771606926 11.758052468863832
Al 14.202107401347757 9.833615767036672 15.27002110403302
Al 14.508414776635329 8.591153472885983 12.93732134553508
Al 11.103195035090312 14.048109759107595 11.246341328108594
Al 12.343815721123185 11.554297434252147 7.0919068159223855
Al 10.725340906316005 15.28941039346652 13.964539984279705
Al 14.102338963451455 9.60829862722282 8.173885797326585
Al 11.606355896383988 13.931921113496474 8.176804264957534
Al 15.483129068329495 8.489812751169609 10.426809604368708
Al 12.782335417906676 12.036516607698518 15.725426763068167
Al 12.929350083837129 9.577971928518455 10.687523135423323
Al 13.025700787957096 10.831772989197887 13.118109806382996
Al 13.97741861511468 12.206988301514516 9.325068540684931
Al 11.573335643792541 16.226311898744072 9.551186619033754
Al 13.474666503422274 13.103773332921579 11.871206769514037
Al 12.987838490076781 15.905593308650422 12.059135013046335
Al 15.412890827102812 10.948186912107333 11.80357840438196
Al 15.228766311481564 11.558439141145051 6.8400394327194025
Al 13.958102996169652 14.978829290875263 9.595854154167103
Al 13.908067618385038 13.910010132646704 6.963455868773916
Al 13.153439797044145 14.27730179743745 14.403866854069939
Al 16.50427614983798 11.006304932902198 9.231971204502166
Al 15.162237416788972 12.363191904279878 14.131835100947905
Al 15.980274680319015 13.463088727950755 10.827899635832056
Al 16.305514656533802 13.763413294411778 8.144802883840553
Al 15.31351122495039 14.906330345117645 12.984350103904122
