54
Energy = -172.17805413 eV
Al 15.326353186867847 9.388528654356998 12.794142073139547
Al 15.289781972752237 12.11105219858261 12.763412031056875
Al 11.885954222242972 9.081507828882684 16.165832835498588
Al 16.473399616920997 11.935312742246534 8.147790263793206
Al 13.673169312006914 10.502560839885538 14.552311570042237
Al 15.385468811191922 10.543929560159048 10.408077300538626
Al 15.832262098793823 13.37131858924121 10.29951191700901
Al 15.226905686848166 14.835742434579927 12.54990503747993
Al 11.972046862346216 7.046343376296977 14.320045280935789
Al 14.612839807238307 7.726452185848862 9.855476501752815
Al 13.049494183887846 8.02717122526874 12.130390683602203
Al 14.974187058356057 9.700504873712209 7.791513825078974
Al 11.574660658325422 11.779790873452818 15.630612882042158
Al 13.788801187483891 12.122909645008228 8.861031225249432
Al 11.300193361608457 14.463165392131577 15.526733123271914
Al 9.415730136974982 10.17353404542071 15.802735346220274
Al 14.719644810636831 14.30746976397513 7.581042394323951
Al 12.863019900243048 11.069075537353463 11.949203861527666
Al 11.313851991028246 15.058296012372214 12.887166838264061
Al 11.18457540197242 9.736113372700112 13.614743311681691
Al 14.532160292127076 12.0260427988926 6.1514749225056065
Al 14.426630293805756 15.665761587534275 9.976632656930725
Al 13.162068490559003 13.322539477188224 13.983878806764146
Al 13.171768170465956 13.604101231249247 11.23325150025448
Al 12.824195050761388 9.72857643061232 9.607477447221394
Al 11.534983197340697 7.326779775379197 9.911826266332708
Al 12.937680857925912 7.809204909424224 7.597718002207624
Al 10.399080509325426 9.111830228392641 8.138993463679375
Al 12.490486200304339 10.274944213714681 6.597049757056829
Al 9.10064283733414 12.952787724653492 16.036970839301983
Al 9.45689695662726 7.646400893334213 14.786639160125011
Al 10.102076169055028 12.668636174458173 13.465000917013374
Al 10.188912995004518 7.5113188124513695 12.20051111562933
Al 10.559079264866957 13.164557827057916 10.788513087852367
Al 9.030107811265527 15.372552268599922 14.436764661665643
Al 8.620333225565277 10.004003673595289 13.044943348612708
Al 7.002078438071307 8.74996807279142 14.919586401935442
Al 11.918763342404498 12.988001013160785 6.245990113945508
Al 11.257458638241173 11.632680924829831 8.715453766568423
Al 10.546856725269834 10.116094708087237 11.007513156168702
Al 11.906741981458678 16.14083539327958 10.599024412076234
Al 6.983875518870644 11.297990571596099 15.785272046833859
Al 12.088493418499766 14.314402252808433 8.65712757123109
Al 7.384658245726228 7.549666317039878 12.402446851379988
Al 8.719065651503625 8.233241767688764 10.07073642907589
Al 7.36029114893263 13.303371423419804 13.909538183113456
Al 9.804534710275203 11.15711500848722 6.441168511832803
Al 8.71999621715549 14.82223060662644 11.850027099597115
Al 8.029581181382568 12.201961452523138 11.549800118503695
Al 9.57601159894189 15.57186678981247 9.424641601787298
Al 5.972035737292353 11.006539302384361 13.268916287074195
Al 9.507266781774474 13.433831204618032 7.91370496660235
Al 8.61749321422946 10.9946823875597 9.22973078609323
Al 6.744995074191246 9.85346564065106 10.973436354013177
