53
Energy = -168.38872025 eV
Al 13.299865720635069 13.993159256716114 15.22859341088626
Al 8.771988484369537 10.886845806161968 15.912484223239288
Al 7.78535569773976 13.268322624285261 15.319721064320975
Al 15.454647303682801 12.583253263672347 13.833444964570166
Al 10.659972795559735 15.233709234807558 15.204941501376142
Al 13.507783808881376 11.467293904455543 15.803616892006058
Al 10.967503870946253 12.522981029103022 15.291494648761622
Al 8.017119589133827 15.68734010024208 14.19860219094936
Al 12.796127957580437 16.57873077741148 14.248735647494088
Al 14.87742604385024 15.12459706349565 13.235693415301697
Al 11.547509904153554 9.84467021079578 15.135297315293021
Al 15.108040289304842 9.877466978908338 14.373581107315895
Al 7.008174731105999 11.191725710219993 13.765302056869249
Al 6.4766028190247 13.711205057370865 12.887887106348304
Al 16.918459803863907 12.966391585523061 11.282581071673066
Al 8.183682165000965 8.828656875589385 14.359894019744262
Al 10.377639293570542 16.547066201013415 12.741843570847003
Al 17.529311659792096 10.773289051879141 13.503317707168673
Al 12.158303350706746 14.249640196134834 12.770001708017666
Al 15.158287296577637 10.705825829367706 11.748581889958944
Al 9.778290249806417 10.932989095937364 13.37433177557757
Al 9.580121034376049 13.64803131698492 13.197896709246796
Al 12.979405232787261 16.475108464006578 11.449211487146245
Al 12.732658036044013 11.621087434695866 13.156568022037108
Al 8.210295765690413 15.202067993794557 11.392583235469639
Al 15.449152869130442 15.507493841247944 10.708087551640913
Al 13.13296660110126 8.959910731315558 12.78053555523636
Al 16.513383275994606 8.454266052036038 12.363749453145285
Al 13.119152668201343 14.68474006943523 9.256381286687212
Al 10.775590733514056 9.87872902574075 11.110597693328264
Al 14.248551506381917 13.04677836399655 11.030211871295439
Al 17.87429885808295 10.395173758690074 10.82987915138835
Al 10.494365062158712 8.142728446259323 13.25828515208696
Al 15.692452130203002 13.982076667466181 8.60631910888467
Al 8.438646656641824 12.143627426206235 11.447923434965713
Al 10.802916277882076 15.116644030732006 10.484950100922104
Al 11.63024228628557 12.483842183897222 10.724169230864145
Al 6.602751524129429 13.629799604203622 10.01692219454465
Al 9.339010597611336 13.344359400196577 9.232143825789995
Al 14.463355556419783 7.340563772940679 11.090631903589205
Al 13.290113894006957 9.88593352439269 9.987959821387284
Al 7.712022665954336 9.52789180039325 11.709048123341283
Al 16.019254259132342 11.491906784661495 9.081741729168636
Al 5.688444640122757 11.479425588712653 11.404191992632313
Al 16.02355707362359 8.885191708038526 9.532967616284685
Al 11.812423514355368 7.336550355782703 11.014620373292406
Al 13.313363878146747 12.17137437546077 8.44731665491768
Al 10.71075598500764 11.043497734826435 8.609535287611816
Al 7.537852788663013 11.226068452931624 9.117693571948546
Al 8.863327537433417 8.919425959437916 9.29101645708455
Al 11.251991216118904 8.357811704820733 8.538021816090032
Al 13.795413406633777 7.631094553078591 8.48662793856957
Al 14.50038258149169 9.992300186471503 7.440503503675539
