53
Energy = -169.4686873 eV
Al 17.07909463206542 11.53147606925421 9.09912818643049
Al 17.908046003307426 13.609005835257497 10.734860997233579
Al 17.004446726416514 11.670820452539859 12.422540317206748
Al 15.602805165061836 9.997276738789036 10.829217615019138
Al 15.580684946442997 12.186666132852237 14.852752428310692
Al 16.066632147627363 14.162465758010486 12.824391919074268
Al 15.327847016874944 13.621543052745706 7.995283212977205
Al 15.582113533270109 9.681029610750167 13.584226091772692
Al 15.14885423909917 12.747184228108338 10.601503099091913
Al 14.537708593974733 10.919147099471093 8.513234697403075
Al 15.870923094302823 15.343439411880333 10.236494752002447
Al 13.81590581688295 7.721787802731844 13.897585567669868
Al 11.522306176761997 7.226539249112217 9.159574930471706
Al 13.32124504052261 10.61659973490208 14.837979062434258
Al 13.644071435006017 8.58984762450123 9.894466954890461
Al 13.736654572405389 12.404550643374776 12.79518897807391
Al 14.122328357070426 14.516053412935905 14.612735551398117
Al 13.528890520016413 12.751742338923151 16.65653212746402
Al 12.160825094756122 9.88797141119663 8.117074333507654
Al 11.858747454176791 7.43751957387664 12.013536514788806
Al 13.948133983099613 15.698933991557935 12.068288624780614
Al 13.278380204323867 14.606202640199168 9.655012950162025
Al 11.511280750956635 8.602019941610108 14.736856072108422
Al 12.66603426250638 12.728782174924765 7.6498748845964775
Al 13.044727252598173 9.863176651469866 12.305873666176003
Al 12.545925830601544 11.85180741543768 10.327902502893693
Al 12.294857062237954 15.251625748309527 16.455542131442378
Al 11.239403234989577 10.860978313074298 16.46597877148958
Al 9.17394777138949 7.252826201339025 10.570616359405776
Al 9.565079725836652 8.926871697527357 8.31789563543114
Al 11.615888218694392 13.264534310382178 14.715882482108476
Al 10.889831614604859 9.673432944229903 10.652319161376408
Al 12.064349273610029 16.086516305570477 13.869032042103894
Al 10.81828902688553 13.278588718049306 17.73718184462537
Al 10.839681431170991 11.055808303795574 13.478516484533284
Al 9.444453331608827 8.6128069876636 12.850232795466837
Al 10.71149859987929 14.19691432485348 8.992467893010108
Al 11.592716997420206 13.849980840005502 12.02196853917453
Al 11.477346221513402 16.304593490650642 10.929758795263957
Al 9.05479030556179 9.51335180721325 15.370529691216454
Al 10.22239775736936 11.684135906296813 8.05604998769836
Al 8.063620028927698 10.075407560459338 10.536562122136628
Al 7.688196503196021 10.661515193519204 7.813563702383959
Al 9.067830226991349 12.21242545675313 15.662542346887443
Al 9.85737547953181 12.095692053046596 10.989150277051957
Al 9.571848638369929 14.914198972353649 15.702378691366434
Al 9.078552500995526 13.41088847987168 13.348683618234624
Al 9.578940393058035 16.04336993496838 13.207536879706593
Al 8.100698805058878 10.902931772877837 13.206236448367484
Al 8.944069868309587 14.82673069758016 11.007359592353888
Al 8.170492151098728 13.144926151408272 8.976825066256382
Al 5.819535777876538 11.654793881528873 9.366154947949369
Al 7.122932396793171 12.667076006537396 11.492066868341048
