52
Energy = -165.74236736 eV
Al 15.553188175533398 14.129413989258026 12.612307679347769
Al 14.183771524660846 15.283827908832995 14.915314899130523
Al 16.006418099607284 11.291518592969627 12.618344200332329
Al 14.796122964490516 12.72395784480328 14.935538736966121
Al 14.013261361518442 16.564359711411576 12.663698950832622
Al 15.710783113503402 14.505558646925055 9.895776728668428
Al 15.196095810295859 10.216091894625277 15.495778342316605
Al 11.580725880552462 16.110840927286368 13.82471742036886
Al 12.855449554711663 13.642660895211279 13.159912225289743
Al 13.89234204493578 12.277923736636966 11.040937019275745
Al 12.116718296950246 13.890138769163807 15.758855350652846
Al 14.463024168811115 17.033410271995685 10.134792081263903
Al 16.05881109835079 11.747093725412853 9.678110761536391
Al 11.597896974486904 17.003154153511833 11.070600134293514
Al 15.231111751268282 8.582220973422338 13.31286574738902
Al 13.711170965012235 13.489655068653375 8.286719537988821
Al 12.645317671467364 11.295232937362197 16.049503692452237
Al 13.040785526590332 14.754518164254566 10.757370416615403
Al 9.624665031263437 14.625415798310863 14.77925343425427
Al 13.002544149167237 8.668719656392113 15.14462067709046
Al 11.414316204173222 12.774728493677767 9.821469705665914
Al 14.806951789980385 9.439273686577872 10.831215596969619
Al 13.338654425546304 10.823923647459033 13.353043405010386
Al 12.571337522459006 16.033645979647115 8.425034842839594
Al 13.724497626456259 10.687023043002602 8.630060739982758
Al 10.452219208981685 14.337803378419084 12.017171998460578
Al 12.06978501271622 10.375230729356883 11.100853298003496
Al 11.839834041180524 11.965814861518917 7.140098593252183
Al 10.833663940265081 12.123933125347085 13.817329361777379
Al 11.070393960680834 7.08337829571031 14.4641740922985
Al 12.802098538711578 8.013264907694593 12.32350115007104
Al 9.938666291703504 12.398887042008456 16.350116360548537
Al 10.209585639509035 15.318633682739254 9.404330852649489
Al 12.73696301866512 8.27969278564108 9.504788185247575
Al 12.104806049167768 9.24878586509798 6.767733690001191
Al 10.529467191773684 9.362816070245845 13.075917889274152
Al 10.458054409562997 9.784916250942 15.72266748434481
Al 9.581468318636071 13.1943554621129 7.807045140132107
Al 8.11970059132587 13.272835843994054 13.075518031786665
Al 10.615618945509691 10.267890562533614 8.959817358380048
Al 8.282115189165214 13.712000004524626 10.357636665271052
Al 9.62210731877584 11.418968494616067 11.42017303140357
Al 8.411830311146874 8.21532891980836 14.719179385956533
Al 8.357812662320065 10.839543515637605 14.118650441013905
Al 10.361585398469193 7.733493193834423 10.856277292109384
Al 9.04041522983505 6.370393260522458 12.899436502236329
Al 9.432812304797967 10.533710500326688 6.572459717678283
Al 10.381386161814344 7.67799845811375 8.148233684973803
Al 7.973847132576863 11.436207159258629 8.910429540542063
Al 8.001229194155378 8.826010470271589 12.070025201759364
Al 6.927685776478992 11.323839084624254 11.416902369393465
Al 8.31852682568043 8.916355336346294 9.420020651137643
