50
Energy = -159.4059655 eV
Al 8.282442895555462 11.747275156276272 14.755572732266304
Al 8.144268123130859 9.393832267627584 13.219069346183485
Al 10.040277064932607 8.856600448125684 11.192624990628731
Al 9.308996120171791 13.728651297460203 13.173731425534498
Al 9.919596553594175 11.219271719416565 6.991524635776394
Al 6.75850486657348 12.311518053905 9.78381344482952
Al 9.690024267412111 9.498775543185603 15.38871125890212
Al 11.849579960541234 8.239373723929088 9.35134034803193
Al 11.185684886678903 8.365476867496877 13.568600189510311
Al 11.211811705855947 8.877773970896609 6.632250264662148
Al 9.578166337073503 13.916574573839032 15.919060336912748
Al 10.961101711364192 13.195712942543876 8.606941668520365
Al 11.778577656147416 12.917945822303023 14.386209883977559
Al 10.6551185213555 15.76874710646271 14.411202151565831
Al 14.436717436666179 7.376364864040137 9.504918088274566
Al 13.718727264783954 8.755458727567046 7.397774042415746
Al 12.456731406215926 10.241458388919833 11.363554689944687
Al 12.17017960897535 10.795349561922638 8.454741710375718
Al 10.1517490107386 15.801247657278536 8.86267916610673
Al 9.578617254241063 11.314445356966289 9.901300435891564
Al 14.979730544804493 14.67818495296827 10.743573160596315
Al 17.571682969445416 14.63956608809398 11.400499491304133
Al 15.474036155831834 8.675910105678488 11.5024124981484
Al 9.308500089474784 8.872329113166389 8.526815158340813
Al 14.734896956103904 10.219598206344198 9.382546177069562
Al 7.497195631098123 10.708365744289063 7.879335287415075
Al 13.48469044349689 12.518647919768622 10.04370735876436
Al 12.854615112529926 7.467288553839374 11.770777350111953
Al 13.929782929303244 12.016543632676772 12.741894535217613
Al 16.505878001852935 13.090839220912457 13.341075857559678
Al 7.537980171075936 9.696711168728054 10.537327308803967
Al 11.301252327044294 12.904683189158414 11.471381313364795
Al 12.520784029189603 15.074781562996069 9.860059952146868
Al 13.984411865660121 9.215270894445487 13.551976670424983
Al 16.07108544257371 12.187408925782162 10.809470822055253
Al 16.530970415025948 10.484944243595761 13.013765764132565
Al 11.978526109299864 17.53769293604638 12.883500806266172
Al 12.958129258814925 14.777125404283398 12.633520108109742
Al 10.351170344279067 11.000900948199765 13.051861687342102
Al 8.843964885338028 13.883837871898338 10.39962019966971
Al 10.523010736401027 15.667713127113988 11.622252501239357
Al 15.535777398716881 15.637776484635452 13.162083472430508
Al 15.113622128297514 11.235772695169594 15.112416620070249
Al 12.302700125517914 10.343831003545514 15.082372284616334
Al 12.304715478817547 14.636538261378195 16.495950087706973
Al 7.570761230500897 11.932403133520706 12.222686427933116
Al 13.346602300454883 12.203084920533124 16.808242373394307
Al 14.415857866542634 13.834286960466834 14.901766828509567
Al 13.414199866232016 16.3747862565372 14.803544917210434
Al 10.661587540090672 11.646313429887964 16.862933175557203
