55
Energy = -175.11905577 eV
Al 11.626182372862605 13.176513441361731 9.051271258407168
Al 13.997401315279136 13.99538822769179 8.265540755660727
Al 15.03787545374858 16.244933766118017 9.197562487302521
Al 12.992695092544228 14.957291567759757 10.541309861407617
Al 16.278435206215637 18.211712292416617 10.498965539237119
Al 10.260003739599556 14.967452343839447 10.401426836185358
Al 12.367027790687224 10.892169889919986 10.074340553580061
Al 16.51466025881131 13.740746704137273 8.95307776319881
Al 16.99149737077591 15.59344531933337 10.896949978351465
Al 17.43286660286556 12.867475763937106 11.173789510990325
Al 13.469690021412442 10.982170437719214 12.538534738000388
Al 13.029525667073154 18.327783076226723 13.407391689049456
Al 8.824233364677498 14.202485118890312 12.509972365590112
Al 13.57625157652634 13.99475791043085 13.082938081801924
Al 18.9241559083585 14.901966658898393 12.684605590360135
Al 14.556360083081318 16.547243723682758 11.948005724472294
Al 11.204265933922152 12.778965154493708 11.837512604747312
Al 14.593623524681496 12.698395924076127 10.705839240024392
Al 18.628956807718488 12.132987539827004 13.410427866843255
Al 15.889977242264576 11.745076558296942 13.060065490190226
Al 8.943647251864517 11.70276629672731 13.539640253066215
Al 8.614620092560292 15.730782276167023 14.61817846791563
Al 15.908692257780949 18.59418016785913 13.211135476877601
Al 10.904941334792213 10.031478784050496 12.069817694320296
Al 16.252664120985067 14.40144548047925 13.282586235812303
Al 11.643140889762194 16.23822654627463 12.402340532619915
Al 18.370439908237067 17.62022315352093 12.068211295944034
Al 11.471158780466196 11.673840624083025 14.431226734024987
Al 16.955441377394713 11.770501313141864 15.608261512433188
Al 9.731111400899852 9.314154227680488 14.291004159530651
Al 18.411560879992333 14.224082817547739 15.16306405827145
Al 9.581825392696121 10.943793956025441 16.48903164140434
Al 8.787452308900775 13.379253337176017 15.768873068304302
Al 12.48498524124371 9.11084500628661 14.214773399977782
Al 10.900511819297314 14.263489541595067 14.232286939092567
Al 14.397342477362102 19.961390676758857 15.021217872338429
Al 14.819512330296853 16.375098883749576 14.566850448990557
Al 11.001305871855834 16.87632326954589 14.913303708871458
Al 13.505422418047063 8.18713673935474 16.466017316052753
Al 15.110411432087417 10.201083536184965 16.83959564255224
Al 10.869774214726544 8.428362651786728 16.506134542114662
Al 14.15743418443038 12.131316041861917 15.058236594798371
Al 17.55008361504818 16.684451839591464 14.467090539525463
Al 15.816024019624697 14.161628894025458 16.065799567172544
Al 18.160662317681282 13.449175877897423 17.629165382106297
Al 16.11810624936132 18.26011307789149 16.18585533256712
Al 13.019121707989237 14.842578066911129 15.716534829894316
Al 12.41762665372419 10.665351512754233 16.766398090300086
Al 13.082839872467167 17.858368211560126 16.18726608661832
Al 17.450214402794188 16.085795028786833 17.22790339784262
Al 14.663395166618185 16.207139869476947 17.464454747441756
Al 16.337224649799868 11.801706586973895 18.528030168715155
Al 11.282045262043063 13.092311798722895 16.828887372736034
Al 13.879036443698077 13.015828453185415 17.69310130056086
Al 15.902285269358405 14.454560984300958 18.935944602797935
