54
Energy = -172.71426921 eV
Al 13.348680022515952 12.987395339578436 8.374036773759359
Al 10.338748265433852 11.041383373688976 7.330066180952875
Al 14.981171903197225 10.90686970218019 9.0812993342242
Al 13.174465101635858 10.71504957187099 6.887795787356672
Al 13.148116277339241 15.124754955131674 6.480315493213516
Al 8.246700713482452 11.778896509465955 8.982658181724354
Al 11.78349101085626 12.94625338469098 6.158149473015804
Al 9.254959781697483 13.588999749587945 7.1457181723713505
Al 10.721117727231116 12.917488918239837 9.425886698517106
Al 8.404944660297218 13.685220773309297 10.992976826397278
Al 13.225269196735098 15.253647006622476 14.894380494012816
Al 13.531472331669592 13.422834314733944 12.705090499175848
Al 11.222897732339252 14.543814750392011 16.67201970856233
Al 10.463539290040409 15.5470485166526 14.12159004243706
Al 14.816117921598725 15.935871975448128 11.328773049643393
Al 12.370365538454276 16.3958650278872 12.511206842664045
Al 11.660777333307479 13.020666943674048 14.588539665010048
Al 12.506226581408848 17.176743607595043 9.914061230784252
Al 10.21125953863692 15.690665059593506 10.921339638035159
Al 8.868790087151542 13.514381193955261 14.15961689953727
Al 7.506914706038829 11.662096554332031 12.571565968990583
Al 12.619307513778267 14.475366123232 10.443946890035464
Al 11.155508820347634 15.357828527997818 8.187890180569303
Al 14.460908307799134 15.61831167570344 8.706753185499283
Al 15.612529331394459 14.931681135894106 13.654396599632035
Al 15.244227507677486 13.348130896716333 10.359535296457024
Al 14.112736180354617 9.999185204773969 16.524527308296413
Al 12.989831673746211 7.921351169939916 15.120453317630487
Al 12.922977711394722 10.706071308501866 14.227348213486351
Al 11.881531228050186 9.461135562989135 12.161438936270693
Al 12.629332422922058 12.197537089188803 16.94649977635185
Al 12.188122573907338 6.776351366078224 12.547838953038362
Al 9.613400207377387 7.93865208213277 11.59976318459395
Al 9.524985457030454 9.188127298201513 9.129395338927738
Al 10.10757215076691 10.845952044587643 13.864036368422752
Al 7.51886344772332 9.649419738694288 10.779607183344117
Al 9.8524862288908 10.970297564859415 11.195741889852192
Al 7.944424516530188 8.939868773249913 13.458535761707003
Al 8.84647272001364 9.2495015685527 15.971066070749036
Al 9.872342677198992 12.080947211279693 16.452317523367746
Al 7.436688198393434 11.422296471355782 15.23003528282264
Al 11.409362109903235 9.692924960308076 16.46796553412967
Al 10.464507903316946 8.012342670553172 14.196892532969324
Al 10.869891620114323 13.339645007452543 12.17265472384948
Al 11.713630310116386 7.656576690897415 9.966338796603033
Al 13.986502301301448 11.031888640643228 11.677380227440887
Al 11.629184719001636 8.652716804912089 7.535601605174515
Al 16.229076547217797 12.4339192212548 12.791117071170707
Al 14.510579746179701 8.45185453481955 12.886960259701969
Al 16.418637986346397 9.91349259235151 11.450595753188772
Al 14.668965434962832 12.802698697401473 15.221619424356087
Al 15.726773241992369 10.291504891968664 14.365259810326325
Al 12.17331173987465 10.564638843941376 9.534216523274713
Al 14.229391691839611 8.57192632373522 10.275273516374273
