51
Energy = -163.00988006 eV
Al 12.09408751410032 11.199112673133214 19.13049313685896
Al 10.85113985010638 12.855584841110122 17.372487930708985
Al 9.523380871260322 14.690951624675593 15.948213126800077
Al 13.618323965568884 12.992672277643804 17.734276953723707
Al 8.234374495497892 16.759822161230325 14.710214091779015
Al 12.263680015659357 14.706712927486702 16.074186780319877
Al 11.004174113231862 16.717541944737178 14.759871099498659
Al 15.087044624902145 14.722565631021418 16.223816222100837
Al 10.843775338407472 10.1740396842308 16.762257872814082
Al 13.61701713387698 10.330506879165327 17.06007395965498
Al 13.711400580683296 16.7027419678513 14.990749781132209
Al 9.297963400964838 12.081680026422708 15.196589879514582
Al 8.189529096917596 14.18726698373065 13.513844503429718
Al 12.218362059056261 11.878810575058962 15.028730635977883
Al 14.996862720764536 12.081704796078215 15.457371052508984
Al 9.653982198559687 16.301015969683185 12.424308504057223
Al 10.913729686602672 13.920632124044166 13.574549502672221
Al 17.195170839340683 13.604305938267728 14.801325749425738
Al 15.441727808206398 9.235528218927108 15.475544404335727
Al 13.61183877017567 14.050137508804756 13.803647166240108
Al 10.10469760551441 9.822520051987969 14.003696273924769
Al 12.536801225450235 16.35436223093304 12.476674156826038
Al 12.438421602780988 8.867376319006684 15.05661261146495
Al 8.859542705617079 11.789994565197562 12.477515616050251
Al 15.893214849749715 15.923596085847791 13.776887965082903
Al 11.704480575038216 11.51008488269017 12.344129840113675
Al 13.608898465409448 16.865973042151545 10.061135598506539
Al 17.490378957412723 14.534422489330122 12.136294626593047
Al 12.1909737438245 13.919182248458945 11.123460380419518
Al 17.119904062486878 10.874704072475254 14.176477868029266
Al 10.951176221830906 16.200036780904696 10.099377847909869
Al 9.37934176939022 14.03402506703212 10.94713761138133
Al 14.349700348490858 7.757943175516819 13.516955637005688
Al 15.660596129288013 12.755780290348175 12.810359567206337
Al 14.11289418841081 10.547907852943867 13.314769134446543
Al 9.887171195699402 9.607774529547285 11.247363065012337
Al 12.03517959773131 8.626326387309303 12.405374458214803
Al 14.824618546218911 14.970789320585473 11.49567026312405
Al 13.947863067388656 11.94425516485582 10.932334362282624
Al 13.970711347174076 14.307428274951114 9.080549513078086
Al 11.08863878605088 14.00014806849295 8.566206039298782
Al 12.384956055339693 16.28130317700429 7.7190662328057
Al 12.329325538790282 9.846958509666186 9.896568850985325
Al 16.547695428139505 10.559063394920441 11.51404737915279
Al 10.303023875514677 11.789079643685353 9.84024379524576
Al 14.534762620430039 8.88247588052384 11.106856237770456
Al 16.48176195769061 12.903209636100803 10.074471312319012
Al 15.488449898979571 12.729453751924307 7.523321158745468
Al 15.118593760028197 10.486665715724039 9.05291536407334
Al 12.74440128340079 11.89158175275326 8.313146178268612
Al 13.194769753717319 13.87275313070076 6.518338947982344
