53
Energy = -169.19856502 eV
Al 11.02161516006131 11.584880282070634 16.891426230345044
Al 12.005867005962072 7.409006013390849 13.587250694406782
Al 9.282268921989068 7.760138159532312 14.319834521415501
Al 11.057943216083785 9.792397182126955 14.660383545919295
Al 8.488707111692259 11.450043742095561 16.124860643300945
Al 13.161978158258037 11.413205237365707 15.158985499059202
Al 13.890579126143482 9.281998557504696 13.705496932377677
Al 12.168031340680592 13.865796832672077 16.06244094841056
Al 14.884063493215244 11.75925443048545 12.948361929187353
Al 8.986544228886428 6.115634416069139 12.253079772845469
Al 9.422899991209524 13.935125364747751 16.077196975407414
Al 14.812432555824675 13.59296599944896 15.30568868122493
Al 11.427377058191206 6.188590140705683 11.24765384498037
Al 10.33072978394558 9.0232496450205 11.877116592472099
Al 13.000700336901879 8.437996467418117 11.255717928461488
Al 10.506592077001471 12.390336860447661 14.198240509661415
Al 8.471943814459536 10.224999322850186 13.798408125811388
Al 7.602982523809234 8.444758268112329 11.906214992854387
Al 7.868787481489521 12.852902051292078 13.74096500388168
Al 15.352353897100459 15.163152440136843 13.190151041001958
Al 15.689468482494243 9.136074848647949 11.476431735249502
Al 16.61134741517752 11.875242796168353 10.89592532756229
Al 13.262062378313635 15.956520655137375 14.66350529824724
Al 12.888359957548555 13.573428277356609 13.324306925415796
Al 12.014297470517814 11.163923217985602 12.283942651386955
Al 9.173790211758918 7.3434031615379 9.85489235688931
Al 13.971478861373745 10.946032693264028 10.39091690094119
Al 10.771668884413739 15.244660853319209 14.139053545546203
Al 8.453176848657144 9.895036238855747 9.787072384841968
Al 14.651871399711208 13.850145208755231 11.057757341083713
Al 12.878546322374692 15.864536875051114 11.858432586787528
Al 6.78543260953902 11.02825574979791 11.817430358195585
Al 11.44417039503401 9.902890694503864 9.443858782113017
Al 16.283943765183658 10.22847145140472 8.82373691326449
Al 14.197986155317563 8.538997967654996 8.894000978532102
Al 9.397421870036316 11.93298342925282 11.507194153062226
Al 11.747410330056614 7.229963059778377 8.833585834381891
Al 12.24388287826039 8.85632351968695 6.8433960300466525
Al 11.39201004140232 13.660481109666147 11.10405939778342
Al 9.117088630131377 14.820060646375273 12.168829683716686
Al 12.288975957091804 12.375640933663005 9.016984597607193
Al 9.686035367920418 8.789944785710997 7.608520767869315
Al 6.608367810551244 13.82704194726453 11.478237038955713
Al 15.086739222724967 12.909077988364514 8.643427927637623
Al 7.0980546567200715 12.171723728098614 9.346014348317397
Al 13.132306117124093 15.02525145426643 9.177926672695092
Al 10.72868059229269 16.198910764853157 10.107755788060482
Al 13.928959790712014 10.832279987963997 7.417838635460918
Al 9.62138161460822 11.858328003033733 8.407601021110969
Al 8.871702460509416 14.192447308508168 9.6349437079354
Al 11.412049679605769 11.475205637571806 6.4907818604166705
Al 13.260125189237165 13.509998363180403 6.6917191269504785
Al 10.83217454102446 14.383233127159329 7.837184894973992
