53
Energy = -169.45852215 eV
Al 10.120019014403747 7.270820325828079 7.624408434980879
Al 10.336884659436482 5.82947711015741 10.232118137554604
Al 12.455677024905787 6.707068240905543 8.845400245884859
Al 8.256665372978512 7.284412282778613 9.563191405665597
Al 9.252412713340604 12.239764903591599 7.319361988784155
Al 11.788277127857185 9.41732101981176 7.893331998895556
Al 11.929420089133234 11.887309673597386 6.796245806269642
Al 10.657306865202713 8.700017781568812 10.22792061828212
Al 9.357449369081328 7.373288050132639 12.266598121169
Al 12.095659011474172 7.053327942102518 11.873370245121201
Al 8.022362627438795 11.898593309732993 9.884945502964559
Al 9.003023249580803 9.733717545573604 8.305674069573579
Al 11.092782803759222 14.116325237848026 8.218867446769462
Al 7.9126094870670265 9.432584457942443 10.9128255869033
Al 13.475671147050285 8.716126845808018 10.078764200964573
Al 13.540994743082933 11.191234202863676 9.000794507602151
Al 10.790069608429647 11.611547304036105 9.516166279498572
Al 8.513718149316261 14.324644880275251 8.933842413986003
Al 13.849687978593362 13.648031900164387 7.58845691529305
Al 6.676435331385569 11.294698907320129 12.390236848894697
Al 8.399699535445043 9.451340932352899 13.647471865970477
Al 11.07094657720266 9.266197879866397 13.194325790609481
Al 12.430007475574797 11.044358425394678 11.587779090820543
Al 13.790992897872028 8.887306805324405 12.837794755999584
Al 7.852264525818086 13.676779218206956 12.060021486841435
Al 9.705568283601561 11.422853585396597 12.028444753763399
Al 8.241089586696999 16.051959110040038 10.912704484072822
Al 9.885642511062823 9.992673871210126 15.840583592383265
Al 10.366080463091125 14.006132503262434 11.038538118061195
Al 15.354664415830054 10.436163101452076 10.872642155565579
Al 16.93578929304229 9.80232133718943 12.963066830283923
Al 12.536551264322162 9.589493993130688 15.374708949146614
Al 15.18452399411461 9.502758214764198 15.02883997449173
Al 8.390660285540076 12.110042494052 14.413729411479839
Al 11.278990085795996 11.823382070364449 14.327881922735743
Al 15.51084159084362 12.913666256399608 9.695152567895278
Al 12.89633890387156 13.547192945193544 10.212551490430421
Al 14.47702055816046 11.500900243891852 13.190726718635553
Al 10.408552790820886 16.46525379739673 12.471033988527076
Al 13.026862989207283 16.040126257621925 8.591189274986908
Al 10.516797992909773 16.42266911564177 9.608720338070773
Al 9.677669219962883 13.237952287875991 16.43752409436951
Al 16.780467954351177 12.534074411409703 12.168506947588522
Al 12.565900745884562 13.593014793044375 12.841804424450373
Al 11.742744171815422 11.729179331779763 17.131486362580763
Al 13.989788154634075 11.890134651908221 15.816915858977469
Al 16.768577151804596 11.776555330559367 14.8678112526827
Al 12.788234396211651 16.16936540847268 11.339014971504982
Al 14.921342062280264 14.620234653127545 11.787407963720486
Al 10.010889340570301 14.281307315550958 13.855956831777823
Al 12.302665318223246 14.099424937545667 15.560352903022881
Al 15.090015247180665 13.881143552044406 14.320063156129082
Al 13.462960183241979 15.98435020160284 13.975179218385785
