5
Energy = -10.17061124 eV
Al 6.894232999839031 9.244339615786668 9.884776940890427
Al 11.99790159819568 10.123027802312155 10.84115882462079
Al 9.385877825359383 9.780026762223809 10.622445957598114
Al 10.947284415116917 10.193233297809932 8.473138564424872
Al 8.827996176726687 8.712665537105135 8.231772727703495
