51
Energy = -162.62841359 eV
Al 13.841222852652205 7.765242678762215 10.35797378043473
Al 15.284640674933865 10.047738321219688 9.74917489483066
Al 13.86500586388872 6.955449206361566 13.133679210651795
Al 15.04147537468572 9.284643556016272 12.388387195949527
Al 13.203603627716417 9.24313091128951 7.981661479140653
Al 11.215148639762694 8.119834872602732 9.351687047942178
Al 11.569939881161382 7.363485412828746 11.849192493172051
Al 11.950003590901744 11.26168220768305 6.297196524629838
Al 15.102652701870683 11.856826910324868 11.756403007011656
Al 11.517455981914834 6.6325743507277934 14.490120365646883
Al 14.717915843267233 8.686047444461598 15.046082752608969
Al 12.813620355311288 10.353365889337361 11.049305117394358
Al 12.658972652277523 7.950962011916069 16.52257585701437
Al 13.859744994946846 11.854625462165352 8.032062637322374
Al 10.33388494915141 9.41448381619298 7.095169517654731
Al 12.34457932569079 9.397840605386609 13.633051941210443
Al 14.746702925836319 11.202282713896539 14.330845347671039
Al 10.247136304253122 9.827963443094113 11.526606070402948
Al 9.112091418179693 7.183384484621771 10.769817012999647
Al 8.60821682348991 9.223230315118558 9.086048206068165
Al 9.172917507915024 12.062208579540279 7.506848289816538
Al 16.013319019171764 12.69533694888807 9.358201039599694
Al 11.662692039949436 13.554997815246194 7.578971426893767
Al 11.181662031095968 11.07366761833735 9.108974534450835
Al 10.46100213760833 9.241810714808897 15.631739864294179
Al 9.45862655904349 7.871947036105567 13.388023710172199
Al 7.996623923279123 11.51343460476962 10.230290087631897
Al 12.7844111367536 10.632764834237264 16.114553690677976
Al 15.122059663312099 13.71858889918659 13.768896127052457
Al 14.071967254613037 14.65033665307785 8.457968566781656
Al 12.738355562011428 13.147589563201647 10.34978146354409
Al 9.33127827309958 15.189620501262638 7.662515936712803
Al 9.969255926470263 13.411783781199167 9.828059979755976
Al 7.410731992641979 13.78969216733858 8.917088865733929
Al 13.10891007340803 13.317671991699495 15.552900101663946
Al 7.53719936119518 9.233803843645317 11.712240434265935
Al 12.58622477957259 12.509739245733984 12.969595120171489
Al 15.18378374725427 14.485329078242469 11.174937845138736
Al 10.688006090287507 11.875483386166946 14.984136471814136
Al 11.442206185217028 15.716199585683338 9.202535148097379
Al 9.873116543794048 12.416060651071422 12.338941014407988
Al 8.753765510742562 10.39991318192591 13.931838682514051
Al 7.386814884203639 13.724066470914241 11.644065112469011
Al 13.197083588591367 15.460242470418608 13.36862466472241
Al 11.138513244570095 14.898489417205335 11.802976104676542
Al 8.876620184025402 15.870685474959764 10.397476055783303
Al 13.36794137034867 16.37694008971862 10.80429498445693
Al 10.880839579941888 14.591778033566955 14.541470895995186
Al 6.5948869190956145 11.507867724149387 12.764190484991211
Al 8.249072349136265 13.091013096985245 14.428260302649692
Al 8.78167410274909 15.437289385284409 13.123552149041814
