5
Energy = -10.56419614 eV
Al 9.889995777606357 10.720050496874087 8.166695922700862
Al 9.614201975411353 8.406569897529815 6.988765423033833
Al 8.190165275437957 9.209467468865355 9.24682451233993
Al 8.029140520174385 6.745118139182354 7.928008437480183
Al 6.7138273455992925 7.356124891777856 10.10703659867442
