50
Energy = -160.04187828 eV
Al 16.794376854302605 12.635102731658773 14.696726041411267
Al 16.65162090050249 11.251733754489461 12.506099221372253
Al 15.607905423338208 9.507006933684679 10.766832050591603
Al 15.459085275571631 12.130708371052524 10.252813423716363
Al 15.374760879548598 9.197554446937804 13.641000649098752
Al 14.921829357249422 13.361213159544553 12.83403357710116
Al 14.327149962451921 7.7923113422411285 9.127970818857019
Al 15.237849861110332 13.637970411487341 16.602611310137572
Al 15.15937562737902 14.729108898323311 10.180219049321023
Al 15.984608107576166 15.32611690267039 14.451598148922105
Al 13.831619721414489 10.419649939772432 8.756128412771938
Al 13.957926374305572 7.66803963164123 12.00820302764687
Al 14.27407583704797 11.336686408931712 14.914235725861337
Al 13.612426785253477 10.90812104061087 12.081830837424397
Al 14.632095595544277 17.411446946626324 9.999981506024643
Al 14.219628555097957 16.02414820660641 12.477501569079944
Al 13.322863909554785 13.051950041924 8.765185295549921
Al 13.399608441060595 15.042383749885154 15.050256701508069
Al 12.19172935723297 9.047398568482308 10.340853700838649
Al 12.487408785216914 6.181060746809827 10.292944648833414
Al 12.792129848050676 9.076135139167109 14.089133199762372
Al 12.784716530513217 13.896841754082828 11.259031676623778
Al 12.703618419576777 12.871916049525655 16.65012789094497
Al 13.018572538049575 15.679273277644544 8.533621376310137
Al 12.282747089676171 12.830138354222523 13.758996520196256
Al 12.088590304313993 16.694384150757955 10.887017235985152
Al 11.599431407671341 11.352792310076405 7.413052711902434
Al 11.439548589069489 10.828850874275647 15.518173566759586
Al 11.352611772347347 14.021754014182022 7.110456061672494
Al 11.282049655099735 7.546125448597845 12.478811804676367
Al 11.546462816125684 11.688814811022525 10.257843301375916
Al 10.080014424624556 7.3663855172753925 9.970996148249538
Al 10.07855086420735 12.63647801382247 17.309883216618385
Al 10.724006784699622 14.657065416623498 9.590968098583886
Al 11.530558311306702 15.595363148106133 13.24315721380202
Al 10.02160582294555 8.716486537769436 14.50887527590211
Al 10.807336705545403 14.799545188223743 15.753404260424183
Al 10.22348829872368 13.442011927806025 12.031252258148134
Al 10.899591783151587 10.575249274384221 12.65245143902085
Al 9.347946873258639 12.565726747327595 8.483428588314823
Al 8.741913563225845 10.507353425345672 16.161900077064836
Al 9.89212640655706 9.871925849175861 9.048912377262688
Al 9.599230079810205 12.605004087397969 14.560419298172905
Al 8.037648411406433 10.574647513669595 13.580256689644028
Al 8.798101164023175 11.351365230927142 10.988468581774207
Al 8.874792173310432 8.755424948679611 11.891094503418234
Al 9.456599067325778 16.245165132498578 11.473032339113223
Al 8.865844765986761 15.239856874541287 13.866608649648157
Al 8.068358097721468 14.11470843569198 10.295146959422725
Al 7.497093072012697 13.116729564894834 12.769684214232472
