53
Energy = -169.57826023 eV
Al 10.967433460589728 13.04327411974284 16.52699226459716
Al 10.50552213943225 10.611354986440375 15.605654636628053
Al 13.176890982281606 11.37160981593251 16.06886134996269
Al 9.911886532864775 8.091477917509648 15.631268721968054
Al 13.297577129280505 14.111221753624271 15.78567715926891
Al 9.09083136822804 13.10418789665678 14.633672928071443
Al 12.720396149772244 8.6851898380418 15.344626987611864
Al 10.946365889411615 15.160624695949206 14.59433118847316
Al 9.341889505525625 11.127531482878847 12.860935764226252
Al 15.276461264201474 9.906561560334927 15.219234071082374
Al 11.835638049344105 12.27592606801065 13.885230180441457
Al 13.168696206770772 16.691095643116558 14.721013873992058
Al 14.96958707954603 12.502478650548044 14.237763338335442
Al 15.598863139841118 15.234556215386414 14.653372197278296
Al 8.743530926991324 8.249194979405997 13.157453950317375
Al 11.22425720088553 9.371744851346431 13.196191248454095
Al 8.278149983449975 13.950055886015928 10.51378937482279
Al 6.871691738493098 10.01171152276992 12.218245821708765
Al 13.617693620410382 10.48072901673557 12.98282096767339
Al 8.434993268566819 15.225089508020634 13.023175208400117
Al 13.263198741185082 14.444641940679452 13.113591979217023
Al 7.18136711427237 12.745580910266874 12.648033254407109
Al 10.54592119227738 13.77804911233745 12.200851535730857
Al 11.201615675266963 6.608521691281643 13.89580039527948
Al 13.373514752367727 7.691925795790277 12.681638099924793
Al 11.994935115572448 16.6123893702379 12.222867304194025
Al 14.841656935983105 16.790759900795614 12.561699411881206
Al 7.503801772193752 11.297714166651689 9.91081827804696
Al 11.294916597351188 14.265570970518173 9.689375854777424
Al 10.268368922537041 11.844037180390483 10.43833976508016
Al 9.782231608922498 16.238180457651044 10.917308787259387
Al 15.944809910704365 8.947441123805909 12.817340636717432
Al 10.812746855280349 7.354994815695447 11.341797159037048
Al 15.449368053932771 6.8143437927359685 11.23393622364078
Al 13.121527212957345 12.587066015731299 11.157688105491655
Al 14.92890704796717 9.341451575933677 10.383310705035116
Al 15.843361669143498 11.51038798104402 11.651484440552341
Al 12.210041059504915 10.030162429185996 10.633890049932226
Al 9.255541700972108 15.638578930211114 8.371391175536228
Al 9.239863636710432 9.368752660742574 10.681593810338125
Al 9.016238944241797 13.004175159832975 8.183322605040223
Al 13.175700495109465 7.337742111782659 9.905481588144772
Al 15.720445565339002 14.08850829744082 12.053061630506168
Al 13.733671774273594 15.274050573008093 10.555220805160916
Al 9.226776484469625 10.373901326791053 8.064066455716352
Al 11.870933386735429 11.770068748133161 8.312141398947094
Al 14.698575109146619 11.661140708389514 9.097032389864948
Al 10.948581169101915 8.344785012580648 8.77770257497333
Al 11.24932768041012 14.229243915888 6.979063989588757
Al 13.397462214647078 9.455852748800517 8.165734874338986
Al 13.63083572450218 13.923999899891706 8.282912753977703
Al 11.373668518308557 9.68166620465604 6.442752039884105
Al 10.15401316356055 11.970979503484962 6.0007201292991175
