50
Energy = -158.69190763 eV
Al 16.308240666484856 10.674710707614652 8.35404697319336
Al 14.194634104377077 9.722539367183874 6.799311214236331
Al 15.183213646447765 8.354772675940994 9.044221902227497
Al 14.299340099081752 12.526752434109532 7.615063586521902
Al 15.605566026182416 10.275158993048246 11.433810407806414
Al 16.13154301013106 12.848528306095796 9.767065833609937
Al 12.72658704869789 7.017557144886513 13.267343368612853
Al 15.29110120692827 12.716184173205471 12.487809733305463
Al 15.388588434038898 15.09657629811645 11.023869808118786
Al 13.726678349949989 10.661455171565809 9.53311988388354
Al 14.690126634774467 15.156439825632146 8.349200074059883
Al 13.92999834692719 9.635284730477629 13.70355914100606
Al 13.749795713235404 8.332324307580754 11.221206759440966
Al 11.945793159392919 11.202610746082577 7.4965829340244285
Al 12.319239228345808 8.544985307558017 8.532450276734767
Al 9.915618932767085 6.979538102940056 13.092428416552556
Al 11.427474075132661 6.989115866755987 10.800405812394448
Al 11.171475934004429 8.189389040219506 15.123343296367883
Al 12.032108525870875 14.112961651967009 8.037273446242297
Al 13.488074013558778 13.261472788458784 10.181564002492065
Al 12.816348493317912 11.533173128947785 12.064139794508613
Al 13.47779358912657 12.56594411953579 14.540778862999478
Al 12.654648391969449 15.8360487136021 10.221952121197551
Al 11.415682352633107 9.313910496294758 12.47105529180245
Al 13.366039882295443 14.636320670826406 12.673502568662807
Al 8.907358133004438 6.066823289007426 10.63131497784267
Al 9.369335155440334 8.912761244343981 10.877195127439538
Al 9.936845565353238 7.249850267580653 8.475246103525867
Al 10.997181439010207 13.218998694593813 13.302056656385128
Al 9.832546523330919 12.656385629410806 8.277120655825081
Al 12.076728251952952 15.261766776584354 14.94696289432511
Al 11.476199619922852 10.750009108423024 14.856099132578192
Al 10.803966641796263 13.757961142465104 10.610466363527184
Al 11.039212002358939 10.943038903133955 10.176062180231444
Al 9.640554899477628 9.83180759465568 8.022387242174384
Al 11.052143495205268 15.965925526413706 12.451610007570267
Al 11.181654986349836 13.066768128015848 16.17031559860074
Al 8.913447892996304 9.57854432708107 13.641700705413701
Al 7.3717670761630085 7.484186242312994 12.353008824186073
Al 7.292595736809349 8.295437666010054 9.33298047557873
Al 8.90990115028421 12.060972198236026 12.031302681492155
Al 9.40429327998043 15.01850877081612 14.713546389373143
Al 6.7899494296929905 9.888543691171746 11.693680029783089
Al 7.9766498980240215 13.842943651852794 9.778849060799098
Al 9.034105190294346 12.083870782930378 14.830204779604385
Al 7.901196940229628 11.102687683153238 9.586612072091816
Al 8.667415648142413 15.065805640812046 11.938196721608834
Al 6.582132827419081 11.153258499417586 14.050023079930916
Al 6.277248044913678 12.567400690140701 11.424486964697183
Al 7.1975467918379685 13.788402633529477 13.734426495685542
