6
Energy = -14.01819329 eV
Al 8.553901111005402 7.750384908872349 6.630472102500772
Al 10.350283536177466 8.633457625408115 8.498052471172969
Al 8.503322632026393 10.23912876524383 7.7332499399902375
Al 8.370253493340266 6.619013063850959 9.11697031815966
Al 6.498278194278007 8.196876530347991 8.363931315418982
Al 8.279977058870907 9.117155131975077 10.21333987845546
