6
Energy = -13.12954533 eV
Al 10.396811308286882 8.086451757714967 11.483351945511444
Al 9.760594533738299 9.605633445210541 9.595418473611925
Al 10.912100279780546 13.056726471707588 12.346521890453701
Al 11.300888820590865 10.465241090768412 11.663399392133508
Al 10.419398918274553 12.010412325454046 9.713573291330613
Al 12.999978511339839 12.540012409102044 11.021922687789193
