6
Energy = -13.93042923 eV
Al 8.929417227197106 7.403908500102052 6.974325350990478
Al 9.612890418441385 9.825425472251279 9.777232094679457
Al 9.754893511784651 7.190355603236041 9.433328367609006
Al 7.472443824934265 8.313125196080119 10.243122524267402
Al 8.955385393935071 10.051716680460089 7.265223262586501
Al 6.736355484014879 8.676854408177899 7.7681542601746365
