6
Energy = -12.67879928 eV
Al 7.110740794399996 8.227000933264632 9.026081529927275
Al 11.230857966801025 8.999227257770297 7.402164728044074
Al 6.716273416593141 6.110594822984974 7.3744762621503614
Al 8.995322347470685 7.57978488783704 7.400704483488924
Al 7.466051330463567 10.27885013002503 10.663073433836267
Al 9.423198910099027 9.746986968117785 9.075944562553335
