7
Energy = -15.64477946 eV
Al 9.456393027791528 11.019229532718057 10.09591564696647
Al 11.744019428315942 9.869620502675708 10.888537514176722
Al 10.189765283198943 10.881528370159653 12.681039356818872
Al 8.088546474043167 9.822156556589453 8.378148236263007
Al 10.219537710966302 8.501124769050175 9.29162252485504
Al 6.730179563632455 8.12912979391657 6.932692815226862
Al 9.146552260277742 7.3652431618799135 7.30172560100308
