8
Energy = -20.03251511 eV
Al 6.281617474741081 7.271880533281483 8.305470899702538
Al 10.89013184694165 9.570886542110815 7.664262285461439
Al 8.86203945326233 7.691929563427431 7.68521435427113
Al 10.479806907923171 7.992495965661354 9.689846706243257
Al 9.646258551806735 9.425806965612278 11.788873611537277
Al 9.88668418060974 10.962263582232776 9.699500934954397
Al 7.878018102020092 9.000660778779976 9.802980961368357
Al 8.36795845419752 10.376591040396331 7.656365217963916
