8
Energy = -19.81160229 eV
Al 12.073133713674139 10.456396286000263 9.379925843644347
Al 10.484645666298885 8.646984257923485 8.100342994731337
Al 10.060020180875805 9.214806565100778 10.7453469712649
Al 8.821429283609252 7.1743555420692395 9.798902481118883
Al 8.19501639623504 7.7645354664704636 7.176866849587062
Al 8.632802689594968 10.381882456267506 8.054672679158632
Al 6.813013992090878 8.693101923769671 9.23452376134122
Al 7.960714381527558 10.70871380630525 10.550194723059887
