8
Energy = -20.31000788 eV
Al 8.073716753088602 6.729377946068652 9.12036995669171
Al 10.608453390221145 8.816629788616362 6.353310046280252
Al 9.186294904999215 8.667543080250566 10.681328016693675
Al 7.606971252888214 10.778288400461426 10.992108570459738
Al 10.521354613462663 7.674121911587071 8.708142115547583
Al 9.316699651715822 10.10346730883706 8.482548654030966
Al 6.90039844537197 9.178813060274345 8.993059245525158
Al 8.12273855965167 8.22921375649315 6.931126391719567
