9
Energy = -23.33432274 eV
Al 13.865327832851534 9.756701432046784 11.385500011503403
Al 12.091428643785797 10.715260655754374 13.202882499197868
Al 9.648825082768056 11.14139719186956 12.503071281832568
Al 11.227840953181754 9.707451330668926 10.828481381089798
Al 14.006726958399353 12.229449311878746 11.989806765754537
Al 11.88715098557005 11.978946632112931 9.813960604635584
Al 11.464841882747656 13.109880553168242 12.098743875470273
Al 8.989355800268438 10.891140968326754 9.86862555933972
Al 9.088433052129554 13.23510362661855 10.866514959345503
