9
Energy = -23.20584068 eV
Al 8.712331349563819 12.482487159659993 10.602744839070313
Al 9.767289349985038 11.932565544446954 8.386540644198973
Al 10.035474841770077 9.63266695135836 7.403122413786982
Al 10.724622588426014 12.171946788489706 12.103094558123797
Al 11.455475989322714 10.515547472311164 10.11009998357357
Al 8.990933628294368 9.795608769746178 10.167074716719299
Al 10.080989464395174 9.805343851048335 12.679869497544534
Al 11.494369870718304 8.022855071950836 11.584957270453925
Al 10.865475160814485 7.9955126315853855 9.142944896338008
