9
Energy = -22.99007266 eV
Al 9.230015284741183 10.533914689545192 6.874936474534379
Al 10.186952206793642 8.294106024332601 7.579743196804903
Al 12.044214140471027 8.41027712140789 9.28981871797057
Al 9.45985458052934 7.6504157684963605 10.076200859129498
Al 9.879018641188871 10.28987550109496 9.522451987530031
Al 11.357944334786842 9.06120232184615 11.644068281669158
Al 7.578609342615131 11.425903827279205 8.604827892558717
Al 8.092562594513478 11.616070037946574 11.099920466249337
Al 8.876583116438349 9.387518813915829 12.011399995057964
