9
Energy = -22.3867916 eV
Al 7.813138142644657 10.07887490254273 10.011476985354998
Al 10.232709368151955 11.113669516267638 9.448467191912217
Al 11.37651039554036 9.248121247881622 11.15733572289249
Al 8.905582063528632 7.975368850430575 11.318272094505323
Al 9.231730521679845 10.639075938207267 12.07489044162667
Al 11.18669135667262 10.375073593839407 6.988700146879339
Al 10.312937357819637 8.429824788506593 8.956449104660157
Al 8.575508256563209 9.85582148151579 7.506006844416899
Al 7.775658106757785 7.5476201249461266 8.918056360794933
