26
Energy = -53.37546275 eV
Ag 14.83315457701668 13.992365824458496 12.855844606805082
Ag 11.238223630502494 8.671062099794929 9.228145567588207
Ag 8.56062973035393 7.75145082446954 9.839143272872018
Ag 11.387440832259436 10.568703945774363 13.682957772028
Ag 9.19316497270253 9.323632619819394 7.542449094936507
Ag 10.025537786873512 12.993064419086824 13.099765955139064
Ag 12.222033980762395 13.30629106882589 9.037147560581102
Ag 7.127287726296451 10.063299592898666 9.214309040118597
Ag 9.836466458031163 13.84459390611662 10.469991023728753
Ag 13.647664333907473 7.525199098732598 9.795129237138976
Ag 10.286937093406774 12.062015197613443 15.701065085153198
Ag 10.903910748980945 6.652062113243325 11.026596384414434
Ag 12.287122648823235 14.074726561622057 11.818742403807784
Ag 13.643050092734338 15.533517344295424 10.0208096918047
Ag 6.981665679737998 9.190589110349082 11.84453546249339
Ag 11.129519132324049 11.332177531358276 10.823384145054105
Ag 8.520501018728819 10.738802650710479 13.867799144242879
Ag 13.593237734069254 10.457987353400394 9.630739071101626
Ag 11.5289381700371 10.966321494470222 7.759605428116902
Ag 14.763443857454417 12.95552448280332 10.252997066398594
Ag 12.526920769887674 8.912367895976265 11.834747601379894
Ag 12.629441708994829 13.076462446974821 14.415604353775828
Ag 8.261157376076257 11.628932735245014 11.255814460304228
Ag 9.127801285323768 11.98779846114319 8.582919649670568
Ag 9.717080537321616 8.958176999492796 12.063719882593933
Ag 13.691685379359143 11.482133243396076 12.301891361039871
