27
Energy = -55.22352875 eV
Ag 14.061917783169706 13.010521442815074 13.06165604293715
Ag 14.489363823891638 12.37417564833035 10.346541976136796
Ag 8.975711387287406 12.21218980154415 7.864136621117348
Ag 11.163527982704897 7.9865726268978445 9.57921252870181
Ag 8.47565975308056 7.039023800449767 9.847062436278868
Ag 7.587337988048937 11.620795183453433 10.213229739374054
Ag 9.359352558053855 13.332341646814891 11.461577091610922
Ag 12.730645196521445 14.47989884932774 11.152421777702557
Ag 7.7237484954576825 7.617681278420277 12.482052247932163
Ag 11.381755280468155 13.525818043967814 13.474755816801348
Ag 9.45944779544682 9.607886383916915 11.173059645815506
Ag 12.13091948284592 10.71372991467557 14.0192480883692
Ag 10.288422981108358 6.6261163117466895 11.919544489444041
Ag 13.445322001111968 9.648225475297973 9.84544450978499
Ag 9.925556111579041 8.7436328287053 13.83773992060162
Ag 13.49553787213086 14.200307810734163 8.426602204094552
Ag 7.077429891777205 10.353099400731315 12.695060274608268
Ag 8.563191607521276 9.519030740349898 8.498002415367903
Ag 11.755671659069632 11.595740056234739 11.380960493652573
Ag 11.563415175308164 12.77013847471455 6.735910166900418
Ag 13.781708007140958 11.48750597001852 7.832547555939121
Ag 10.96085012928829 13.511597696318525 9.285692220815964
Ag 12.186528952734557 8.639678390133435 12.129055041185275
Ag 6.51380956512578 8.977257901655992 10.355404804557827
Ag 14.38176796528694 10.376502298149774 12.353409927677868
Ag 11.12311517724155 10.678463387399887 8.715519638750136
Ag 9.499938220112785 11.453721480709993 13.415805167356131
