40
Energy = -85.68582979 eV
Ag 12.373748362088818 16.00391468319131 11.26680297384016
Ag 14.721098249777892 15.136767224379021 12.696363123579763
Ag 11.416572214033287 14.37156924855294 9.144359298388865
Ag 14.318340283136433 14.779034688516553 9.466059927217195
Ag 12.08739057768792 14.644157632841866 13.743506203455645
Ag 10.177630796666799 14.046404256929385 11.675386719345092
Ag 8.81984928319915 12.928409457900038 9.525814170141988
Ag 13.048333289138416 13.346723301066206 11.46777243987015
Ag 13.133135523972742 13.506558077053546 7.1346515350931945
Ag 10.552656741652646 12.35138242897348 7.369035067800592
Ag 9.512252874150235 13.350149751419192 14.277927766825165
Ag 15.772768332026347 12.815549364902465 11.352522466588534
Ag 14.185113771124097 11.90643713960094 9.150254624908813
Ag 11.799904992319757 13.087926526318425 15.970154693977234
Ag 14.310717612810896 12.523060337269703 13.930863978400822
Ag 7.658332475906697 11.37170296849871 14.696091401800828
Ag 11.680311776260469 11.68441221394676 13.365034861621602
Ag 11.439010576053875 11.631896807986774 10.065802158509175
Ag 9.22701468459305 11.242675201191968 11.943373692807288
Ag 13.928728251626227 10.679002479973223 11.65154310927267
Ag 13.159164966615911 10.726309324974237 15.937203680118714
Ag 7.270505957261484 12.971957622872019 12.315741410343252
Ag 12.70875049284659 10.638396621051088 7.161949085224814
Ag 7.220449900172553 10.681912828573804 9.966850700363361
Ag 8.177131959778427 10.950648048133122 7.398885542512446
Ag 10.184814043416141 9.495501650059145 8.776177572205054
Ag 14.724866297728965 9.551766952768292 13.973122519891994
Ag 10.29848283427147 9.801197741055534 5.979960847732135
Ag 10.254666162585714 10.762529339762457 15.64097405697952
Ag 11.219304772976727 9.397397014654814 11.644460469737199
Ag 6.726986994190749 9.969516583767994 12.556948379319746
Ag 13.19681679354203 9.168419440333306 9.43862411345821
Ag 9.137058579664115 9.035404514663886 13.7745045275495
Ag 11.934749609744749 8.813372291113472 14.336664589436404
Ag 12.011292506005608 7.868263931089482 7.259468993537487
Ag 8.673811035543261 8.387705153051277 11.017024019155713
Ag 7.664537212264729 8.373701877935153 8.395351396072934
Ag 13.453230087368448 7.862384430176776 12.005577007862641
Ag 11.293646214887117 7.144583799545755 9.939241273282173
Ag 10.611278064013941 6.8768912519720855 12.65851525592254
