44
Energy = -94.87071140 eV
Ag 9.559592647000274 13.82562415855818 14.566820125275028
Ag 11.55186363404114 16.437056072247174 11.115496213414879
Ag 6.248123384434048 11.918961203413167 11.39167312423785
Ag 9.21817944348043 15.488545080936424 12.338271232423422
Ag 10.281573394274186 14.261952602261102 9.871776642574222
Ag 8.137279067485357 11.321457453446625 13.926123678938119
Ag 11.649858878216675 16.007560285037638 13.900548565471215
Ag 13.871180736178946 15.115647266857897 11.978384632182852
Ag 6.957773791302666 13.895264858376205 13.382679332421667
Ag 12.267665716237307 13.736109063373336 15.296859988590223
Ag 8.85070577015729 12.79752555284424 11.74900447990186
Ag 6.5000346874801895 10.491352230452053 9.035493336777208
Ag 11.652419603420318 12.454220196705782 8.305328821442636
Ag 12.890346924753809 14.955693640843604 9.205799880223084
Ag 10.969772098572237 11.413489818117128 14.31110707447992
Ag 10.814537598839491 9.783560729727022 8.254336109677102
Ag 11.531218410342657 13.628845896884405 12.407998086349714
Ag 14.626267070447192 13.615507996181838 16.8152476322249
Ag 8.232001504260959 9.974795249233942 11.278734602639986
Ag 9.829903818597908 9.074435345741074 13.40891411541491
Ag 8.961304400791308 11.850956287738793 9.099015058643163
Ag 13.663877257051595 11.879799695823769 13.335227400256976
Ag 14.411655021628807 15.48280252750535 14.673214452763716
Ag 8.44380395575876 8.415992930926386 8.980104009497214
Ag 11.027312504795276 11.133862578624582 11.182234817796791
Ag 8.388505063910518 10.28820466941776 6.918442959805673
Ag 13.491257961979448 12.539646840507654 10.57639310683569
Ag 14.399761464726945 13.118306202430695 7.790618333914556
Ag 15.662341878965837 14.560120042700591 9.866698861932504
Ag 13.132032778342952 11.314867578058212 16.189713420158636
Ag 10.577453386170111 8.36589585938699 10.737548825952356
Ag 11.886772586987352 8.948958735330658 15.407640510081409
Ag 16.52548689675442 15.246775560343844 12.617977010258123
Ag 13.474652686681967 10.523149203136517 7.40006725671387
Ag 16.17125142905348 13.337016018660304 14.573955911307815
Ag 12.54376443969282 9.122298193060614 12.666459520702661
Ag 16.08814227654163 12.582799029899496 11.800432870306011
Ag 14.105690683364543 8.982106649127934 17.27057149828828
Ag 13.097929882718061 9.55939963618676 9.95261597924129
Ag 15.50865097539053 11.08860442008414 9.357383457904998
Ag 14.597551053228246 9.317994933483176 14.581153885075727
Ag 15.122537018172292 9.868119875896323 11.834835186773207
Ag 16.808230309668136 10.794840288266697 13.827524436855779
Ag 15.905475865850809 11.115617499913059 16.45531351202179
