32
Energy = -67.15575877 eV
Ag 6.893790555294378 12.181361351235886 12.775793257710964
Ag 9.63822825233526 12.365984042966108 13.670147071194197
Ag 8.242207113098765 14.195001358814448 11.580270167990108
Ag 6.979837089585989 12.388579169125174 9.64056051304995
Ag 6.302675564085339 10.059716981885435 11.138564612767281
Ag 8.173090442223145 9.803339655328383 13.346249413518905
Ag 9.108860382204467 11.339618790544325 11.121782863017367
Ag 10.94968198212776 14.134364290419324 11.76932636767597
Ag 12.459919998641116 12.165496472682113 13.35876967735081
Ag 10.965299079394109 9.88790252112535 14.13826133677928
Ag 9.528137715585993 13.661428093264657 9.214920577676153
Ag 8.15488663276782 8.061039692752447 10.939456457087477
Ag 7.520248929514479 9.707230598547094 8.686413088546528
Ag 9.370431505731101 7.361983361702903 13.306941088917451
Ag 12.166218695435695 14.381233124815198 9.166633376966741
Ag 13.677940677426678 13.914501522180698 11.41646288751754
Ag 8.606132559338933 11.87707645750789 7.320336060680017
Ag 10.939793647692948 9.096046564738778 11.450432805104459
Ag 12.067401431502722 7.299519123021456 13.438043388065704
Ag 13.923264052685354 12.202504952144094 8.680803635730468
Ag 14.871441384732426 11.483339016786218 11.364755267132688
Ag 13.500995417206006 9.523715971699811 12.653220767250646
Ag 10.386652665027132 10.17867772424877 8.958705877005462
Ag 9.188179638036422 7.5019621662967175 8.440250156309682
Ag 11.343057589505252 12.42241728261698 7.396686487451174
Ag 13.244877313430056 7.186949624219475 10.953709454550765
Ag 11.981761446144358 11.694731672481474 10.643060473607765
Ag 10.511157887518602 6.4310988251451615 10.7395844727408
Ag 9.99730780719827 9.45338440136616 6.444685153676593
Ag 13.890141954660566 9.526589642267934 9.702731738859068
Ag 11.947511576441315 7.752827488634939 8.580163268844334
Ag 12.760488623625388 10.033806736448451 7.223658652532215
