33
Energy = -69.39712920 eV
Ag 13.59676662798982 9.649295250597035 7.375207256683011
Ag 12.111938521317777 8.795064680481406 9.58908280423021
Ag 10.909198635805556 10.440725694449618 7.524858370695402
Ag 14.342641587651402 10.6602732325897 9.898372006758422
Ag 10.610732332160637 8.029033698184884 11.803450552206128
Ag 11.78415045981383 6.633140347301214 13.839380186546949
Ag 9.413649481237865 9.709845113829843 9.812138835777782
Ag 12.538724768840984 11.290818467769387 5.39310352366889
Ag 13.312316451704142 12.429908362350348 7.833482171631876
Ag 12.876513631415005 9.757890939468515 12.209377379383115
Ag 11.272904720092058 9.222689731965984 14.552638319111107
Ag 11.693852903412262 11.584468911162197 10.151099069308849
Ag 9.1075746275577 7.441706259616844 14.128105230041369
Ag 7.948699980833854 9.002407840186052 12.133087690701569
Ag 10.857353466501413 13.131539365937323 6.620728761679968
Ag 14.979571870418464 11.755393213526087 12.390792317700786
Ag 9.280784064763509 12.3657442365893 8.802058718009185
Ag 10.110554882091975 10.873405468157205 12.421694626529398
Ag 8.543673309263811 10.131880907548414 14.682221127995785
Ag 7.761572725674568 11.64606704175406 11.055750996926758
Ag 13.387361977541483 11.017638814548654 14.776333159803421
Ag 11.542102656732212 14.290183073689798 9.077568561316832
Ag 13.998515347775253 13.505115573218252 10.336254358005377
Ag 12.31959527650885 12.658751180771846 12.674215980976758
Ag 15.505198188844638 12.83030422927703 14.945823192825921
Ag 10.706830476725573 11.979230820586443 15.051613386722996
Ag 9.885120039519293 13.606150023107359 11.318042419170162
Ag 8.411487935243489 12.807082295237416 13.648521900138846
Ag 12.91785993167464 13.804046990654733 15.289697658387617
Ag 12.192186469662811 15.345292951945384 11.567782763737037
Ag 14.556062456897585 14.535308997282428 12.920064464056797
Ag 10.590046314439725 14.59423912858531 13.923216074713357
Ag 12.800034474361697 16.34543365102267 14.103918905760402
