21
Energy = -41.96029628 eV
Ag 11.621061276592352 11.449338189965879 9.504734437760765
Ag 11.876788260734752 11.424755181057632 13.88239748300552
Ag 15.230491469726786 13.926638439487112 11.535927440176097
Ag 8.898740722093068 11.432903409285986 10.219980187268398
Ag 12.93673150728333 13.924806417531622 13.1122970717311
Ag 9.141416406335438 11.316324505350822 13.33505840112089
Ag 14.361974841966376 11.598969283075993 10.176519762539307
Ag 15.494239731225985 9.462604789076476 11.624925273064292
Ag 13.412925295493757 9.155476590029037 13.483693792628909
Ag 12.771718168252878 13.900660636981751 10.251428145529394
Ag 6.71208658997292 11.644205049373017 11.955018561987956
Ag 8.118199205292639 9.228594811671382 11.767056921978453
Ag 10.752859610834049 9.125585851072769 12.697928961128014
Ag 8.595603519363243 13.691952663196147 11.853963621506663
Ag 10.34376083012632 13.736640847783814 14.027379840824704
Ag 16.946010433911944 11.783020202037726 11.46141909256794
Ag 10.233757680062741 9.024473082707537 9.913631180174907
Ag 14.599135222626789 11.684144795645102 13.11988268114027
Ag 12.850134800101804 9.29232583235686 10.749401515381862
Ag 10.907239937737273 15.30473404933143 11.758671120434634
Ag 10.119593490265734 13.816314372981752 9.493153508049758
