42
Energy = -90.75027474 eV
Ag 11.739412995464349 13.111257310325566 7.470305213739473
Ag 10.393437195052934 10.967167857003448 8.648823726685867
Ag 9.891957538567961 13.639314651454663 9.524591946176297
Ag 14.19459352899956 11.521337588171894 8.038527112979352
Ag 12.455602835529238 15.063227629606946 9.34872307735451
Ag 9.145121512916985 8.810809216086124 9.87713165618926
Ag 8.532153473250935 11.436317693282579 10.753443159583572
Ag 8.1478842931931 14.068181494459704 11.718682314284115
Ag 14.275399039827688 14.278278436184898 7.33621743286417
Ag 12.786164007899108 9.408016721630537 9.361001239455264
Ag 13.116904122501143 16.931778067267967 11.36993465878202
Ag 12.44917579805402 12.204843796629996 10.113017989217557
Ag 6.869282867468105 11.84132815719169 12.950753326835878
Ag 7.43837005952842 9.148283260961504 12.08423554389686
Ag 15.05233668119488 13.515305300578806 9.874468028653377
Ag 8.539249309271446 6.460459099410478 11.144948001206926
Ag 10.663362237235365 12.780503389692774 12.274359352832303
Ag 13.145289311405845 14.183997257115871 12.039869061317232
Ag 11.070562494631536 10.061114182920388 11.492191457323806
Ag 10.566602177724578 15.599677267013062 11.418600892857516
Ag 11.342524657519407 7.253976471442784 10.842992058609367
Ag 8.87022502894125 16.040523010207906 13.620289048405917
Ag 8.855287841206838 13.306169154571826 14.408265685888095
Ag 15.590600484984002 15.547681174646959 11.81590880681212
Ag 11.32337812795479 14.73185378948056 14.385672733163398
Ag 9.284108050087125 10.618952345358528 13.707347375603758
Ag 15.01764264090613 10.71023098296935 10.594506771414586
Ag 13.864808275584613 16.208171622133573 13.995606607455228
Ag 9.758090112430494 7.892942323183539 13.081853371715146
Ag 15.776257032587152 12.755817114431746 12.471553811835758
Ag 13.200918436356451 11.42467385009833 12.788736028893366
Ag 11.361526844473646 17.371498577539434 13.490484693851172
Ag 13.640420551117163 8.58634169322569 11.9601324286752
Ag 16.26203288636962 14.79860643660419 14.418539851929115
Ag 13.85409440231236 13.43929786625994 14.86436287396917
Ag 11.394884891246024 11.995726906853976 15.023206890790389
Ag 11.840625309978195 9.297873879969929 14.278114280123722
Ag 15.722072973456875 10.029201024466753 13.2349265190595
Ag 12.233206869044299 6.626482973435964 13.445732022850207
Ag 16.396616912827035 12.049129463442322 15.102391761971585
Ag 13.95463089266742 10.692951207903198 15.444254916969188
Ag 14.373341316864991 8.009394222576764 14.645877797900996
