9
Energy = -15.54915723 eV
Ag 9.471662727874254 8.93596645833125 11.762439080347928
Ag 7.696358470165222 10.522042183582942 10.244023204989686
Ag 7.511614600498737 7.803018303829274 10.043936065613636
Ag 10.527130719268003 10.467628617548348 9.730925508684654
Ag 11.149069749462006 9.30646320396892 7.280039857481834
Ag 8.80796291843668 12.04160045147406 8.259950922604359
Ag 8.45104734398362 6.372047476558496 7.909456070372294
Ag 10.32736023135834 7.71166839098987 9.39537475511291
Ag 8.461799130547819 9.257458085781929 7.838844467015868
