27
Energy = -55.74667572 eV
Ag 9.653422558901926 6.457689577781873 9.14921214641056
Ag 10.032300237201154 9.093721231295914 8.357309140027374
Ag 8.162493556924048 11.068139722479504 9.407317076350404
Ag 8.758920414069795 8.49584422630565 10.785113945748153
Ag 8.888285183202324 13.763603695209449 9.131226798283675
Ag 10.515102876002878 11.743024110988603 7.9151899778186845
Ag 13.190291683982538 12.685473893467087 7.667949390474289
Ag 11.517830047259164 7.963960126892167 10.490537201649158
Ag 10.934377955452742 14.351150614381515 7.27998871673192
Ag 12.750483360407692 10.05987951278752 8.820118434553809
Ag 6.9423221011548915 13.030615683616261 11.04207295271552
Ag 8.201928243127387 10.737731706811918 12.206050293057444
Ag 15.331808004388883 10.931779873211891 8.13609677692801
Ag 10.716823569229962 10.793497282494323 10.683937935473043
Ag 15.817871317431457 9.968745781814574 10.693371148513227
Ag 7.61051199167177 12.782689086930722 13.836864701165796
Ag 13.17873538415309 9.707862250127123 11.737437750428388
Ag 10.533846127289069 9.16715223689775 13.017108406440041
Ag 8.173891099024747 10.05681890387535 14.900922947413584
Ag 14.052438898379023 12.112745914033404 10.309023314596745
Ag 12.284339523868603 12.473012460794976 12.45990786812577
Ag 11.646720258204818 13.510146084922173 9.90768378727474
Ag 9.623592864663548 13.269983520849816 11.881823713368421
Ag 14.923469619276878 11.4340644221395 12.925816126549845
Ag 10.233277897644014 11.748195647374008 14.205464557774143
Ag 12.737007600524844 10.462295757310734 14.416749197785398
Ag 10.6683049358979 9.250408633669757 15.786941531907717
