40
Energy = -86.05678285 eV
Ag 16.81011142814604 11.379897580522762 13.344046278373083
Ag 14.822487197798027 12.508617701878908 14.955879110466904
Ag 14.874419450185165 13.30300183023107 12.277770453767534
Ag 12.760993137956083 14.902704416825411 11.27380402384991
Ag 16.91926489832779 12.325188230983244 10.680884436965922
Ag 14.861435721883053 14.033547554319451 9.573056898904861
Ag 12.718757046624038 14.23983239835816 14.026997120458466
Ag 10.431126563380065 15.282663898637443 12.802517245964728
Ag 15.05456577026569 10.330171974764509 11.445674124744281
Ag 12.302743525418848 11.962800971555131 15.97942923767342
Ag 14.631709171473565 9.71855710290646 14.2273906986165
Ag 15.06858317690242 11.336455524744443 8.753234568011315
Ag 12.947364149719984 11.91730514554403 10.514693136039897
Ag 10.317485616849323 15.577288830671156 9.883655015124104
Ag 12.803011247546738 11.548255848905306 13.255425808883302
Ag 10.481206948600462 13.036026896498399 11.096903616530838
Ag 12.20838642222162 13.844273304131736 8.585063575645075
Ag 14.469388813851452 13.341656409560935 6.853781842809903
Ag 7.906168672212588 14.361940353612239 13.516929050357293
Ag 10.239614082684804 12.669383188875853 14.069615681471166
Ag 7.724444735747588 12.131069399290956 15.157087121084484
Ag 12.571417362504786 11.316270147180806 7.361580249490712
Ag 9.44284443757389 13.379671234981695 8.354363218009212
Ag 9.833948490015182 10.709757856158086 16.302687666631535
Ag 10.571374886293622 10.426620763228408 12.11233748578359
Ag 11.841092776115284 9.373351560616737 14.807787186235686
Ag 7.965997576918539 14.141732411658872 10.670412031076749
Ag 10.650383756698446 10.833237907972372 9.312564724916664
Ag 12.864393023277465 8.68183002177967 12.20248692685637
Ag 9.606215814990437 11.028994315904209 6.824582651491416
Ag 7.9849000292801975 11.808542278382395 12.31396070211107
Ag 13.239053187715054 9.278138426428468 9.453153679888777
Ag 7.890972206942147 11.401652296694396 9.558535714188327
Ag 8.550463425981905 9.68964881222683 14.046330371801085
Ag 9.716172933914613 7.939941950483899 15.852377604951148
Ag 11.297144535453699 8.778960279909567 7.472844695804321
Ag 8.272384935954433 9.116350405278839 11.273448972762793
Ag 10.272238164122673 7.731340064930802 13.019060188286726
Ag 10.806436388419797 8.072447429663745 10.267473533948532
Ag 8.680978361406714 8.854340514382528 8.508775843309044
