18
Energy = -35.76475597 eV
Ag 14.957791012600898 8.659430710653089 12.15417220683726
Ag 14.03349844644215 8.814441480247615 9.531055487276163
Ag 11.046662433568327 14.751319521472189 12.706753846343357
Ag 9.649892454302053 9.967980795399292 7.763576962285508
Ag 10.154735205190171 14.936720949735433 10.078567929045274
Ag 9.90286042718886 12.452372385358373 8.921262550846992
Ag 9.836533767217464 10.009993342033143 10.53306002061234
Ag 12.35858242545798 12.393245563610895 13.353504837047335
Ag 13.76149402414561 11.014728142801742 11.350347858388105
Ag 10.428803556595534 10.280381483600209 13.208949631252116
Ag 11.442435778732165 10.941131876669001 15.713982140886378
Ag 12.150994379348628 10.790444190571257 9.02899741894913
Ag 13.189266867623802 9.770372695411435 13.941458850143345
Ag 11.313478353018922 8.106427867159109 8.982891016761364
Ag 12.109044998954447 8.685316670831382 11.583794459084624
Ag 12.1931187300075 13.144739290162535 10.607471075565874
Ag 9.815130594055676 12.809820621690713 14.45360219713694
Ag 9.62097265121363 12.560899322864925 11.70461866386059
