12
Energy = -52.42157304 eV
Pt 7.811922175964805 10.861748029815173 11.160027008629145
Pt 7.768195049266426 8.459488660598208 10.228466383387742
Pt 6.443669113242476 10.305884871291662 9.071142650532872
Pt 10.3604185716669 8.671390758860346 9.815819572351685
Pt 9.991457381816577 11.181166976669171 9.801925177000374
Pt 9.315476258791866 6.795453372046319 11.289137414382322
Pt 8.640268341678315 10.274244131993715 7.877149480017286
Pt 6.560163642009078 9.197702806201852 6.752646865917358
Pt 11.109184344578612 9.739534668137061 7.656414034596125
Pt 8.260496564382672 7.670310024130845 7.789791070980702
Pt 10.14859065567947 6.357363775037636 8.896184198151053
Pt 10.54312345192065 7.438677476215739 6.614261695051191
