14
Energy = -62.07594936 eV
Pt 6.791611170925349 11.24607637143717 8.800470013583622
Pt 9.338860829056268 10.880047367629885 8.41796230445056
Pt 11.284623687975609 12.537953291257892 8.689402527372055
Pt 7.7155973715353205 8.91456775198957 8.562129081606733
Pt 11.792937477479704 10.091763707185988 8.380193888036516
Pt 8.79122989274763 6.661387763572475 8.149734684029495
Pt 7.975800089015018 10.280112270783668 10.809890761017128
Pt 10.252039687007075 12.011961191054814 10.917660059514018
Pt 8.745328417837639 11.570073162274728 12.872497241351665
Pt 11.04438295554178 7.582353572133419 8.858252684983093
Pt 9.317603542471293 9.036478365224006 12.613354653729292
Pt 10.800006047514211 9.573657923124756 10.631038884973913
Pt 9.000008905451384 7.568355178681142 10.533630758068783
Pt 13.222927772359848 8.118169930568893 7.836740304201108
