14
Energy = -61.56878551 eV
Pt 7.220749627400758 8.114490523842626 6.493606358107002
Pt 7.235765513634132 10.633785392449703 6.48493867532237
Pt 7.616995055515153 8.089777315883872 8.999672401615042
Pt 7.635705673009587 10.67008514867098 8.990216825780399
Pt 8.165262463771072 8.11102220862786 11.44268504339102
Pt 8.184688334542571 10.659617194029218 11.433438447951842
Pt 9.671127265078406 8.105887476196559 7.195273867151997
Pt 9.686669231009692 10.617347323848968 7.184536829943589
Pt 10.202265404075474 8.051203281776358 9.771319441987194
Pt 10.219313617502792 10.684834119488654 9.761038203273191
Pt 10.60110569534144 8.096821267943511 12.355931561356236
Pt 10.618996404790023 10.651271537902497 12.347288279234558
Pt 12.324051021008223 9.358894386483758 10.670702285404777
Pt 11.81617671830813 9.353834822855289 8.068223779481054
