17
Energy = -76.91480989 eV
Pt 11.713233787167288 6.11999555209598 10.637073683849481
Pt 10.060231361611978 10.12476576124258 12.004990811770202
Pt 10.177053845594964 12.563605771971883 12.744522497102512
Pt 6.8492749603031795 11.650688037937199 9.093637816691372
Pt 12.168501175410608 8.328668095925167 11.715974952729722
Pt 11.924840118741606 13.070238954653881 10.95351774423546
Pt 11.895019210488835 10.64368385417445 10.178722921577117
Pt 8.568793869692717 12.09176687518587 7.338171353464281
Pt 10.112236853880942 10.234025794110972 8.212618577875231
Pt 12.476260771780836 10.707974953416297 12.694454228963679
Pt 11.478892079072248 8.239935189885902 9.135083745704463
Pt 9.752867654132013 7.900571263839268 7.287403215974261
Pt 9.68829057872666 7.742916523126047 10.915110051569675
Pt 8.469986918402201 12.163325300964793 10.93018260654634
Pt 7.972659840808081 7.4142517831503465 9.05934390240928
Pt 8.21682623699447 9.715204308051321 10.097536622868157
Pt 10.239506813291824 12.658263270893315 9.121177094506749
