11
Energy = -46.03536911 eV
Pt 8.992042437360045 9.089874504042925 7.56443881912228
Pt 10.420971040128583 8.23542127415857 9.830264041112338
Pt 8.925768917222467 9.194160022559572 11.828788281824101
Pt 6.714471547829732 9.970685310235629 8.297990359843102
Pt 11.432366548091078 8.355704311375785 7.4125207730422265
Pt 6.506726857448026 9.782774598637412 10.964569536081195
Pt 11.000779639116903 10.505044077015793 11.056908204867925
Pt 7.836208474262685 7.96892107025722 9.64635093199785
Pt 10.852556930237586 10.787509861340283 8.338332904668198
Pt 12.79221918123279 9.443647708940663 9.448770486942706
Pt 8.686648524403827 10.827017358769876 9.771825563164496
