11
Energy = -47.25789321 eV
Pt 8.658983455594633 11.863793238088792 9.505336397324555
Pt 6.8113473107062985 10.035849419134017 9.256780414712738
Pt 11.022165284737811 10.080540913570717 9.71841710017961
Pt 7.816743450173476 7.362006178067944 9.26590910749425
Pt 10.399069249957291 7.1309457301377766 9.562863111460034
Pt 8.910392468662856 9.296346626274609 8.04715947454661
Pt 8.617218312466317 9.19115948536734 10.820406151188509
Pt 9.904534547545223 11.200024802185506 11.699964648638414
Pt 10.892027196429213 8.519794059433252 11.716161125406229
Pt 10.380460524004757 11.322173847557936 7.604877924030184
Pt 11.330603512624508 8.6424066521142 7.652668124260949
