11
Energy = -46.88279448 eV
Pt 11.70771239508845 9.026838931729907 9.783697967795977
Pt 8.295216139461974 8.907905648360886 10.378758426302378
Pt 9.689855957863642 7.099288174801906 9.282906521942914
Pt 9.632463036331405 11.641425414897274 8.730499909091977
Pt 7.517681669682908 9.871090046598697 8.17271280098943
Pt 7.215694040287413 7.349431563911534 8.62714462364942
Pt 11.96348352648979 10.828390353664755 7.907720414429698
Pt 9.977995102141413 9.225953544274464 7.890450914384473
Pt 7.684803988327197 11.503784533022865 10.50211079517385
Pt 10.055376518870169 10.538579028149579 10.969025708904523
Pt 10.360429036302312 8.10802458228161 11.855682711911834
