13
Energy = -57.87179829 eV
Pt 7.459578582032218 7.1059216989876095 6.871212785798728
Pt 9.158782055625734 7.169072629288365 8.792521891677671
Pt 9.960393904131466 7.654377785551123 11.116889611462309
Pt 6.761426119128493 7.786107051193431 9.258582984115465
Pt 7.665081603024191 8.72965422619487 11.479357918843746
Pt 11.65612403576531 6.863314959982928 9.346141897514713
Pt 10.062223814093091 10.003009471455853 10.247304392284768
Pt 11.149927568338532 9.050752165497846 8.18180194669609
Pt 8.0211934404589 11.342223605032977 11.22634703378352
Pt 7.7738779810897105 10.050802739925055 8.93428731037551
Pt 8.798262069490455 9.245506574799768 6.7962802215940705
Pt 10.458801099086179 11.162272280636698 6.942872270157303
Pt 9.288565724214571 12.051222807933103 9.020637732175084
