13
Energy = -56.02466364 eV
Pt 10.575575 13.087012321133965 12.899969476329874
Pt 9.279364928584425 9.253314334333089 10.843733231899723
Pt 9.279364928584425 11.897835665666907 10.843733231899723
Pt 9.245137100437418 10.575575 8.572840612115993
Pt 10.575575 12.840812162188145 8.54942786001356
Pt 11.871785071415575 11.897835665666907 10.843733231899723
Pt 11.871785071415575 9.253314334333089 10.843733231899723
Pt 11.906012899562587 10.575575 8.572840612115993
Pt 10.575575 10.575575 12.874196141151735
Pt 10.575575 8.310337837811863 8.54942786001356
Pt 10.575575 6.869858736342387 10.59443497420386
Pt 10.575575 14.281291263657618 10.59443497420386
Pt 10.575575 8.06413767886603 12.899969476329874
