10
Energy = -41.79059008 eV
Pt 11.755014632719574 9.497484321559766 8.36571169987426
Pt 9.760910610474856 8.325547515570028 7.50925049509442
Pt 9.594093079092886 10.502300769202373 9.307768602192668
Pt 11.390602533493768 11.927308787890967 8.331055661335228
Pt 9.10631460853035 6.863515377650231 11.673350588249715
Pt 8.584190099795771 6.928396815510466 9.29877507758453
Pt 7.245998552935389 11.193306622647375 9.935728071105023
Pt 8.22613294339195 9.054811013591966 10.920051003880369
Pt 7.620065587740645 7.114424212041684 6.962226686844029
Pt 7.361094452708522 9.237321665218472 8.340499214723339
