18
Energy = -82.29960273 eV
Pt 14.135159851679388 8.358058248435428 11.709622240968717
Pt 13.29780794504827 8.524825048708529 9.230402237984704
Pt 10.475438716677372 14.087835737525602 12.108209610986028
Pt 9.295060248035977 9.77286993668312 7.45864654984815
Pt 9.601723123868403 14.226295269478495 9.642028835065934
Pt 9.524731061700587 11.932979324842613 8.676468872927812
Pt 9.273119086947878 9.5749258863835 10.13263551202235
Pt 11.88398603912688 11.969782551074502 12.670828138294286
Pt 13.254672204856181 10.716087638870777 10.784646887465671
Pt 9.805469975785273 9.908591935371007 12.627555066291192
Pt 11.036796876159931 10.550168415900337 14.916143619159724
Pt 11.662328005740445 10.491830180427757 8.737893051187104
Pt 12.509057301702102 9.526541072723948 13.187870289716493
Pt 10.812813475982756 7.979256624435189 8.61873273609723
Pt 11.419293623799451 8.466640594590563 11.107121478777737
Pt 11.74247386763464 12.708352019866313 10.177626827830709
Pt 9.487728833256575 12.323301336997236 13.770330863819776
Pt 9.11361373865632 11.9837786593642 11.216010112715258
