16
Energy = -71.61059774 eV
Pt 11.689792881903001 10.946477965294042 9.140675434160205
Pt 9.97911645300652 10.16525175298207 7.403297935621756
Pt 8.389081361803088 9.559269278618325 11.002984593122079
Pt 8.044729461319267 10.994622422972697 8.822521135517796
Pt 12.144222268700938 9.147954032306753 11.01094770447121
Pt 8.551348926094686 7.210113043365916 9.97345856370061
Pt 6.7600319701243885 8.852479635706388 9.129407744683986
Pt 9.325432718979279 7.890416719010664 12.72129697670194
Pt 9.018318264700268 13.32461034991191 8.670787338280197
Pt 10.966343924460796 6.868308125384493 11.087260603951124
Pt 10.958440210834578 12.552101653301074 7.300982576023342
Pt 10.546488348041546 8.349335358062048 9.005013404715305
Pt 9.747235271934931 11.91547122547595 10.663704993812102
Pt 11.562993396636353 12.414554435672482 12.403890201383565
Pt 10.382831245719736 10.191018380908588 12.565350778422589
Pt 13.369027492151423 11.341188989445236 11.015187497014496
