14
Energy = -60.25179939 eV
Pt 9.941461 12.159193579245509 7.580352954361115
Pt 11.544330356801686 8.007407951850485 9.670892724058405
Pt 9.941461 7.723728420754492 7.580352954361112
Pt 9.941461 9.941461 13.36262740449922
Pt 8.338591643198315 8.007407951850485 9.670892724058405
Pt 9.941461 7.792893512932757 11.779678510411939
Pt 9.941461 9.941461 9.832148240739182
Pt 8.038751155171264 9.941461 11.543376321570557
Pt 8.472179994756058 9.941461 7.747645899959567
Pt 11.844170844828742 9.941461 11.543376321570557
Pt 11.41074200524395 9.941461 7.747645899959567
Pt 8.338591643198315 11.875514048149514 9.670892724058405
Pt 9.941461 12.090028487067253 11.779678510411939
Pt 11.544330356801686 11.875514048149514 9.670892724058405
