10
Energy = -41.85254789 eV
Pt 8.445282195348385 10.528953365871132 7.571254321721158
Pt 6.043254367620028 9.716184682829253 7.684915346854965
Pt 6.048122686817241 9.010438198018024 10.104965691500608
Pt 9.184106725630244 8.22292959163426 6.940570481812251
Pt 8.619325309323788 9.261665519896763 9.765683220119588
Pt 6.77538389047911 7.454443416588365 6.828907444673289
Pt 10.843016536274671 8.383317029005008 8.956805539463861
Pt 7.47672768109987 7.087400817876252 9.260119927499302
Pt 9.63169000872957 6.135634013646712 8.387477178776201
Pt 8.547431514370983 5.813852848651236 6.078802914616385
