15
Energy = -66.76579056 eV
Pt 8.342057989540837 10.372705510966524 8.27436852470795
Pt 8.92413756024031 8.792492013834826 10.358056747475336
Pt 11.47431904231857 8.81032859530664 10.38668979590124
Pt 12.08058452299266 10.399529528208255 8.316754586097023
Pt 6.61853047845439 10.169123520939028 10.147386339048552
Pt 13.76598006874227 10.21538927672873 10.225561811142013
Pt 8.902634855999745 11.50864197238826 10.634265787618354
Pt 11.452327560517165 11.527260722576857 10.662870735640997
Pt 10.194545350770213 12.324639068065652 8.530710696363172
Pt 10.154144792520256 11.24249028698853 12.995115509297241
Pt 10.226402361165999 8.436063564447684 8.137220018710272
Pt 12.422365091543739 9.974669372165035 12.501228879578932
Pt 7.915520873238101 9.943543689371195 12.452083148017856
Pt 10.229775098073429 10.561884179582979 6.528459398191485
Pt 10.175226899410841 8.5997912439579 12.727780476681499
