19
Energy = -88.43352144 eV
Pt 12.790918794362605 7.6697880743912075 10.237927202634996
Pt 13.317230889101438 12.21183267394926 10.82561108723125
Pt 12.097508687725147 12.048728609401813 8.6585527138145
Pt 11.350745343549114 9.694074601508772 9.309359802576433
Pt 10.844459333951697 11.836271000356726 6.497954734243108
Pt 12.5261225705537 9.917638081981478 11.574938053214188
Pt 9.947875238905642 9.561930933786192 7.207363369772833
Pt 10.061755718974867 7.678992861929323 10.24510167596783
Pt 11.39647324742547 7.83053662304867 12.462430050234719
Pt 8.74819311143542 7.531944760388383 8.07649364143189
Pt 8.654608482761002 11.719104408473319 7.7900755033829086
Pt 9.908118893869014 11.91876354096459 9.970035090482659
Pt 11.17990506005382 12.035147185765629 12.16998677752147
Pt 11.070386534904765 9.953540252906926 13.992668559611307
Pt 9.35783240035492 9.442182751497388 12.095401813064818
Pt 8.085489303357278 9.317483485233163 9.768961123318594
Pt 6.5468070507431575 11.267443892779747 9.062756063944375
Pt 9.022628269943201 11.616766691863717 13.469071663350489
Pt 7.769448841535757 11.424337343282291 11.261818847710089
