11
Energy = -45.5817772 eV
Pt 10.683066376640424 11.002965580218087 10.940113063284514
Pt 10.022865078180697 10.742676748484426 6.49551061943669
Pt 10.478359664361506 8.425291596071622 11.026631002828703
Pt 9.547262865547966 9.964873956965784 8.889676286851886
Pt 10.005948882515748 7.018482301352817 8.978406886544834
Pt 7.687049314737444 9.73942811339674 6.90327845559289
Pt 9.841553977286024 8.174014633680747 6.738449195530311
Pt 8.357037610273865 9.987836892283516 11.340528085530158
Pt 6.9020886001803445 9.39364996542482 9.32022805373052
Pt 7.644282018068839 7.276287454474486 7.95519803994705
Pt 8.045597001492494 7.410796072263313 10.619023890306323
