17
Energy = -75.77016281 eV
Pt 12.402165651854324 8.051261580845757 8.357521573568299
Pt 13.311680368722074 10.232769158292534 9.649048945996
Pt 10.910911008639795 10.1124547185066 8.733272479241258
Pt 11.522645164419167 7.220390120521639 10.571862729488117
Pt 9.87456181258136 8.114970654036455 7.475203986362214
Pt 11.402720129161152 12.386227681673267 9.634221820280441
Pt 12.749834233859087 11.864654300698332 11.705281594615059
Pt 8.644630200890342 10.67339410194316 7.843646619871854
Pt 11.72664696273674 9.480940031846293 11.565214430694365
Pt 10.244721048304395 13.333665855607 11.75874643036792
Pt 7.35029806167908 8.530836657232896 8.283480362340395
Pt 9.21863251279327 7.916434721821128 9.972568038962196
Pt 8.850841692814683 11.991077824943792 10.100397835370162
Pt 6.602994754535626 10.997805221547733 9.407317522915308
Pt 10.626459654595264 11.223508216634844 13.187533678748814
Pt 9.162632069806255 9.873410065551152 11.671257672932704
Pt 6.9837575318265666 8.915570827909493 10.904117021025408
