17
Energy = -77.52962588 eV
Pt 8.5517192247386 12.126215101560197 11.580505390518498
Pt 9.863129 6.584833628766507 9.457423857329477
Pt 7.561614796071899 9.863129 7.149006778562526
Pt 7.241986912064099 9.863129 11.726452985326217
Pt 9.863129 11.13698106666844 7.68743221407459
Pt 11.174538775261404 7.6000428984398045 11.580505390518498
Pt 9.863129 9.863129 11.869690378574541
Pt 9.863129 13.141424371233496 9.457423857329477
Pt 12.484271087935896 9.863129 11.726452985326217
Pt 11.174538775261404 12.126215101560197 11.580505390518498
Pt 12.16464320392811 9.863129 7.149006778562526
Pt 8.5517192247386 7.6000428984398045 11.580505390518498
Pt 9.863129 8.589276933331563 7.68743221407459
Pt 11.750259171711665 11.13897189917229 9.360212379412115
Pt 11.750259171711665 8.587286100827715 9.360212379412115
Pt 7.975998828288336 11.13897189917229 9.360212379412115
Pt 7.975998828288336 8.587286100827715 9.360212379412115
