10
Energy = -41.33403978 eV
Pt 9.770567479177545 10.14557083004958 6.3206630855581265
Pt 7.816759203661749 9.89653235467119 7.865545158652695
Pt 10.341095285198692 10.50896269498975 8.785826718927005
Pt 6.231718606680438 9.542969079591476 9.769439478259482
Pt 9.900558545350782 8.060201408011446 7.8200581748475395
Pt 10.468735602247227 10.243978127206017 11.308817141684726
Pt 8.504298461245048 8.419511017663359 10.09871753920434
Pt 11.006899554878569 7.964953440933503 10.113562767021198
Pt 8.234356067384155 11.044770127759627 10.37228191866778
Pt 12.287009679677572 8.734549404625966 12.107086502679023
