18
Energy = -81.44275405 eV
Pt 11.023724084952262 9.390853488701753 11.301424385463976
Pt 13.646620866865412 11.69642577039545 14.117787135355533
Pt 12.65295540922844 12.400852627544408 11.858510046610771
Pt 12.130762623367392 8.950574862022838 7.991374579291714
Pt 11.508627200475527 13.090723361217172 14.15843324975059
Pt 10.72236656234272 11.143519196793699 8.212317507710345
Pt 9.886111919678315 8.545419130505547 9.212057710232596
Pt 9.10987524212605 13.707266431473373 13.383690556561188
Pt 10.252010922421352 11.497540426749438 12.537381152905398
Pt 11.63472129573788 6.628324230181879 8.899394139653156
Pt 11.144487870791044 14.551608536150471 11.882298385148736
Pt 8.993732718207388 13.387860580054134 10.75434173861706
Pt 13.048893931558693 8.113076548901898 10.47287344589663
Pt 12.73188868349223 10.758115952795475 9.825054173950399
Pt 11.371643704777966 13.094974831331827 9.734818316441553
Pt 13.420752360486725 9.929409801363843 12.257283834167124
Pt 7.684789296855258 11.623955385105184 12.242133656353907
Pt 9.090533488798066 10.835139646871768 10.209797586382015
