12
Energy = -50.6082641 eV
Pt 12.030604366565868 14.32330451577766 10.694676
Pt 9.35874763343413 14.32330451577766 10.694676
Pt 10.694676 12.138002062931763 10.694676
Pt 8.116204624134786 12.176357058825328 10.694676
Pt 9.388268936216852 9.974739893947337 10.694676
Pt 6.848121211673172 10.029749618361413 10.694676
Pt 8.224049038236236 7.71684472190335 10.694676
Pt 10.694676 7.756118276477274 10.694676
Pt 13.165302961763912 7.71684472190335 10.694676
Pt 14.541230788326827 10.029749618361413 10.694676
Pt 12.001083063783145 9.974739893947337 10.694676
Pt 13.273147375865213 12.176357058825328 10.694676
