13
Energy = -57.81281032 eV
Pt 12.171606392976207 9.704756354122402 11.461171500764092
Pt 11.569112831193184 10.49504650459457 9.1343720332321
Pt 10.952971614265026 7.925865060826635 10.12641872370231
Pt 11.006318478193212 10.858881297444809 6.697004097293286
Pt 9.74557438655832 10.302327223860846 11.008928255144516
Pt 10.32112676221394 8.559476631205845 7.521035616094014
Pt 9.354262311847721 6.505973601888334 8.710139558489697
Pt 9.100049513206375 10.956369841993766 8.367633471442433
Pt 8.42503359239047 7.829581219967609 10.709388335188047
Pt 7.820714317819088 9.552616618572005 12.48001704602385
Pt 7.800779452998387 8.462524076137667 8.107909378811929
Pt 7.269172606033217 10.340416019593489 10.146621887785688
Pt 6.6579112792532085 10.700799088740109 7.723993634976659
