13
Energy = -55.95184558 eV
Pt 9.973716 11.687238885923868 11.77135691940624
Pt 11.389479339923321 11.258124543533466 9.65138640295759
Pt 11.935117822458945 9.973716 11.936913279778896
Pt 7.76047174195046 9.973716 7.4765871885866835
Pt 8.012314177541057 9.973716 11.936913279778896
Pt 8.557952660076676 8.689307456466532 9.65138640295759
Pt 9.973716 8.602225865638244 7.445902165282634
Pt 12.18696025804954 9.973716 7.4765871885866835
Pt 9.973716 8.26019311407614 11.77135691940624
Pt 11.389479339923321 8.689307456466532 9.65138640295759
Pt 8.557952660076676 11.258124543533466 9.65138640295759
Pt 9.973716 11.345206134361758 7.445902165282634
Pt 9.973716 9.973716 13.79124323909929
