10
Energy = -41.25741932 eV
Pt 8.866204078697198 6.393813347666096 6.118340124728143
Pt 9.812226184801148 8.290895502429949 9.245082788769173
Pt 7.7372826598179545 6.676264358671493 9.60548089000579
Pt 9.661700284524258 10.753967847141482 8.486163459826852
Pt 7.767508159436507 9.088020331808393 10.58690396114015
Pt 7.091760068321617 9.861017135270801 8.233916280043061
Pt 9.868449144779765 5.87018317579143 8.393253257635688
Pt 6.840082776102366 7.455740562078226 7.371986322336718
Pt 7.778778926995621 11.624030808261885 9.997453415809549
Pt 9.092931454594112 8.825256889462135 6.845586953003557
