10
Energy = -40.68292226 eV
Pt 9.776969761711618 8.887822581165537 11.208468386207878
Pt 10.794531651044322 11.287834200754869 11.965923202644012
Pt 9.147230386430085 9.97785883667127 13.487235863123436
Pt 10.077955892797863 7.875995666605128 8.912459678985355
Pt 11.546368307032083 10.210738490654844 9.781733987460637
Pt 11.141318829875187 7.887520362774398 6.654745060342577
Pt 8.337332215593479 9.848511754222914 9.192995105798236
Pt 8.260635158095473 11.181080277313516 11.376688418742292
Pt 9.766711423120205 12.002346523569065 9.239519277276807
Pt 10.393205861610936 10.125340003214871 7.4877270404857486
