18
Energy = -81.82076784 eV
Pt 11.891837831385805 11.439820094605512 7.981447197890892
Pt 8.972961582800373 9.449291525496312 11.891994846067027
Pt 12.37806991413058 8.311937132122198 12.411124397762187
Pt 11.119410370533101 10.4805239756806 12.828206057111254
Pt 12.930875028517804 12.397460830789177 12.022857932822026
Pt 13.17238951161497 13.214825460126004 9.663987685825672
Pt 10.64579587836525 8.011611557929957 10.565559168112973
Pt 7.381021980576698 9.515017348519452 9.907423212655488
Pt 11.91142204820406 12.427287442585465 14.354106011058818
Pt 14.392339483811655 11.148187961441007 8.868854501657664
Pt 11.274327874403461 10.420434623515256 10.207559156987635
Pt 10.315384385330528 12.902075022725647 12.393290382839444
Pt 9.383066596248257 10.783425959419619 8.579442661185368
Pt 6.671606399432541 10.52321193861283 12.178099094657686
Pt 13.62863027757137 10.065381313307599 11.022534851845574
Pt 10.616132917471957 12.873177295586787 9.827022171395413
Pt 9.102531276533865 8.238028384273768 8.536577380294059
Pt 8.465842291291054 11.874229502501459 10.963400793262556
