15
Energy = -67.37847813 eV
Pt 9.78217349028989 11.296198704808267 6.503093035752059
Pt 12.209152880642389 8.566636731393393 9.864987187364116
Pt 10.339195939557811 12.491227027592286 8.587655775888576
Pt 10.532613366586867 9.879890659395672 8.397882669862698
Pt 13.89751588173342 10.19967929190691 10.757834311770159
Pt 10.359088981118424 7.350088970643063 8.665511402736588
Pt 11.709667801065937 11.559686218426103 10.668442346272148
Pt 10.95461918986075 13.982621400160753 10.53108009262715
Pt 8.86465886977696 8.809179406779279 10.113083620174658
Pt 10.704265599136221 9.367246265133241 11.706352898475311
Pt 9.227601589905179 12.168396381817843 10.92094352150185
Pt 7.435488233187093 10.428221214474686 11.375207837782032
Pt 12.566841726402396 10.625463603334566 12.888461393618671
Pt 9.210347721646668 10.820679920683306 13.133447580430278
Pt 11.038008562053394 11.286024036414311 14.717256158706649
