18
Energy = -82.03083161 eV
Pt 10.930274133496695 10.001659518639865 12.299903801580292
Pt 8.368919260970037 9.058891124305429 12.650167086584155
Pt 8.980836387566807 11.598231920152916 12.910081154564303
Pt 11.342818144861239 12.677991829204254 12.639031691579618
Pt 10.126126748116038 7.913033919784998 10.873770829783004
Pt 7.986908538098802 10.587734794725305 10.622898765547983
Pt 9.773327778317606 12.659481035235006 10.586563956732267
Pt 12.604631941106145 11.501525066541364 10.720248425158136
Pt 12.658354267080272 8.732032333432562 10.71833349146945
Pt 10.47134260203617 10.257464047724575 9.713238776345175
Pt 10.496655760413507 10.32987751842021 7.040986890988153
Pt 8.464289756089471 9.268496839904168 8.283889246529833
Pt 11.28700747602221 8.08486678535345 8.392991249759655
Pt 8.607318773316283 11.920608999538036 8.32062626251663
Pt 11.321622626549555 12.4819481567078 8.493880806122108
Pt 12.857518031073829 10.206661482676967 8.43699459560729
Pt 7.570563898955875 7.932103371240377 10.419659604227906
Pt 9.070892233533808 6.779452333497461 8.624935086440841
