12
Energy = -52.08781358 eV
Pt 8.07144730946579 7.034742525791183 6.67898387228118
Pt 5.577764202472494 7.136160740041024 7.326740243031509
Pt 9.248809468650313 9.440807366437772 7.324973098606066
Pt 10.646848110262628 7.410657763443559 6.639617803708238
Pt 6.762360153206704 9.472110607511699 6.611275779232945
Pt 11.242504174769499 9.23813627554366 8.86860802192206
Pt 7.317544208506212 6.107276411812519 9.150148988852822
Pt 6.870848318246052 8.622775238391162 9.021628867162475
Pt 9.601751788628482 7.308943905578202 8.9714633471161
Pt 7.768462293817062 10.940467374789286 8.738849473582432
Pt 9.46621505848622 10.142147978559219 10.473381673578906
Pt 8.240188652426504 7.96051755103866 11.009072569863777
