11
Energy = -47.07758845 eV
Pt 11.840537256341479 9.943553454424803 7.761850268204102
Pt 10.970695337340842 9.249379879820943 10.037178985725367
Pt 10.020929504925542 11.38471668468644 8.807917968367155
Pt 7.556370270177606 12.152214779399703 8.942545637743082
Pt 10.984342382252967 6.721230492832522 10.399135364645325
Pt 10.002453603588265 8.549505461417015 6.5702203770111005
Pt 9.22172929367602 7.800655181334694 8.86134948517205
Pt 9.083206414111567 8.016913125365146 11.463418933767173
Pt 8.20959427369054 9.950407955226478 7.703451871155102
Pt 7.140779083373852 9.298431384651222 12.3564369169553
Pt 8.225076827356904 10.188705847676344 10.352208438089692
