14
Energy = -61.12221247 eV
Pt 11.588632716158209 11.032113997734843 9.9466135
Pt 8.445093244045456 8.76872436444643 11.526279149448941
Pt 9.813506530402252 10.9904473823124 11.94694867255559
Pt 8.03460623244821 10.665655529619263 9.9466135
Pt 12.30579503035428 7.011397060363242 9.9466135
Pt 9.763042894849868 6.885596379945589 9.9466135
Pt 11.136853436504762 8.865450772229039 8.619323951715756
Pt 11.24099276412868 13.194661597199799 8.607693600987043
Pt 9.02375983642579 12.92409632520773 9.9466135
Pt 8.445093244045456 8.76872436444643 8.366947850551052
Pt 9.813506530402252 10.9904473823124 7.946278327444407
Pt 11.136853436504762 8.865450772229039 11.27390304828425
Pt 11.24099276412868 13.194661597199799 11.285533399012964
Pt 7.263860296639731 7.095161517715598 9.9466135
