10
Energy = -41.87777739 eV
Pt 11.665929198123049 8.911979834061757 8.192993220751307
Pt 11.355744460141706 10.014804122614711 10.45934176678036
Pt 9.675122117196644 7.455341818701861 8.693962035339268
Pt 9.377312321138033 8.53661515899666 10.94034246523563
Pt 9.80081167990501 11.788351260693188 9.506533837607838
Pt 7.781416658685852 6.688891273697276 10.213790760309104
Pt 10.128997601154982 10.699236236678493 7.238306115443752
Pt 7.828440971591328 10.279356338405925 9.918056024352515
Pt 8.141872414832084 9.21250735334323 7.666893054711762
Pt 6.252517040005931 8.421081065582037 9.177945182243347
