17
Energy = -77.43105461 eV
Pt 13.241158776107357 11.760668482007821 11.95199267145935
Pt 11.979711972998377 12.931019254057944 10.083841279899762
Pt 13.095555267820286 9.508196313634041 10.87677424693662
Pt 11.293184491277481 14.835618468502297 8.641896407887396
Pt 11.002367719505237 10.410095691175957 9.818132257857952
Pt 12.48346551981721 7.273455440714256 9.8606266181019
Pt 10.685922578626407 11.763478266805926 12.00636483438123
Pt 10.832951684175466 8.370784875936781 8.329628722613517
Pt 9.84044863579117 9.797010491094825 13.37493745974282
Pt 9.512149334448342 13.287609303567583 9.338592145098858
Pt 10.8995483517497 8.324573693701822 11.572928615243084
Pt 8.455765187141264 8.156424503616043 9.321881692234268
Pt 8.181517443586895 9.680354455708718 11.475362291419236
Pt 8.838257095398413 9.384698219505944 7.109425623202569
Pt 8.267095343055015 12.204263535325918 11.300689655800298
Pt 8.591852168241507 10.92116276750425 9.083294445008525
Pt 8.609565477234913 7.2011032841149 11.664148080087347
