14
Energy = -61.25230115 eV
Pt 7.707301486992539 9.279817329714138 8.474671750886094
Pt 9.230392025764216 11.238338893832053 9.365108690358369
Pt 9.286266128913635 10.660256836044844 6.789592302394913
Pt 7.402076695961556 10.1312992769932 10.952841103588744
Pt 11.309017304038445 8.5797947230068 10.952841103588744
Pt 9.86171904359366 10.60650059989628 11.798416204149484
Pt 8.84937495640634 8.104593400103715 11.798416204149484
Pt 11.230486540084938 12.029978853138687 7.8522848271445955
Pt 11.003792513007465 9.431276670285863 8.474671750886094
Pt 9.424827871086372 8.050837163955155 6.789592302394913
Pt 11.900490540773 11.1168436251669 10.255914078516494
Pt 9.480701974235789 7.4727551061679485 9.365108690358369
Pt 6.810603459227003 7.594250374833107 10.255914078516494
Pt 7.480607459915067 6.681115146861316 7.8522848271445955
