11
Energy = -46.84318868 eV
Pt 7.487858058458156 9.575210368897507 8.505633568188
Pt 6.335850513460422 8.435297904180926 10.42902069702236
Pt 8.846131581624425 8.629208605594815 10.945353428917402
Pt 9.46126994381549 11.046563724347449 9.35456770381753
Pt 9.155474611522775 7.591117794698877 8.437174772209627
Pt 10.575614389983405 8.860968441631734 6.799722862561619
Pt 11.944374269896711 11.506103524159665 9.83445716641083
Pt 8.931572607645471 10.84276617260229 6.869536456172996
Pt 7.798647331051699 6.372880771405223 10.174134977202202
Pt 11.123396538104174 9.122196697789024 9.286977805156367
Pt 10.599954580295515 10.277830420550996 11.623564988199574
