10
Energy = -41.58815929 eV
Pt 7.713760585695139 6.874833319060042 7.640124058433232
Pt 10.242386149025064 6.857329958002527 7.521215029708567
Pt 7.704812244228976 9.412494693400713 7.674243113453084
Pt 10.188027266482711 9.371917430749129 7.186905232621525
Pt 9.303032332144939 11.55179137071717 8.4451801670447
Pt 7.911233168839695 6.711050272615036 10.173621287523819
Pt 10.42613879762778 7.038784883432304 10.049117987015638
Pt 7.477453707134885 9.1647230312003 10.226170282785
Pt 9.945168424146942 9.471784360828822 9.71803008189239
Pt 6.84419620954321 11.365220630019829 9.185322734534537
