14
Energy = -60.07556352 eV
Pt 11.034742849953174 9.42430660707881 12.193594096689962
Pt 11.503694908332827 8.033828885873522 9.542330351684923
Pt 8.453153871927283 10.483420030643021 12.017185234261241
Pt 9.155445516193561 8.469655301145007 8.114748578019851
Pt 7.338876838193233 9.836635837314352 9.609191192004959
Pt 12.502232928035042 10.572268611382599 10.112283539058183
Pt 11.410064627124077 9.917286126892732 7.7059991341364436
Pt 10.704684521352252 11.964354192435707 11.626709973125227
Pt 8.878706892343448 11.136066910092435 7.677293741980225
Pt 8.441523309028344 12.378832005024108 10.038430807420028
Pt 10.90115180432191 12.4232957168955 8.884968795331467
Pt 8.747243205744903 7.976719552911265 10.818206312363412
Pt 9.941456766701211 10.148910280427582 9.909014089647316
Pt 10.876887032558455 6.912171676702135 11.749911787889157
