19
Energy = -87.78400907 eV
Pt 14.21320090501678 11.548241408606357 10.355714396388983
Pt 13.527735786234937 9.102298266835724 10.27855401005093
Pt 11.841704849779902 11.703319176149535 9.370241379544197
Pt 12.255130825262524 12.200936154277874 11.872994383806066
Pt 11.512899198913638 10.688639105642933 7.027277105660504
Pt 11.418842198712142 8.904019346487795 8.886946890071625
Pt 9.458649216816376 11.7838364681511 8.397395011323553
Pt 11.974622810561645 9.733305749516195 12.107937225060928
Pt 11.39703367750632 7.435823424055072 10.972020744142226
Pt 10.287233462298564 11.201459320986581 13.421342637406445
Pt 9.313393060551041 9.378429393740245 7.423447216100356
Pt 9.525501317651942 8.99793730049344 12.005931654996214
Pt 7.172233576652301 10.938786056276898 7.32382406487723
Pt 9.13582371623062 7.887945040446081 9.741855746568225
Pt 9.746553826296697 11.83635817945221 10.97015325316603
Pt 7.798149324027023 10.805750977576087 12.433461623493237
Pt 7.5603903361735565 10.837517117889481 9.88013627828535
Pt 7.014928369388121 8.61009168414925 8.522093706516236
Pt 7.0122483609018404 8.571580648243268 11.174947491517795
