18
Energy = -80.28469615 eV
Pt 11.348506662147912 9.604520487015817 12.297152500729876
Pt 15.231530192123682 11.109586809991749 10.516771831563664
Pt 14.647705735406777 8.860811888336643 9.291143222546172
Pt 13.18087968932317 11.02465474966345 8.862441406188841
Pt 7.358157344523865 10.583263730047308 10.753153254090286
Pt 8.246265858042177 13.18707448475456 9.955839624737411
Pt 10.617601410410433 10.516176094217373 14.567347421126192
Pt 9.583463287080525 9.095235734404174 10.464090016770852
Pt 11.304486793238977 12.58733039632765 13.18491162704186
Pt 10.67429750290823 10.843862851135471 8.79082258038896
Pt 13.8887959572958 9.218185064751315 11.816744592158125
Pt 12.087984740164671 8.824631805057647 9.933066785312958
Pt 8.277370198903958 11.312664414973684 8.26690677401187
Pt 9.220020699281541 11.139083324909471 12.499147325334787
Pt 10.554836434707108 12.599653021131333 10.672486319394316
Pt 7.179972416672169 12.670545652024472 12.200158164692208
Pt 7.640173950635277 8.894131542843475 8.85538775744292
Pt 12.85282315870151 11.682646034051688 11.360809073319349
