19
Energy = -87.18642016 eV
Pt 9.100273558761696 11.798303586598937 12.95050376409959
Pt 10.371192980558579 8.627649598800799 12.251243074522177
Pt 7.474078048107261 10.399043836585339 11.477976562166157
Pt 10.695833784931922 11.551739756101522 7.032979705139625
Pt 9.666363532418226 14.093787032053855 12.089914379377644
Pt 8.450394936547374 9.423796319925932 13.604116573946696
Pt 8.516203419466835 11.091276351007664 8.15619257284316
Pt 11.396996207763893 12.688193538416844 9.216490997155557
Pt 13.390826753067623 11.285965882094175 10.585128494386629
Pt 6.597604741344372 11.80057948696174 9.623759210807933
Pt 13.538469937994693 6.6933466391716125 10.889135755082748
Pt 11.34641255571124 11.01673284228031 12.151443012931628
Pt 11.336380986960346 7.806811566302127 9.963631130168467
Pt 9.0412258289309 12.622026825352785 10.111165849550755
Pt 13.832858407795513 8.809078414225636 9.494836730006254
Pt 12.91809248587446 8.945113485423814 11.972961964078376
Pt 12.034656929047733 13.349388494801365 11.55897752063444
Pt 9.45918207776091 9.658442871779233 10.048403729886218
Pt 11.807126802718143 10.15151610312632 8.813532311780747
