13
Energy = -55.68145155 eV
Pt 7.1827946728844445 10.734482648923906 9.36717273708978
Pt 9.351835 8.089477975654514 7.926760366631922
Pt 7.176310309644675 9.351835 7.081913612616868
Pt 11.520875327115549 7.96918735107609 9.36717273708978
Pt 9.351835 10.614192024345488 7.926760366631922
Pt 11.527359690355327 9.351835 7.081913612616868
Pt 9.351835 9.351835 10.721542067008881
Pt 11.520875327115549 10.734482648923906 9.36717273708978
Pt 9.351835 11.943547934663291 10.195059812857936
Pt 9.351835 6.760122065336707 10.195059812857936
Pt 7.1827946728844445 7.96918735107609 9.36717273708978
Pt 6.9051266829081 9.351835 11.488077200209279
Pt 11.798543317091893 9.351835 11.488077200209279
