12
Energy = -52.33995884 eV
Pt 12.653889274753025 9.073638484992534 10.984711501028086
Pt 11.482338091020278 11.159014223717602 10.142601334053682
Pt 9.688942314716051 12.880629503313608 9.639299155381511
Pt 9.907550674971832 11.030441007143065 7.895414627533557
Pt 11.028658583216247 8.774718879058183 9.066244237983112
Pt 10.26743834267185 9.429209549255404 11.785549260042634
Pt 8.590846429800713 10.52276354080943 9.983152997454816
Pt 7.76676986081968 9.52667232348516 12.168071698155545
Pt 8.639339949586308 7.903266459312964 10.399601502482048
Pt 9.917185745619658 6.529311612956989 8.660432028732593
Pt 8.782809588788142 8.580561011193282 7.7173402363026815
Pt 7.381994557064634 10.697536817790748 7.665344833878574
