11
Energy = -45.27684161 eV
Pt 11.418806399958294 9.886842305448752 8.793758473896952
Pt 10.821897510007615 7.7399919096498335 10.355206197333276
Pt 10.64840724585801 7.565829037068329 7.647263069792394
Pt 9.301583737355644 11.553903645778583 8.803919795052606
Pt 8.717118617389378 6.437718672424815 9.201639658673473
Pt 8.998834048528014 8.994539296137463 9.036307761233767
Pt 9.976790663641907 10.22341062715774 11.076669942277197
Pt 8.048766384512716 7.805537323334405 6.948747897518269
Pt 7.2161841302776475 10.26960044114816 7.661577891630607
Pt 7.359140740670187 10.470073942892425 10.371837594999759
Pt 6.57848312122554 8.129526590746188 9.213770247528041
