13
Energy = -57.48509642 eV
Pt 12.357887822418407 7.739983309736893 10.482363213795981
Pt 11.638946484893006 8.748344257920868 8.287353606380888
Pt 10.888976952190538 9.65010434779261 11.51267562762007
Pt 10.413572458670552 10.35325317948969 6.656883821988433
Pt 10.144958575668317 6.900439642505757 9.615470226670961
Pt 10.290840393348914 10.66949512482114 9.26627397335836
Pt 8.749334353232015 11.161060027792312 11.22118291149702
Pt 8.684585602350257 8.661871541908017 10.721449422344735
Pt 8.241704992380367 11.142953599366017 7.828559357109683
Pt 8.964164959311463 8.506049351404492 7.755463245569489
Pt 7.588105192827334 6.836525297406124 9.179207514119073
Pt 6.681420061754568 11.749418576405645 9.710994701475629
Pt 6.7634956559841735 9.288495248480483 9.170115883099715
