14
Energy = -61.48843098 eV
Pt 9.597628934204318 8.407601409415367 11.110126924435226
Pt 12.17956217349083 8.516419457836268 11.017639838845504
Pt 7.034335832946285 8.659019134557399 10.90825073984174
Pt 10.985668014375504 10.728023853630292 10.827885655664728
Pt 8.3180438115891 10.816448544527029 10.742186402333594
Pt 9.73229745463493 12.916342593491406 10.475230362611784
Pt 9.440677966744705 5.9654289375504685 10.207434485843375
Pt 9.682764272344452 9.858160663044389 8.216999496683785
Pt 12.328291141548096 9.734234473507692 8.630690103023989
Pt 7.003645109505224 9.976433400299054 8.519624049613045
Pt 11.128936451160177 11.998349577907934 8.403118784955218
Pt 8.428651295878803 12.109893181813504 8.316906922893189
Pt 10.893594556814472 7.5986142703123845 8.857367509603675
Pt 8.253188497351262 7.7223157584010265 8.773823595504169
