11
Energy = -47.17176626 eV
Pt 10.471582969674623 8.00399292229353 8.325512298283991
Pt 10.721938983194828 6.907609281783444 10.60424358498281
Pt 9.240385061645501 9.338797883766969 6.515926424728261
Pt 11.273369108417848 9.375943224501025 10.639745010799325
Pt 8.282292925567486 7.619260025907683 11.00438251012219
Pt 8.123142498407287 8.77866063920455 8.772209631274603
Pt 10.066234682426595 10.677560777685448 8.47642678934413
Pt 10.873238509244972 12.999367294086735 8.37791529650649
Pt 8.870913411971335 10.069549010049656 11.013736770263458
Pt 10.670964267920032 11.882419893203345 10.651893239801351
Pt 6.409027453214195 9.349928919202457 10.621098315577957
