11
Energy = -47.58438081 eV
Pt 7.602703896531268 12.114425729415046 8.855118433565204
Pt 11.311646162511169 8.523659143993854 12.27420213242708
Pt 9.113009610720512 7.943846614428345 11.267861546408426
Pt 6.9772273809978635 7.621038143516067 9.904390166581663
Pt 8.005353323954575 9.944087513131066 10.171648882722112
Pt 9.791961692304056 11.743395334200523 10.182003240964413
Pt 9.717078824955513 8.663211335974145 6.31001577772588
Pt 11.666924594515265 10.09086020818802 10.46555795519467
Pt 9.455673077350804 10.603834187455703 7.947559884727682
Pt 9.212812171895024 7.989823655732597 8.735551684523083
Pt 11.444616332914107 9.060825202615336 8.185097363810215
