15
Energy = -66.40247794 eV
Pt 12.96320836917529 10.139242245630335 11.783533339403549
Pt 10.93117569916359 11.677296743858614 11.614717315840151
Pt 10.582110121772049 9.104479229018283 11.886296643166457
Pt 12.681231108562026 7.986664855498048 10.287500421680448
Pt 11.849432191947068 10.350622636057487 9.421502418874278
Pt 10.725883515067688 6.540628817967767 11.050921640893753
Pt 11.119128097533517 14.114657050742775 10.781618703725725
Pt 10.30167481793771 8.220860767965442 9.113110794529678
Pt 8.774640125152304 13.043995470741542 10.874606689596042
Pt 8.552551068279488 10.450843026001959 10.93371289429834
Pt 10.480348336689872 12.48063530441708 8.913167866525384
Pt 8.432440893322426 7.833335182203127 11.113468716593939
Pt 9.903662782462469 10.306707590684159 7.6418481062470605
Pt 7.897903108503798 11.681870600084103 8.769417031008395
Pt 7.850785206942985 9.04668919591032 8.835056581780943
