13
Energy = -56.45241972 eV
Pt 8.136367217757236 11.494867143854453 9.566989065986983
Pt 8.13636044887463 6.289267599328994 9.566990194134126
Pt 7.882114584508135 8.892070191959391 9.750933456489793
Pt 10.368025930733664 7.54568637165531 8.656816371568093
Pt 10.368029315174843 10.23843934635136 8.656809602685483
Pt 6.6488182487903424 7.610928995665483 7.824318166891772
Pt 6.648823889525809 10.173206875665105 7.824324935774255
Pt 9.576762893394394 7.570035241055345 11.256965460809273
Pt 9.57676740598284 10.214067914009588 11.256959820073932
Pt 8.851646233174995 8.892071320106535 6.879560962843792
Pt 8.845205630037311 11.442469328177962 6.997146848350174
Pt 8.84520224559588 6.341668799446791 6.997140079467564
Pt 11.712701328302861 8.892046500870638 10.361870791219042
