11
Energy = -45.69533271 eV
Pt 10.320058 10.320058 12.888616897667587
Pt 11.624856002209862 11.621149889567821 10.99384803490935
Pt 10.320058 13.891786367108526 10.917245835534153
Pt 9.015259997790137 11.621149889567821 10.99384803490935
Pt 9.015259997790137 9.018966110432181 10.99384803490935
Pt 9.0270100255946 10.320058 8.667537192081625
Pt 10.320058 12.59242725424491 8.743531518173478
Pt 11.613105974405402 10.320058 8.667537192081625
Pt 11.624856002209862 9.018966110432181 10.99384803490935
Pt 10.320058 8.047688745755089 8.743531518173478
Pt 10.320058 6.748329632891471 10.917245835534153
