13
Energy = -56.02378801 eV
Pt 12.562948945969003 11.605995641727212 11.303509283512705
Pt 7.991853054031 8.94880635827278 11.303509283512705
Pt 10.277401 10.277401 11.622665668147496
Pt 8.045687902230611 11.638590625570128 11.362668336799956
Pt 10.345297627149742 12.864265075269167 10.998766034663824
Pt 10.209504372850253 7.690536924730833 10.998766034663824
Pt 12.509114097769388 8.916211374429865 11.362668336799956
Pt 11.314745721424305 11.139955837558157 9.029295309147978
Pt 9.240056278575693 9.414846162441828 9.029295309147978
Pt 6.818771664392212 10.4002719475003 9.38063441592639
Pt 8.868140327550707 12.015360799225668 8.916900264394915
Pt 11.686661672449295 8.53944120077433 8.916900264394915
Pt 13.736030335607792 10.154530052499696 9.38063441592639
