11
Energy = -46.17373818 eV
Pt 11.54510378268789 11.626548275701557 8.419591881866449
Pt 11.357664891837306 9.803108733619224 10.37807437129232
Pt 8.950314749143859 11.839605910761724 8.691135355391873
Pt 10.086444959047784 9.508630774398329 8.155091394806426
Pt 7.453443216013364 7.124201266526062 9.05425620542629
Pt 10.443804793455534 12.131015856770347 10.86456669463959
Pt 9.947032911212593 7.010949169430057 8.66536889699444
Pt 7.517390111316423 9.653012315029887 8.843406172577028
Pt 11.268350070408601 7.322435857430681 10.817337438520042
Pt 8.135282566161802 11.046303329919724 11.077417408331902
Pt 8.980614109772853 8.644786252561891 10.718550954248922
