19
Energy = -88.03750215 eV
Pt 7.729409838486128 8.698355445374178 10.284683389483556
Pt 7.760927540060587 11.251919293903848 10.586059571346672
Pt 9.335234121685229 10.159356660415954 8.97932630054488
Pt 10.121162322802284 13.33913205781214 12.189652501911096
Pt 9.872408688402095 12.33575968212466 7.800738421674439
Pt 9.451788542019347 8.349524942685253 12.067417538003475
Pt 8.872480322751827 13.428872400567503 9.918087770418738
Pt 10.67541706296069 11.016404466615649 5.8654141453499165
Pt 9.61773708209204 10.868494510597879 12.249640792891984
Pt 11.30271067697206 12.934028642896534 14.389462874495289
Pt 11.32125149450106 9.411940091241496 7.635955122184609
Pt 11.247371134225563 9.180018283566874 10.45698723551522
Pt 11.233253032046578 8.044383165295407 13.822156901871482
Pt 11.267443991188127 12.212507252125414 9.903932151824902
Pt 11.736093682313935 10.558610923145315 13.607513827797453
Pt 12.581930233223474 12.419777877297715 12.102723961105179
Pt 12.984600327002651 10.51042570170313 9.167672571663566
Pt 13.054290064773063 8.9217959601141 12.251262783949526
Pt 14.345967207077306 10.870170007100999 11.232789502551615
