15
Energy = -66.84214707 eV
Pt 9.637769554195124 7.443931099933747 12.66741727548488
Pt 8.082754840305311 7.695145508903649 10.576729076483645
Pt 11.129965873665618 8.412667001352224 10.813818711866057
Pt 12.498808959065917 7.548358748684433 8.745744614990064
Pt 9.171295032859652 9.744896586587677 11.64537613637468
Pt 9.821341053461213 7.759820528478082 8.701371079262705
Pt 7.512206278832367 8.857705194180658 8.374596127831802
Pt 9.675318336050127 11.593846721719595 10.000396973704678
Pt 11.665964706035439 10.981265702472863 11.496174871585898
Pt 11.654696017565417 10.194951355419699 9.018627361563441
Pt 7.290679697844689 11.372891416867656 8.98481295634064
Pt 11.234278685904771 8.821251151616897 6.878359312183357
Pt 9.393264071105758 10.477133259430886 7.485388367187858
Pt 7.560689003245198 11.776892879691665 11.449558166481475
Pt 7.0591987694728395 10.707473724269834 6.54985984826866
