16
Energy = -71.48419684 eV
Pt 12.117807802711324 10.313604577276722 10.496850275955673
Pt 9.203607864202663 13.82942573145533 9.063573866617693
Pt 9.376880007730678 7.178523165584275 10.305485995239367
Pt 8.071771485054038 8.900219159452371 8.70593589119669
Pt 11.683054347151703 13.926231275589696 11.272538502386157
Pt 9.598145249165054 12.397804921313636 11.153636364989309
Pt 11.980370352275067 7.687701955558941 10.746271903115682
Pt 10.674524701726616 8.941855835480434 8.84012513562921
Pt 9.10109093576203 9.797666106833828 10.975156102758174
Pt 10.364786758844236 10.815628653877013 12.99654608866792
Pt 11.413968899952224 12.397259953242193 9.268046585559699
Pt 8.413526099558839 11.409999436144108 8.979141647585363
Pt 12.594753972701623 11.909023384011238 12.45441756909166
Pt 10.238181402456863 8.157494648606313 12.60942540300801
Pt 12.643176343420313 9.312470532164578 12.832935013474561
Pt 10.41798536109818 11.004518723942121 7.434559268217086
