10
Energy = -41.7868222 eV
Pt 11.026325408352148 9.16783790763728 8.074146336961164
Pt 12.313954849088821 9.14993332673029 10.285791857923005
Pt 8.780038563620337 9.57526775459567 6.7447741815722395
Pt 9.267574649909237 10.699079909835653 9.025491377474797
Pt 10.375511849718782 10.541499187944776 11.278810390837856
Pt 9.977351938014 8.138197163083683 10.59521835737055
Pt 9.075323671022456 7.445616939608941 8.289389639396234
Pt 7.896263718277842 11.139110568150555 11.210359690319045
Pt 7.605245273967154 8.954564986725122 9.905400000833348
Pt 6.707504926744028 8.213987104402566 7.615713016027096
