19
Energy = -87.28835898 eV
Pt 9.437652260696566 8.703224086627639 13.015647589077892
Pt 9.283729203525219 7.234445320206567 10.916307038661907
Pt 8.766722108273441 11.318284448823348 7.100287496200425
Pt 13.740522815855913 9.147302008013149 10.907545369286186
Pt 6.621635767118203 10.626072662994508 8.334101913983503
Pt 12.291317208331666 12.93430136561695 12.542118815426871
Pt 10.030703443677776 9.488149547932803 8.39973284766597
Pt 12.60971095747646 9.898470424956407 8.435727284571174
Pt 11.404598360146753 8.397180638889607 10.209805666763774
Pt 8.3349541392515 12.1735168455901 9.51019363485252
Pt 8.863788611943253 10.442729036495168 11.33712420385278
Pt 12.147559205214325 10.368363933994274 12.572847292974107
Pt 12.862629452545383 11.576807260701464 10.397292042480704
Pt 7.905953226485623 8.86105853826394 9.590174647417681
Pt 10.012022669138203 12.770196684127532 11.342909712343358
Pt 11.844659059917385 7.907284290414188 12.701609467157295
Pt 10.79045123466795 11.886258549413498 8.74406020098909
Pt 9.992276980044474 11.22774813765837 13.531394472794478
Pt 11.895485437089881 13.90375290656409 9.978855453973411
