13
Energy = -56.58820482 eV
Pt 7.32991013415358 7.724333701809854 6.507292684564107
Pt 7.329825060210093 10.261759351068847 6.507252710060566
Pt 7.478924152997863 7.6930987998791345 8.990830699026288
Pt 7.478972327399646 10.292873304501788 8.990787649560906
Pt 7.5901786256075825 7.720993811958398 11.474975528298636
Pt 7.59017145069675 10.265021341887646 11.474964253438682
Pt 9.859583766474316 7.72259616266302 6.339157717885708
Pt 9.859514067340033 10.263350317035771 6.339200767351091
Pt 10.041779587505204 7.701699566294504 8.827590874348523
Pt 10.041835961805102 10.284340187246269 8.827618549004704
Pt 10.126544545282675 7.727096460434838 11.31694423739944
Pt 10.126538395359121 10.25892279336046 11.316965762132067
Pt 12.055319425168145 8.993011676872081 9.995516066929405
