15
Energy = -66.07331194 eV
Pt 9.571895668141767 8.611188853954499 10.978419062218146
Pt 12.194391820859867 8.588267016384139 10.657099671420099
Pt 6.947393751935319 8.59146498019836 10.655808713086927
Pt 10.94127390736113 10.853389780600121 10.599665895577681
Pt 8.203689506245349 10.852544724537886 10.602028824941845
Pt 9.571356685847904 13.053256738820398 10.416998713551367
Pt 10.880358940968375 6.289168395147492 10.593955471481829
Pt 8.264867646733537 6.2939692628470905 10.593419073073834
Pt 9.571731296383374 10.059867697778627 8.13189597781188
Pt 12.211133995383216 10.067921236632587 8.31823191944896
Pt 6.932768758839769 10.068708847605928 8.316518250643195
Pt 10.9582936686992 12.315269232615792 8.317439283373186
Pt 8.1805468291764 12.318308606662518 8.317142287574487
Pt 10.882844497812865 7.805441097939307 8.53784183514356
Pt 8.262075397464862 7.805856156422053 8.538157648800215
