16
Energy = -71.113548 eV
Pt 12.902892764178423 11.094697915453041 15.447933665913727
Pt 12.940782761485154 9.78141772255864 10.035304626869843
Pt 9.200551262841214 9.39916272537603 9.861411452136243
Pt 12.552596401550616 9.441919834813522 13.609863685170497
Pt 8.25166098201972 11.565574209189256 8.873837300353463
Pt 7.298118774109875 10.747048436088676 11.076843594837987
Pt 10.394245316259886 12.27739648132108 10.085908468818756
Pt 12.23960970359328 7.9183682724684505 11.579374840587697
Pt 9.181246199034312 11.88589416998043 12.271505117657117
Pt 9.567946870163489 11.536025636587594 6.743394116213915
Pt 13.100518281551977 12.3678751137434 9.687792361727293
Pt 12.29680595812323 11.33350892933557 11.914643904718554
Pt 10.840353123386729 11.46075167712162 14.105737733419653
Pt 11.402251399880925 12.920434849400936 7.853890256780687
Pt 11.097123040916838 10.304883548344414 8.408229337854333
Pt 10.343261181416413 9.575004498728957 12.054293557452315
