17
Energy = -76.52229458 eV
Pt 14.040993548224781 11.245284376384069 10.047197678297794
Pt 13.76932213401867 9.267230824266866 11.76302876484619
Pt 14.096915494931341 8.795365283508286 9.246613552912548
Pt 11.563097728946795 11.365133985279414 9.46819234780366
Pt 12.388077397850767 11.478108198919582 12.067344063069244
Pt 11.038197202554858 13.429961404276158 10.947291664422778
Pt 11.602075592239741 8.879166745850732 8.886604058773347
Pt 11.270508928148848 8.98861296799853 11.488130767155884
Pt 9.21297302723373 12.615330408737572 9.352194714036147
Pt 9.369289598653905 11.678030514368201 11.847772925552386
Pt 10.64359972740089 10.344347870762604 13.59115445458111
Pt 9.734603449771186 10.331785409090863 7.772139915698162
Pt 9.194113756797773 9.251595857160872 9.974565298022718
Pt 7.49933634580927 11.63491233565116 7.750925855891614
Pt 8.913402011514544 8.488135091799116 12.41177476924634
Pt 7.2651137682801465 10.89752512390939 10.149645589796103
Pt 7.314737473632973 10.41618722273357 12.627389130866801
