12
Energy = -52.15097728 eV
Pt 11.355944330939055 10.445288012030728 8.408386805875619
Pt 8.884822110253728 7.6108475395973025 8.038562121365372
Pt 12.115761194130759 11.916081090259148 10.306342430631728
Pt 9.620042229846563 11.75545495605846 9.960792966689143
Pt 10.736256982997581 7.8602271278949996 12.46309251404754
Pt 7.187329594677246 6.461744942885621 9.49506334436722
Pt 7.183011170516218 11.496295723352523 9.396216535765594
Pt 10.438268026309544 8.963270159331715 6.5872472783922165
Pt 9.150429483368788 7.841975877128439 10.575297396242808
Pt 7.113570580616021 8.979821133194383 9.521035780597908
Pt 10.839620161495793 9.678900669145085 10.799090050748037
Pt 8.713760544778703 10.328909179051593 7.787689185206551
