11
Energy = -47.54121489 eV
Pt 11.365299694662864 6.958533645083274 8.84344032321614
Pt 8.842064757925954 7.243635799846664 8.970625537940425
Pt 6.990530970748894 7.18187370534124 7.142488992206788
Pt 10.58266358508751 8.746222104015231 10.47607070658816
Pt 10.485100902579466 9.084360659813804 7.786977681633708
Pt 6.402375490978288 7.975032508445965 9.517191472316686
Pt 8.037573530403266 9.441544006585278 10.765052324786458
Pt 9.903112498121853 10.835979858166283 11.782455054512992
Pt 7.7556018503511615 9.524673748891479 7.911176449316402
Pt 9.490265572836702 11.123857260625778 9.280963456176538
Pt 9.364696303518192 11.103571860399159 6.742843158520243
