11
Energy = -45.64348364 eV
Pt 8.069004711844105 8.585354097159316 10.563998817592163
Pt 8.65593880539671 11.086147182374438 10.307272562192383
Pt 9.408994465347371 13.510448948379391 10.388242414908305
Pt 11.10983344785625 11.665948935025783 10.556795865740328
Pt 10.53119834176239 9.214554426854306 10.199206737543609
Pt 12.961200292533107 9.826302224928178 10.560393841762664
Pt 13.649041141910157 12.173055252176844 10.224179567829756
Pt 11.88440559792763 14.063992511631383 10.175222408817703
Pt 9.751373614605777 6.78317989809887 10.620349133029459
Pt 12.297302297944498 7.434277016307027 10.644457530562205
Pt 6.295492191815285 10.270524461536633 10.373666211077861
