12
Energy = -51.35079294 eV
Pt 9.490025455419202 7.197730196005028 9.51823722515229
Pt 8.239773541917216 10.606914251902488 12.072439073336527
Pt 8.211421944249985 8.80582611766921 7.896400932363249
Pt 8.469232785277221 10.760895482332485 9.56117594956824
Pt 11.99010883644579 7.855262007233726 9.964303888846523
Pt 10.82582943912615 8.758981269821415 7.70991880942344
Pt 10.725064254839884 11.52558550166524 11.897435452937724
Pt 9.574968487029167 11.050676303639705 7.250489858975789
Pt 10.176009414070712 12.586972439122775 9.549683207285515
Pt 11.430138074240537 10.372264914971664 9.576497201587712
Pt 7.462067471607481 8.548683856565635 10.488381754441177
Pt 10.100985104551592 9.02208455329824 11.318950875431083
