12
Energy = -50.37716664 eV
Pt 10.451951387761893 9.360525272386457 7.863576198701145
Pt 10.38208165504826 9.312997068286803 10.426807671655576
Pt 10.323111926833723 9.18460996292076 12.928541530329879
Pt 10.490726021541379 11.524078608391921 6.630489240736591
Pt 10.413693688021812 11.516533141162995 9.189523907746986
Pt 10.346845553351699 11.437576868732853 11.79117960569941
Pt 10.303241731550187 13.686332240395252 12.88588936468903
Pt 10.37845469270147 13.723675716905387 10.417991868728707
Pt 10.448218584160644 13.784558531604326 7.93849351013697
Pt 10.408432329818282 7.093491636421886 8.985431482425989
Pt 10.348570384587891 6.993962717517687 11.508526890589362
Pt 10.277344044622744 6.954330280802572 14.006220637503576
