16
Energy = -71.1744262 eV
Pt 13.389428729698466 11.361798280838155 8.833562467120075
Pt 11.796402758123417 7.135288992142924 10.351194104638783
Pt 10.774344495582884 8.092634371224664 12.473168943782099
Pt 11.772819843710257 12.4725800656451 10.402024842274985
Pt 11.793062003318386 9.28952558413907 9.04004596579475
Pt 11.34400437196754 11.30942334393167 7.346420780150821
Pt 11.049829117101027 10.294771992585387 11.321773988565978
Pt 8.502759739712422 8.039127464389505 11.411963013708197
Pt 9.828346908489035 12.816916096183478 8.832725361337276
Pt 9.278666994218515 10.391391386927046 8.55573494734385
Pt 9.656983954958717 7.801323316134839 9.111184100686746
Pt 9.978040926153795 12.492908375096299 12.2538271163397
Pt 8.37768585560873 10.559742131818485 11.047135195707863
Pt 7.489573696872554 6.407383363030077 9.66765037917287
Pt 7.258293563386222 8.923920894867573 9.241649551487976
Pt 8.100365431191868 13.04467814962444 10.634808410486944
