15
Energy = -66.181674 eV
Pt 12.590894820134302 8.397009730665673 9.809030852240195
Pt 10.745737864957395 6.466505101618452 9.905517430784748
Pt 10.535003930090632 8.482247817556095 8.222664410793726
Pt 10.314446849237754 8.8290608563571 11.041575023821553
Pt 11.315381416729876 10.688012181665659 9.504907776798305
Pt 8.442889288676007 6.841980221444771 8.592550347311047
Pt 10.423351802904126 10.731733361831756 6.988643570910118
Pt 8.587265792400654 6.794135705727056 11.323038229552902
Pt 7.633552080874001 8.877402385970207 10.044089013190536
Pt 8.065275056433691 11.691155622920125 6.535527831871896
Pt 8.152426761531332 9.159867505977102 7.421139569572919
Pt 8.200654422149501 9.093648547397013 12.577545091931217
Pt 9.480975646796336 12.393116168848834 8.808916955677748
Pt 8.92217439814816 11.034566011405616 10.951046095862276
Pt 7.170558755304048 11.118727250498551 8.899170022480387
