10
Energy = -41.18476765 eV
Pt 10.405375383709723 9.196983458053044 7.025190747812064
Pt 8.18101393035446 8.199114393772934 7.906523156564233
Pt 10.34609951108775 7.934332681829218 9.397098576665666
Pt 8.691958868029284 10.9303125689919 7.881385231320583
Pt 6.521748210695481 9.955478232920772 8.977448703085404
Pt 10.80790340654925 10.454548800030208 9.366441131794213
Pt 8.462007821144448 10.866482056416805 10.5498977666818
Pt 7.992372037038402 8.37637523685891 10.555121902384178
Pt 12.44649466583705 8.8838367051444 10.613813222255956
Pt 10.198153334465093 9.255663034893448 11.780206730347132
