14
Energy = -61.7150362 eV
Pt 12.586011999709854 11.709250108801735 11.1968871183867
Pt 8.156145597636721 10.381356349217015 12.867618036807542
Pt 10.269927153004447 11.624339215908009 12.284410304672669
Pt 10.918697254433127 9.782335418612751 10.658576178245635
Pt 11.463253391743727 11.470410715868814 8.914705567799727
Pt 8.31952717876022 11.539710551895551 10.601818828671421
Pt 9.075780395708286 8.270731096609012 11.79868502942999
Pt 7.970900130584958 12.274211009223613 8.29616018768218
Pt 11.461282779501644 8.904571528557515 8.283891198473649
Pt 8.693605807333611 9.278607229043338 9.51695006844513
Pt 9.513479413635247 10.527024498794368 7.468794604357274
Pt 9.463790938483823 6.0905764303077765 10.707589001649845
Pt 9.617132581120389 7.163559234010951 8.502721344599758
Pt 9.836601664238998 8.329452899044734 6.2473288166739565
