10
Energy = -41.44667276 eV
Pt 11.619187598767327 8.610528085391035 9.762884560054898
Pt 10.975488639646274 10.828865543643614 8.520119464842166
Pt 10.548901919358688 8.330161454369634 7.426887274785877
Pt 9.614797268352774 10.280752700104939 10.647769038834436
Pt 9.193288375272147 7.867011207014475 10.017010165050209
Pt 7.158825116066174 10.12585046126922 9.86166195463963
Pt 8.674159752136905 9.981599037344228 7.835697394757453
Pt 8.374370994984817 6.975193120682707 7.786877697165769
Pt 6.489129266455087 8.718159613048948 7.549663592285942
Pt 6.6699560689599275 7.599983777131061 9.909533857583495
