17
Energy = -76.04223858 eV
Pt 8.599338316665822 10.900049416388253 11.275857312792269
Pt 10.313478421982243 9.629361245654982 9.624464803899636
Pt 12.309488338207359 8.592538936583507 8.273640197581175
Pt 9.704490886236897 8.08870157949587 7.58585170647528
Pt 10.987644642180465 10.650508505392294 7.157670190871596
Pt 10.965279263028064 6.959281341359927 9.913180419346288
Pt 12.460853578528667 11.106995817175314 9.341435578809898
Pt 8.428463760379 10.466573859247418 7.884719807986504
Pt 9.952768464833268 12.21189378435077 9.336659471773684
Pt 7.3250445739899535 12.28867761103257 9.428640455212616
Pt 7.30584985286083 8.757026957685193 12.112177715843957
Pt 9.930169393166661 8.629642171997183 12.010574409019204
Pt 8.411283886757209 7.737987097768046 9.948408122853895
Pt 12.445749184692891 8.920599310254246 10.983464384044343
Pt 7.0775928721587045 8.214531488491124 7.731658521412731
Pt 11.215788922938625 11.191753802647293 11.71962953036484
Pt 6.687172141393327 9.774333574475861 9.792424000595474
