19
Energy = -87.09281868 eV
Pt 7.871179481007634 11.311107807661932 6.774668487389078
Pt 7.655273722952083 6.7259518547603205 8.232719528026482
Pt 10.143276784181309 12.20574010375094 7.4528834387913125
Pt 8.055936269610804 8.357511979793061 10.1537557893287
Pt 12.300610524076184 8.374341205041478 9.867893590756458
Pt 10.154711975137149 7.341961385388905 8.707082111897687
Pt 10.24414975296264 10.2790565944517 10.706791890207136
Pt 10.884860315789089 9.875013303275134 8.132226496228327
Pt 11.782899071592272 13.211512269654753 9.078905641335153
Pt 8.510849188705492 11.691664931088166 9.282320210763059
Pt 11.009761855316126 11.035495117607944 12.963093476542356
Pt 10.180151476883376 12.85538984527253 11.019249089103056
Pt 8.49540108206186 9.065005728881074 7.6386930715802155
Pt 7.813630192846666 10.49565524979267 11.459242004492811
Pt 12.573209602740935 10.967538129068393 9.843363085984215
Pt 11.505252889451784 8.541336343348764 13.491930428507278
Pt 8.773685795341489 12.264152058421967 13.047252481188359
Pt 13.16274713815556 9.832527450291249 12.05300821822754
Pt 10.311869134122164 7.7808646351021915 11.38579600148874
