10
Energy = -41.64265756 eV
Pt 10.318806401820515 10.093908229641233 8.868434881711575
Pt 11.130369532319403 11.300774608764028 10.898526611345481
Pt 9.182975228100082 12.762048110103693 10.950416917556248
Pt 8.091958994080112 11.033128673458869 9.576497178606655
Pt 9.152554669556826 8.663256573015726 7.139493173046953
Pt 12.255434513340159 9.324407500717463 11.763840281120016
Pt 6.908219244602498 9.531961445982386 7.955562106678475
Pt 8.273911480992714 8.41496979297958 9.834872698089942
Pt 10.839450815999953 8.031007675234733 10.221071333132302
Pt 9.6111636477828 6.609381918697213 8.556129347307003
