26
Energy = -124.0005321 eV
Pt 9.571872767836537 13.857101023784368 10.104603726814625
Pt 11.070654188533611 14.747110864767434 12.188106625400758
Pt 12.03144801634307 13.063435226613786 10.383803510499027
Pt 14.35409216475613 11.903554814687832 10.904369500039529
Pt 10.895088403862646 12.226251927043855 12.61454209129686
Pt 8.763989189925997 11.826001944553353 11.300039260868571
Pt 10.631520967766255 12.25480841412928 8.325991520745989
Pt 8.045383345088867 12.220759442481882 8.781442302647754
Pt 13.333521361638136 13.570009933733694 12.689275978895322
Pt 15.251786362979187 11.988704427692257 13.347159688877344
Pt 12.752418085889914 10.995954291757833 9.060714956919533
Pt 10.39608189796053 11.092197730702116 14.823049210249742
Pt 12.84674200044403 11.603017188058084 14.424636824253845
Pt 8.155206328483137 10.096206839162372 15.217743195072558
Pt 6.36491925016228 10.425854251678958 8.059550377552728
Pt 14.661336595828383 9.425598485941327 10.144459519959199
Pt 13.5425046258073 10.067865940006888 12.506662739008375
Pt 11.110462002379869 9.97442172454917 7.261053335430427
Pt 8.324957208494718 9.790180941508018 12.774688030911925
Pt 10.94016871086918 9.629854234620115 12.774237785168767
Pt 8.81022809051274 9.725364614994866 8.256833401248354
Pt 13.145813839233849 8.536089444444402 8.19559487572951
Pt 12.15348363319287 8.834582901780786 10.637505031857467
Pt 7.170113186060666 9.917665376973165 10.449979269409786
Pt 10.586430865920125 7.8101645337914505 8.59006709168938
Pt 9.595473797858872 8.922940368371298 10.689587037281994
