29
Energy = -136.39627588 eV
Pt 12.703483644798743 10.13538323007131 12.448530667841402
Pt 10.983442668813089 13.10363563778022 15.2130301776617
Pt 9.458068220840245 9.55374894755961 10.310216958425066
Pt 14.961492354750764 11.298812842176874 12.422818091300828
Pt 7.471103658009756 11.97797322093323 11.812960902998352
Pt 12.01470675841597 12.625845898614353 11.470168189112778
Pt 15.849135451634597 9.698051933844656 10.629034092124087
Pt 9.61784744549649 14.52115749651263 11.383140447131447
Pt 13.607800604110956 8.60682555154476 10.666361021231697
Pt 13.518212259596 14.041511284879151 9.276461816984147
Pt 7.137695361438653 14.379419731583303 11.395067108542372
Pt 14.135770448250259 10.668629646900419 17.784662593154238
Pt 9.754049202840363 12.582859014556803 12.9990560755751
Pt 8.557934240292806 10.198372564995804 13.374534632667382
Pt 12.63854018273051 11.396448150496731 16.167821696777725
Pt 7.141736703452875 9.529574696811167 11.313154674837186
Pt 9.770879568689146 10.7666852208773 8.048543251749898
Pt 11.327395499267555 7.505205353442532 10.498052288773767
Pt 11.94552850415835 15.220388897267672 10.938842531409922
Pt 14.028909218173476 12.28740796377681 7.507493822513215
Pt 14.40346482523679 15.952923315249226 10.768358537112771
Pt 9.62446657541948 12.163947080517165 10.299137445644673
Pt 14.400693967761445 11.682414805672362 9.945532978044675
Pt 11.749545909140819 12.271044484742493 8.739522600208078
Pt 10.909600528015204 10.62773410888111 14.395993469395219
Pt 13.09282054044412 12.413450732327805 13.8649728010265
Pt 11.814055356364364 9.74421967606504 9.286793987429787
Pt 14.388037602812197 13.766269546686113 12.039346083467011
Pt 10.526972552373984 8.8134488185623 12.533780910187943
