27
Energy = -129.74889384 eV
Pt 7.968612118368732 6.84593657419429 11.034247110679129
Pt 6.429305069366613 8.032943612817482 9.182994081429216
Pt 6.4612270231512845 8.961753168173294 11.673677173458612
Pt 9.07786647321217 8.88892077475412 12.255204050125712
Pt 7.539974958539767 11.196834635559743 12.211170408907373
Pt 7.635166270172591 9.334178900303211 7.2745755300590424
Pt 10.535844852158633 7.092219583390951 10.989767428015197
Pt 9.073038680285826 7.931753429442131 8.964570795231708
Pt 9.012061387485938 13.304085769022647 12.772818283491215
Pt 7.501317996743734 10.405441017520612 9.722290344010972
Pt 9.663992345408799 10.9258883589992 13.74715967442026
Pt 11.607444581695097 9.565273467057272 12.646828123844184
Pt 10.532484297905206 10.280418091641977 10.35117720277608
Pt 12.979621463847055 7.8937500919437085 11.16390679649193
Pt 11.687377001592205 8.239397790522824 8.882610274550775
Pt 10.219947646372768 8.982409562256478 6.8435736993686955
Pt 9.44086794642975 11.136672738174703 8.116408042409075
Pt 8.96924262235729 12.503436292479632 10.281653089874759
Pt 10.76002744955412 14.35379761354983 11.089987879530742
Pt 14.184182364942378 9.951155586137407 12.338236468359275
Pt 11.386246893910213 12.183275765186659 12.264164320650742
Pt 13.367221410452512 10.08804409287326 9.850387544387253
Pt 12.135985053405937 10.589887406633038 7.589374583073403
Pt 11.321804594878515 12.655729295532533 9.087294096386392
Pt 13.117481335687541 14.34469881115446 10.05061475168555
Pt 13.869788076487863 12.275875142208735 8.504273725350854
Pt 13.712337536197783 12.226689879080133 11.301501972042324
