22
Energy = -103.2960354 eV
Pt 13.528148338568968 9.057955261079684 10.6171692869186
Pt 14.073375521174594 11.305850563228356 9.461476738643452
Pt 12.472676137890783 7.6892377796643645 12.512846251931656
Pt 12.476061227767156 11.142791690447218 11.528102295731516
Pt 11.170355782648668 14.590423401976112 11.71725985252939
Pt 12.113307237008126 13.065000477376236 9.913230397158598
Pt 10.800744989938446 12.448071343707358 12.988273741234837
Pt 11.358528792093498 7.799781066017163 10.150993466726216
Pt 11.594885652341155 10.428888928948082 9.042673449091557
Pt 11.229050732067595 9.82345938191278 13.352363348633872
Pt 8.98855621306099 6.664692636860449 10.163161256583118
Pt 10.71274925242845 12.531172025001428 7.609364414901941
Pt 8.905409539400491 11.51440508922055 11.498776836652517
Pt 9.551094734048338 13.47762084252372 10.037103344105333
Pt 11.027405072982665 14.883400765513402 8.425069940802071
Pt 9.508435566737095 8.507703508225712 8.503521241255697
Pt 9.825095035078448 8.108768575104069 12.156895129344777
Pt 8.980875339484191 11.087811474681533 8.997141035556027
Pt 8.915335976355346 10.742076160075735 13.874202109740306
Pt 10.201685645440786 10.201082883366169 6.7498271810632655
Pt 8.064999949209856 9.224986110187247 10.639913503305154
Pt 7.534869757818701 8.738466528426697 13.094281671634155
