29
Energy = -140.56378523 eV
Pt 16.12516522182817 11.598730845257192 14.18711929758707
Pt 14.303917327053782 9.84557734719477 13.828581065707915
Pt 15.14919626991881 12.136239133273573 11.883829597805164
Pt 14.969814238112905 9.519206782644938 11.37464473073683
Pt 13.676135783944614 12.390443451634146 14.29052588632021
Pt 12.545381421890632 8.458184103676526 12.432207809101714
Pt 12.728445921434457 13.374555913253335 12.003495589011509
Pt 13.946192130934149 12.840679193493274 9.714777231365579
Pt 13.153739921066517 8.551031191502874 9.7683220793028
Pt 11.747627892532135 10.553347595942396 13.76859208164011
Pt 12.74508894944114 10.848827713136957 11.19304592555491
Pt 10.930712146256312 7.397811163356796 10.609976278177983
Pt 12.81854077365352 10.733300779483551 8.476166652120256
Pt 11.257310319243853 13.135015713518134 14.217284100825005
Pt 12.645748762295101 13.07305329760599 7.417143076775044
Pt 9.977846669410013 9.200773025511957 12.363805731262556
Pt 8.712538797989206 13.908924366228081 14.164845770925373
Pt 10.11471907518661 13.847916467194683 11.924376160671393
Pt 11.396100651800975 13.553277431072848 9.72454930684158
Pt 9.305131233040616 11.439741814707913 13.510126613757379
Pt 10.278577422487773 11.293059436225734 10.80740238161523
Pt 10.38888623780888 11.835202838891636 7.92087289593744
Pt 10.60534739195561 9.393592276983057 8.951583224700054
Pt 8.549851241673371 8.349548886590973 10.205716869319707
Pt 7.560598663798887 13.03778506679069 12.060995022512182
Pt 8.801904106599707 13.20295485684067 9.610835372828058
Pt 7.783207791161873 10.458044663924555 11.532405594904779
Pt 8.238158282685749 10.652201502017066 8.842279726630599
Pt 6.401107649102836 12.15423552928399 9.981328943329098
