29
Energy = -137.1044744 eV
Pt 13.525392399329812 11.321302324619593 8.714668461094247
Pt 10.19657176705162 14.018732509036182 14.97896292726081
Pt 13.996319136705571 8.552276323142863 12.275994335700169
Pt 12.304943726484924 13.836839418100801 11.023572683576342
Pt 12.75629386127932 10.148861834374255 13.767158142658321
Pt 8.664358631725612 8.265197548494694 11.259623446418619
Pt 8.509040756942984 12.095962527192837 12.524872867839727
Pt 15.748425248276979 10.140141389304448 8.562498757113076
Pt 8.38220510137434 12.071012950972998 9.968939190403923
Pt 10.955495715146903 8.620189707335278 10.228697600864304
Pt 10.626792880303048 10.964006078682258 14.955286379852453
Pt 16.84251249617879 11.99401648720369 9.933019829666476
Pt 9.883806749328198 14.18900840136711 9.923946261989782
Pt 7.311171039995897 9.72383460265895 9.725452716273864
Pt 8.39679816094075 12.261513376046052 15.08069787879657
Pt 14.59071326664968 13.196643796916378 10.000500855279618
Pt 13.72510663838557 9.152356827424999 7.332180570894
Pt 13.431391980089874 8.913879292433826 9.835874709253902
Pt 11.81487836683752 12.628350541342375 13.414487446925188
Pt 7.5942915397792365 14.200398585831204 11.21913067201258
Pt 8.337443886608296 9.748310916401763 15.432452778929934
Pt 9.982774519515095 14.220674297756766 12.47208099941147
Pt 9.380256937330389 9.800273159568675 13.075183141603553
Pt 7.578515320285282 11.207175860863245 7.643930752221194
Pt 11.392209477398689 10.697952997100021 11.605366260192845
Pt 9.652446213288702 10.199323662721644 8.726356190351781
Pt 15.581594242725664 10.18549596299902 11.204775980864417
Pt 13.789236423813657 11.79310620582994 11.957994942837963
Pt 11.257736836537685 12.061885734588056 9.36501654002265
