27
Energy = -128.98421398 eV
Pt 12.99234491093854 15.7084417592157 10.807417489763399
Pt 14.502274255895903 13.714037808550087 9.761008246359024
Pt 14.657001490862648 14.306626733564608 12.30382773338027
Pt 11.77363285236097 13.832659415760487 9.45171129893766
Pt 12.573232970993738 15.482203838848774 13.385199078326593
Pt 15.773887173696195 12.056049646342856 11.488172378247468
Pt 10.71935956548372 14.53539902661391 11.740848093620201
Pt 14.730837366328933 14.624979399059237 14.931868273977123
Pt 13.362145302805951 12.530818756620858 7.700549158380895
Pt 12.823357994441771 12.241043766779097 11.277085369964304
Pt 14.859341283496162 12.133486034566733 13.961834603672639
Pt 14.436255639907621 10.897835617424432 9.641298970131434
Pt 12.362081352874927 12.923130209361009 13.71495401931524
Pt 12.976438358127636 9.92151670039321 7.748277918161528
Pt 11.001833271833043 11.593378650886043 8.325657530928257
Pt 13.919563381988931 10.202545154723229 12.311365071876008
Pt 10.028059981171129 15.074586566471206 14.275111649049334
Pt 10.16366539545339 12.047003382886988 10.75518615040417
Pt 11.97689684443169 9.885055218483553 10.176250328583448
Pt 9.848349499231295 12.571635468981308 13.290200648599818
Pt 12.740412317217562 10.549729336285901 14.643049329749266
Pt 13.776167211297032 12.553217773595547 16.30622256134281
Pt 12.190725407185443 14.52171161374285 15.792762597605757
Pt 11.12217174945837 10.285916810365038 12.544536609974047
Pt 10.178255642273939 12.96236130659007 15.888662416398416
Pt 10.085220153087773 10.475886737564267 14.950762181197044
Pt 11.684317943834392 11.163589175685571 16.980545958325127
