29
Energy = -140.59210422 eV
Pt 10.634216348506735 13.305193951907084 13.18509355962791
Pt 9.260275477310055 11.068143597799253 13.313013228884566
Pt 13.267154374757022 13.277238477099305 13.412996894728652
Pt 10.52662656217486 8.725677070238413 13.454818627327878
Pt 14.521243578056454 10.936523643989872 13.051772586340508
Pt 13.16324842335872 8.669278700588256 13.587377849181266
Pt 12.273424798678743 14.465169300433555 11.271134143889034
Pt 10.712005758791555 12.396591508045045 10.6694022634895
Pt 14.301770794469634 12.767598686114528 11.043976009725835
Pt 10.091089454328216 9.905138812286438 11.095460513414729
Pt 14.418685898545844 8.974356489184192 11.20370180262475
Pt 12.020344369902839 7.929772103474022 11.316136610320779
Pt 10.802809641730391 14.926508808981364 9.11107560747696
Pt 12.686960327950754 13.058212346891189 8.877903371139
Pt 8.94988167431555 10.735318618631545 8.731086261877463
Pt 14.121692713018074 10.841844094349812 9.256120310786862
Pt 10.388594761924535 8.324623509190925 9.081121680999876
Pt 13.013527649034634 8.467039708462602 8.935895328474833
Pt 11.871019411236695 11.017032297085807 13.81700085066836
Pt 12.574799906426538 10.836156408764891 11.325907040493213
Pt 11.623369673208934 10.611023711535818 8.403355671546413
Pt 10.263707994944534 12.756346434171945 7.77151086778654
Pt 9.68271403044657 15.10528078792642 11.421631906667422
Pt 8.484997858807368 13.263176499519938 9.741709063380853
Pt 8.118179026986567 13.2576312351567 12.364416879615673
Pt 7.608053644363009 11.067179708659895 11.060825399843687
Pt 7.943643093879816 8.888132208691808 12.638086230012926
Pt 7.883774084062256 8.654418140544756 9.974780482307201
Pt 9.536294045655646 7.134909006179496 11.420955376997572
