26
Energy = -123.72418621 eV
Pt 11.355289984557377 12.59492426851232 7.85576017999758
Pt 10.541892003358091 8.370875508918866 6.989023827646031
Pt 12.211427494619022 10.107136915669736 7.780745072022925
Pt 14.03023317297118 11.535796484669426 8.857491091211445
Pt 12.277366475446541 12.625015487430964 10.264556666662424
Pt 10.327512349985364 10.862683655190251 9.432810529210052
Pt 12.866042896681275 7.581802799822543 8.00664400548638
Pt 9.621267331380023 13.288687894355814 9.81899133380178
Pt 8.59398891859276 9.17834745070133 8.477056135873992
Pt 9.070469422260384 15.393619704389941 11.203324988756567
Pt 11.167590415288839 14.261384482440569 11.992599554560902
Pt 13.886573230909613 9.225333824746937 9.805917967725675
Pt 7.760091886014799 11.232414378384814 9.86398222481074
Pt 13.28147090312274 13.05254757309602 12.560188670751952
Pt 7.779634319054213 13.306324301045152 11.738638454512063
Pt 10.662578297472542 7.986612411659022 9.58172976166879
Pt 12.84533079751708 6.9871721507457 10.608361074998076
Pt 5.700636025956603 11.89561354122789 11.227792204153753
Pt 13.092313379240396 9.151667129879563 12.126095608601592
Pt 8.989928924018121 9.272668116903134 11.123634688262435
Pt 9.931228795720212 12.15354007414041 12.606466831206589
Pt 12.081692043195117 11.076891722691606 13.454847137137339
Pt 7.60050024938164 10.87194107190012 12.685460762203874
Pt 10.908967268779923 7.8486501804946895 12.168507703858294
Pt 9.71475293797991 9.719863023720029 13.596983059193866
Pt 11.988649076536754 8.705914447303535 14.459819065724794
