24
Energy = -113.64047785 eV
Pt 11.21695884563898 12.207749010277485 6.13798619221016
Pt 9.949630005508475 10.600027528271543 7.682479399910095
Pt 12.140256553953616 12.783347468541693 8.423551930877363
Pt 13.373037361039493 10.98328325005595 9.834964794667398
Pt 9.628233329491017 8.08302529947523 8.245145825387764
Pt 9.463541327702151 13.076041319424093 7.853032147491933
Pt 11.687608641818398 8.01596529584736 9.752707481928477
Pt 14.150636930412023 8.54771281447161 9.797152925372105
Pt 10.863128210100752 10.420546241553893 10.068613117284581
Pt 7.815511708960511 12.463077594570326 9.709618636383155
Pt 10.291044180734074 12.966676666268961 10.38037025572702
Pt 8.182019484146638 9.921739570043975 9.429559602047265
Pt 13.836637340036416 9.706875624101443 12.021169729774394
Pt 12.846491038991676 13.180344966688226 10.913427406667854
Pt 6.364409866994223 10.775870175483355 11.06923752919393
Pt 9.361149018944621 8.01379485639707 10.976650749224634
Pt 11.321461649156184 11.86145002822586 12.541888438673432
Pt 8.773120261992878 11.512477180909842 11.968139971004716
Pt 6.77490450545097 8.072363004941193 10.598280011102235
Pt 11.433317929435276 8.842977062228597 12.294835095305709
Pt 13.952963920885585 12.071667599579625 13.022108728904024
Pt 7.832236780105075 9.186954692981116 12.705965662023788
Pt 9.86300116210749 10.114592113412243 13.891261794828873
Pt 12.465727874161312 10.178468564017143 14.268880501776934
