25
Energy = -117.49537874 eV
Pt 10.900744718257195 9.090551928879368 6.967647471083772
Pt 9.70259441203411 11.252516680799653 7.660416374679528
Pt 13.055140119502164 10.187275239452571 7.502513028116747
Pt 11.902443591154471 12.392890571443075 8.210815231319536
Pt 7.143000684292136 11.338704531437466 7.829598690489543
Pt 10.730721470282102 14.591141455976956 8.900106644857747
Pt 8.558447773545977 13.383900326337656 8.409576487313627
Pt 11.420853383487428 7.237500907359168 8.832378801247042
Pt 13.614639603671561 8.300101279715964 9.350521418823643
Pt 9.965884841280042 9.293406419058442 9.443396439165099
Pt 12.310077913419963 10.466778067572816 10.00879274139079
Pt 8.293294555740408 11.238605454180806 10.110741407028033
Pt 10.695524819694231 7.485233659486426 11.30677312696766
Pt 13.88055377822621 11.886490612548979 11.434192867833918
Pt 11.578591952683968 12.91917308367161 10.828678189268958
Pt 9.267717552609366 9.613557812914024 11.894580894559828
Pt 12.91763701601749 8.60819338592179 11.832852897347484
Pt 9.182206532406626 13.75027086129617 10.941847393476644
Pt 11.702544585372458 10.879160117536488 12.50200638260011
Pt 9.96692084419737 7.886678357208275 13.744465573233894
Pt 8.287542523218933 11.93253848847178 12.572384043121486
Pt 12.146863233605677 8.97048710255862 14.269727998990932
Pt 10.440253878287177 13.109885114964877 13.211953166156201
Pt 8.634427249535264 10.108873453360872 14.399163975417958
Pt 10.8073559791192 11.182068099488287 14.940851767151527
