25
Energy = -116.06408286 eV
Pt 9.67255037360717 11.098044922464375 6.88056283771151
Pt 12.049777072292379 10.387735894470124 6.639882442404081
Pt 9.080677447969125 8.639121064003719 7.972016426386016
Pt 11.458470968212701 7.929439430093887 7.791678691818014
Pt 10.22252418265056 13.189839476830317 8.418160320415682
Pt 12.636098425707184 12.478761877580386 8.185752237009785
Pt 9.255513416916113 10.818189915261982 9.337778038389692
Pt 12.111415111209714 10.026741683740024 9.17169677792621
Pt 9.270349679284605 8.574077928133265 10.634911263976116
Pt 11.698767958205703 7.89795430873324 10.422462525724086
Pt 10.864031591423105 14.92172527402001 10.344982645322931
Pt 13.268776127028284 14.249082667970233 10.101208682513976
Pt 10.969563008496598 12.912901199033087 15.253410046675219
Pt 13.355518231912937 12.220946164383792 15.019739999737524
Pt 10.31091939985391 10.230015034933968 15.446876623158
Pt 12.68571964880001 9.523532366926105 15.18644879254954
Pt 10.89810574826726 14.163246072110537 12.917269970561657
Pt 13.3123299670544 13.47219302823096 12.669262254283417
Pt 9.923945186466847 11.665395645912056 13.34606436650139
Pt 12.711443409615256 10.850956151082757 12.967378580218954
Pt 9.690807737001167 9.094629318411824 13.112315647815121
Pt 12.114944365720461 8.421968149775504 12.842332518770078
Pt 9.835600586537923 12.698085703039657 10.992156589482375
Pt 12.490347094833666 11.86729079324245 10.747531365891218
Pt 8.19375795486146 10.75008062354376 11.680075048685639
