28
Energy = -135.25716313 eV
Pt 15.737903385768563 12.25770974942167 11.377930782601002
Pt 12.341352393957044 10.521958320410434 7.986437564321274
Pt 7.742336294994354 11.492039937889505 10.877957036055804
Pt 10.081159836375894 11.159671772719854 14.787188677639046
Pt 14.512237300850837 10.257355048808053 12.45116357373243
Pt 9.804649560366878 10.277868092501082 9.90728100471796
Pt 10.01048812065407 11.841734728199139 7.754722112310598
Pt 7.583018687400615 9.67211133030901 8.577302304103661
Pt 12.525343376271175 10.434816001055166 14.160717805696654
Pt 12.38161473746264 8.536691199738558 12.078026529982004
Pt 11.72260414410444 13.037456835482999 13.858993675291252
Pt 10.529111414483054 8.603925661506983 14.062354621272998
Pt 8.941972688432035 7.482897117507872 9.196768019811964
Pt 11.099128758681951 10.760426002982486 12.024455686387467
Pt 9.432838141147576 12.642958892965265 12.578715794730151
Pt 9.833116417132507 8.06959979867032 11.585422758044556
Pt 13.578599312824087 9.66650559682145 10.12189250456202
Pt 13.158543393428205 12.366152547343145 11.810513440083213
Pt 11.763928455744031 12.658427543034277 9.403470764014626
Pt 9.329017880597926 13.397391566054976 10.002448799412802
Pt 7.5325165998795836 12.326214047368579 8.36886087077832
Pt 11.326771603132045 14.1952727290121 11.47290306801181
Pt 11.478294877800982 8.367048149576119 9.42807067423066
Pt 7.355904565789862 8.836121248882947 11.006320942701496
Pt 8.585856952864933 10.095896762953842 12.936169458636877
Pt 14.21712435443165 11.975102282453292 9.34909156054564
Pt 8.158345067112574 10.71740257146567 6.299129750660465
Pt 10.051013337306083 9.164036123860663 7.3504818786584005
