20
Energy = -92.22654998 eV
Pt 8.287545477052193 12.93474091987785 9.306702141062482
Pt 12.566949959855418 9.134383475553964 13.950170894522467
Pt 8.105096269688183 9.386826213323566 10.40627794137972
Pt 10.471786984205679 10.123385277754288 12.886236541260201
Pt 10.016358732244734 8.001519563354107 11.511294982545072
Pt 10.060330488915932 8.533614455415478 8.942456970201286
Pt 9.773959750374898 11.38324759221714 10.800178450090684
Pt 7.346996760473421 11.734213797212993 11.601689017273042
Pt 12.461986715108047 8.345561568761907 10.523793039359868
Pt 12.127467911473055 7.018301426199342 12.640657848410244
Pt 6.435030597916921 11.09343387991272 9.213393646222912
Pt 12.81169634866621 10.670981000947746 11.925288078277097
Pt 10.586491583228831 13.90953360907658 8.845246731446435
Pt 10.937661531834616 11.823262345830667 7.463929316122981
Pt 11.891279025555937 12.816121365531005 10.781401999626496
Pt 8.001211368379597 9.621778239787382 12.985407202114992
Pt 8.724408478836816 10.706953868687028 8.103801194279615
Pt 10.515922291206296 9.494238424337947 6.53540879827495
Pt 12.031108513379607 10.68283941870356 9.408954750132864
Pt 12.467253381479285 8.550517651664462 7.981840781331884
