29
Energy = -137.2907803 eV
Pt 14.52411850027925 9.229054474293116 7.660861884298859
Pt 14.1712279428529 8.895965831483922 10.131049665560841
Pt 13.670219937572977 11.041224346417787 11.580236898735158
Pt 12.63065741360692 7.352568822910572 11.249873746404678
Pt 12.759134470930293 13.42211533830009 11.559196197037636
Pt 13.207692677993387 11.054536522459324 9.028810440760198
Pt 12.060723511754594 9.467617486315048 7.16512346151391
Pt 11.926199786672276 12.067728781844336 6.894428439897226
Pt 12.345708054668052 13.497311309314178 9.083565978925815
Pt 11.460853740753167 7.1443280460817595 13.446155058515366
Pt 11.62131259454379 9.543092902539978 12.377666797864002
Pt 11.560764784947878 15.087633040854035 12.907619394380633
Pt 11.128841590694169 11.555260954482943 10.744377911787439
Pt 11.04455483292852 14.471639133418925 7.09843714796593
Pt 9.640416472790427 13.57169872038115 12.80635688901424
Pt 9.67470369182988 11.03608924053055 13.044914287349886
Pt 11.169407045396369 8.920363454918471 9.799193393677312
Pt 9.74353432882818 8.193955128718967 7.785580173581669
Pt 9.329651820472717 8.365660599579888 12.951021355536128
Pt 9.811223101624641 10.5478236479504 6.688304591131771
Pt 9.851261330111145 12.678030385346055 8.496855798844162
Pt 7.389938193362073 12.290252192230225 12.96966691391041
Pt 8.594218898751485 12.450743249284857 10.679342997373501
Pt 8.863495290129393 7.998858857167322 10.328944465512901
Pt 7.3628614164212935 9.835845340386571 13.898191800519529
Pt 7.49722364449527 10.107995890685554 11.3291857681318
Pt 8.815244748527263 10.38744107509554 9.094380240034857
Pt 7.0356437072384885 7.348242713365992 13.461948142979677
Pt 6.447111136040649 7.774867179859164 11.076654824971458
