26
Energy = -124.08517137 eV
Pt 12.751440027925916 8.751691976531772 7.185083314928089
Pt 10.813787093591099 10.800378650793073 13.340562669559802
Pt 11.321650274871299 6.72794789169038 11.74843535973914
Pt 13.419997286712624 10.37012390136611 13.708886141877196
Pt 12.64255537748789 11.57615993749373 11.507944028698033
Pt 8.615357999937464 13.021347292851004 10.262998924161609
Pt 12.917529603969543 10.359602258878725 9.23060408813838
Pt 12.206882248949167 7.582804738007155 9.447825769201646
Pt 9.096787387501418 12.445099634151932 7.598654838730855
Pt 7.723127039558084 8.23543261856178 8.18949685900386
Pt 9.380020014082442 8.505939342499811 12.524554111567104
Pt 10.25824483578945 8.311224774276013 7.688125039524976
Pt 7.497536013563246 9.105014672862229 10.781308558149481
Pt 6.885896988417267 10.702990598083266 8.141248959457979
Pt 10.452509566339529 12.993705352426437 11.997671990544404
Pt 8.538114196706719 11.1046072461812 12.172434805072406
Pt 11.124508893095877 10.838052124516508 7.32998865536917
Pt 9.152196715024969 10.493306694092272 9.364839987254443
Pt 6.396459492298121 11.50207304874333 10.585764185560821
Pt 10.990921781913512 9.565999957127186 10.827242842733456
Pt 8.743264113547042 10.022941016212375 6.388650011931387
Pt 6.706288053747319 13.24627706513008 8.559991134051703
Pt 9.429395287931305 7.415159295330359 10.044977239662591
Pt 11.757742544119214 8.38845152513957 13.708016048945431
Pt 11.125597111245957 12.429540504012529 9.484917530123708
Pt 13.342037230558843 8.848731361852765 11.507821324917435
