21
Energy = -97.42728899 eV
Pt 12.288437139689881 9.883189696990055 6.687926828137691
Pt 10.155776548502773 11.293961889048061 6.6348980621691025
Pt 10.18064207618518 9.16803819956564 8.008282703119606
Pt 8.155784478773736 12.065010782037941 8.182984644927195
Pt 8.658722783649326 7.305066748929816 8.817420601907987
Pt 12.337904687503995 10.141773757711368 9.224580695697304
Pt 10.613495617009685 8.098568948971453 10.4479668136687
Pt 14.71944597352431 10.144782730663305 10.093639570542573
Pt 10.644211806135834 12.04893514110113 8.977870763022743
Pt 13.239793933696403 8.030392350897179 10.586395482467495
Pt 8.241888713725041 9.899648055137092 9.579347252774568
Pt 11.96162740886903 9.840087741170715 11.82804335650167
Pt 8.037719829373565 7.832932330686701 11.237240866740104
Pt 8.79583493379572 12.290280558433262 10.729255423161826
Pt 11.441783856256759 12.456620408983127 11.34836374805955
Pt 9.445123011784695 9.8237752729172 12.254860141682386
Pt 13.77886809834949 11.625012717108852 11.912813187324575
Pt 6.954178431218281 10.053230133394118 11.899228610910844
Pt 11.951934143418319 11.594974638424386 13.8085525799197
Pt 7.081600916152381 12.454463076090235 12.664036015936695
Pt 9.50966192784498 12.14369113719881 13.270728966787852
