22
Energy = -103.00913528 eV
Pt 13.697263508260702 9.510878797474602 9.450535116673514
Pt 13.282894091944502 12.435001663316937 12.637651954941896
Pt 11.678357542084942 10.736512494555964 13.93010594488938
Pt 12.03812358067899 7.908489778668863 10.594708443122673
Pt 11.744148676281245 12.063603841934512 10.47812736181348
Pt 12.76557696276017 10.067125787535522 11.750158440175985
Pt 11.510373312201247 9.056230231543212 8.17554606923443
Pt 12.61384261892855 11.446098455307284 8.127328909054144
Pt 9.08806294718108 9.017621106019213 7.348359326764489
Pt 10.657870828481437 12.665319537938439 12.667728858530964
Pt 12.091980709022693 13.795224706656056 7.614234012649381
Pt 10.065949561160439 11.120521886165582 8.701502904725734
Pt 10.201224021832017 13.712508502740462 9.222610336612025
Pt 10.527416757540898 6.0041215295580415 11.244182847777655
Pt 9.727324374448173 7.309804284686555 9.181372157836977
Pt 9.386527471463637 9.679188457543736 13.698440262426743
Pt 9.62802662821446 8.392792182555944 11.5622813556532
Pt 8.92380845174482 14.04480255924659 11.438390121350727
Pt 8.472169482048876 11.477593074677314 12.14155017064872
Pt 7.237468375870372 9.238402688999065 12.052405941662371
Pt 8.01635792405318 12.217508922125567 9.801430464395157
Pt 8.125893053248177 9.581310390200096 9.662009878510196
