26
Energy = -124.88284309 eV
Pt 13.455735242645614 13.187165808219632 11.879819121402452
Pt 11.394537390754598 9.051797426866981 8.52817543245353
Pt 8.372066557124437 6.998601220962245 8.463428894362005
Pt 10.984776271867993 9.704862487272969 13.525931977965907
Pt 9.174671568629968 9.1451534669704 7.32906394673506
Pt 9.741927498385174 12.440396273281905 12.178544145801668
Pt 11.400084658325708 12.70540522750084 8.91195684820966
Pt 7.806378323774657 9.209070939839888 9.56502144784294
Pt 8.931330454765842 13.649309238131423 9.94254619650361
Pt 12.969977830449372 6.764468220907676 9.702438607725348
Pt 9.76229199298845 11.590373423087183 14.979704704025064
Pt 10.433985108845107 7.12287814424434 9.899172996522596
Pt 11.260054786084265 14.112036397512142 11.00235490184052
Pt 13.438775474620622 14.392561617434135 9.5001908430207
Pt 6.633601471256654 9.292516753838807 11.807954487402178
Pt 10.58353365297952 10.718265913376207 10.376031693811328
Pt 8.32237416219038 10.493960751324265 13.242892926505352
Pt 13.573466679383209 9.270354076309282 9.761410606913575
Pt 11.05197181914112 11.047723445803399 6.973006609994559
Pt 13.764232012167161 11.79551803712243 9.647208273370813
Pt 11.937882309792373 8.09824841994622 11.771097866551013
Pt 11.866139808829375 12.195586435006785 13.611274950172534
Pt 7.5890915876411755 11.529236347161705 10.77368595149014
Pt 8.94709923641137 11.500447456052282 8.499585758702537
Pt 9.360169317982121 8.676147210732811 11.653583666297306
Pt 12.788516324017 10.594691882628693 11.81652792141118
