22
Energy = -103.10923525 eV
Pt 14.569793993097091 10.148720825565093 9.752040248541322
Pt 11.640155915070238 8.266036895305492 12.966568926194338
Pt 13.116707303912158 12.235573216303274 10.085593863563224
Pt 12.964795160395456 10.18186896562264 11.727431004189583
Pt 12.668396497770717 9.23648592737385 8.376022688706083
Pt 11.504459986273863 11.456950049545005 8.312975745612023
Pt 11.430805572194215 10.657922578652636 13.784692308397185
Pt 10.192983823549733 12.873274281715497 14.217492063049326
Pt 11.843067887157572 12.74086408584761 12.252386627843176
Pt 10.840970921864674 13.476743488962038 9.918495252904266
Pt 9.785848924902973 10.742919137019147 6.623135528870379
Pt 10.028957022054296 8.774844784568687 14.866353360862457
Pt 10.627516460677308 8.38937496908068 7.193292747081126
Pt 9.232501223155225 12.605213297444177 11.842965074133204
Pt 9.159097355904942 9.967571081975457 8.958220611061265
Pt 11.431773121948549 8.580201236901242 10.474160541300797
Pt 9.716080608567154 13.180426740982728 7.5108612850502405
Pt 8.90162098153334 10.492967026121367 13.296537345205024
Pt 8.361094487976988 12.25412681809735 9.4944790849214
Pt 8.982251178057513 9.011096397481023 11.279559480936152
Pt 9.475361714449239 7.385815405824919 9.311510355130686
Pt 7.174999041813664 10.990241971936534 11.404465038773195
