22
Energy = -103.14323879 eV
Pt 13.281651765845256 9.117857300692513 12.914866945823018
Pt 10.784303002669343 13.489574003953585 13.593766521857505
Pt 9.339999318105624 11.234337752332399 13.676962205146562
Pt 12.002398380275995 11.264401761097846 13.493094305863204
Pt 9.450283104639844 7.281543653584622 11.4905036149442
Pt 8.240173404880627 9.52216959107296 11.997041246626567
Pt 10.801825855015146 9.368184634840167 12.2210764198857
Pt 14.056860766835372 11.320880750499716 11.87332480437178
Pt 11.888728572766752 12.903302059897914 11.291120366170524
Pt 12.670470250454203 9.673041793402069 10.409680642468267
Pt 9.369605096418853 12.60643199805433 11.519257772498618
Pt 10.318937948315684 8.88925101844984 9.527218349416536
Pt 7.853569057367008 8.295719054761152 9.741973848582651
Pt 7.0451067530452605 11.753155894282166 12.218164314094624
Pt 14.404709710651735 10.401175276634401 8.601569414908553
Pt 15.383110247058443 12.33927038604459 10.029199150678469
Pt 8.01310315607618 11.273679564014733 9.808823705201824
Pt 11.872546409753088 10.440368088431866 8.080928039616017
Pt 13.022986760030848 12.605377585162989 9.086443314940592
Pt 10.429131749690267 12.429989206527702 9.156388586754334
Pt 9.332503329674672 10.478666655686583 7.740658400186196
Pt 6.893194513049292 9.766821123194903 7.983137182583463
