28
Energy = -135.12189498 eV
Pt 11.891695337336678 14.50475107718591 12.888927447841363
Pt 13.2194941238902 12.388482034206579 13.948396952687672
Pt 14.095657288551307 13.528877257969567 11.729848054644066
Pt 9.643864662396068 14.11248471347639 11.808411265822265
Pt 10.736443281239536 12.117923803719883 13.180864606835195
Pt 11.82431362759643 13.48873278207455 10.41880259297185
Pt 7.3006677726566425 13.732813184743593 10.725000458051165
Pt 12.281671735157673 10.021800239526309 13.792915571616112
Pt 8.395183319435109 11.71779964943391 12.003405514666165
Pt 13.398097116840653 11.000513426708077 11.610739631408793
Pt 13.954807278280581 12.280628378573153 9.422871483080685
Pt 9.442362339770357 12.916982355499373 9.42617032501869
Pt 9.74201226259756 9.706302617495211 12.88835846718825
Pt 10.724017672864138 10.63454145308134 10.628026568294914
Pt 7.194191846925399 11.448075705604426 9.525617525997207
Pt 11.271077496969093 7.619244026110434 13.699971762962432
Pt 9.260748480185228 10.654591206640495 8.023427948676943
Pt 12.316530394601415 8.605911570553054 11.506004952899534
Pt 10.942006373441439 8.211578189734908 9.314519640764587
Pt 13.146507273611073 9.729140053570953 9.266559984463305
Pt 11.553198533871363 11.824424874461325 8.424357809534156
Pt 8.203143767938377 9.344519369810408 10.781793530060675
Pt 7.078150621492861 9.19188561222053 8.374003243575006
Pt 9.810508155499694 7.363057601330306 11.558306630676451
Pt 11.49416215211855 9.530403746402431 7.134828285554883
Pt 9.234543463380376 8.127918897242354 7.220270666364963
Pt 8.384606349504216 7.05730687821663 9.450915352564271
Pt 10.332919202571334 5.981782933436999 8.12361305282001
