29
Energy = -136.32444228 eV
Pt 10.467366309626152 10.47117514 8.097331574871301
Pt 12.00965424785396 13.110704896914008 11.74593108599651
Pt 10.467366309626152 10.47117514 12.845018705128703
Pt 7.4138803086617955 10.47117514 11.748505869823513
Pt 7.444544344356595 12.854594429310069 10.47117514
Pt 9.92333322523518 14.263944091371233 10.47117514
Pt 9.120123725250092 12.773427346339242 12.775739197763587
Pt 11.566937982676585 8.606452051114307 6.821244516091308
Pt 13.155327040909178 10.47117514 8.1782534164931
Pt 12.00965424785396 7.831645383085997 9.196419194003484
Pt 9.120123725250092 8.168922933660903 8.166611082236415
Pt 8.291784733672218 10.47117514 6.808567949093552
Pt 11.566937982676585 12.33589822888569 6.821244516091308
Pt 12.00965424785396 13.110704896914008 9.196419194003484
Pt 11.912700176599088 10.47117514 10.47117514
Pt 9.735819788642031 9.208012608715155 10.47117514
Pt 7.4138803086617955 10.47117514 9.193844410176492
Pt 9.120123725250092 12.773427346339242 8.166611082236415
Pt 9.735819788642031 11.73433767128485 10.47117514
Pt 9.120123725250092 8.168922933660903 12.775739197763587
Pt 12.00965424785396 7.831645383085997 11.74593108599651
Pt 7.444544344356595 8.087755850689922 10.47117514
Pt 9.92333322523518 6.678406188628763 10.47117514
Pt 14.0502017789748 11.870178885404512 10.47117514
Pt 14.0502017789748 9.072171394595484 10.47117514
Pt 13.155327040909178 10.47117514 12.764096863506897
Pt 11.566937982676585 12.33589822888569 14.121105763908695
Pt 11.566937982676585 8.606452051114307 14.121105763908695
Pt 8.291784733672218 10.47117514 14.133782330906447
