25
Energy = -117.8230831 eV
Pt 14.090930155820013 9.759788393015599 8.421051957058081
Pt 9.668214767067804 10.081231080454641 9.414330154215481
Pt 14.249861874345026 12.326137009898964 8.271632477525952
Pt 11.731401212916055 8.730446697615468 8.736975139434492
Pt 9.958348841059188 13.043033827879592 9.466842914243186
Pt 11.848085642339132 11.364946958168916 8.789575629439266
Pt 13.552558294931885 8.62731145804528 10.722011847923403
Pt 12.386373227221274 13.840974084479928 9.405504559807705
Pt 7.752912604234084 11.674619822190436 10.060443599340559
Pt 7.757502591303167 14.232008064766237 10.133995664822404
Pt 14.38879962567372 11.103788353581884 10.617668842874584
Pt 14.912192205912774 13.690356175528215 10.479983422586702
Pt 10.270071464409797 12.763054515446639 11.949838717695902
Pt 10.968755538701506 8.769353240221754 11.211895746779014
Pt 8.897907805672086 10.202107922627395 11.861192443924747
Pt 14.95140621820555 12.263414604326874 12.907667037259184
Pt 6.678627908586854 11.371993851955281 12.590311134487369
Pt 12.788652423960217 12.971062136434698 11.753078002437737
Pt 7.981108379108007 13.521821834071737 12.568934671809362
Pt 8.376187909237347 10.406650875842058 14.374048924488386
Pt 12.530441238012733 7.809799676767601 13.041186488425925
Pt 10.436596884210022 9.068697923760105 13.760592466105935
Pt 9.648641175708345 12.573512368015333 14.420943534601582
Pt 13.864188496917842 9.97380416855326 12.994641152680632
Pt 11.744695215936483 11.264546657842732 13.480115171523812
