27
Energy = -129.66262905 eV
Pt 13.26515748947549 13.572712850110042 8.520633731960034
Pt 14.338142539548958 11.223323423691378 8.797870040490391
Pt 11.960062150106136 11.61723821454597 7.348517060720614
Pt 10.713307404987177 13.959037387846234 8.019935020137734
Pt 11.708141471677834 14.429627883227711 10.452961353666126
Pt 13.267552389315169 12.314820114679454 10.961229390089343
Pt 12.481887928307343 9.326292046772279 8.865162526384365
Pt 11.163852062477707 11.33731597312416 9.807750616539233
Pt 9.292660512654892 11.69010669106806 7.991608533680161
Pt 14.022767915531308 9.712073474573799 10.902764300011151
Pt 9.412709457397165 13.201413389251902 10.27642045490307
Pt 10.473861786693371 9.438961672347007 7.183306155414913
Pt 11.084180759758825 12.866903483880582 12.4290343049442
Pt 12.041646100456129 10.40627589482884 12.428626239920524
Pt 12.144555021423976 7.9858649143755285 11.380572725359412
Pt 10.415078598432896 7.774948041837321 9.244643106106947
Pt 7.313677843962268 11.650454258142492 9.80817105280375
Pt 8.271717410311279 9.406227899525739 8.728332910157862
Pt 10.151644860738527 11.085317589793835 14.07073481780639
Pt 9.641058551228804 9.576048300480547 10.96211964241623
Pt 8.523056474413698 11.59632535879437 12.131360191778052
Pt 10.024685593003774 6.493923756409232 11.489056114531243
Pt 10.267969300946293 8.514670805279387 13.231926120805985
Pt 7.892110341362395 7.090837050370476 10.011441025942379
Pt 7.055675433713324 9.421069422821976 11.196124704902129
Pt 7.968086720649782 9.665431002875492 13.861039116669401
Pt 7.83682756502093 7.374852782941197 12.63073242545412
