21
Energy = -97.31802861 eV
Pt 14.555957440276796 9.79782076039254 9.229665762577714
Pt 13.453203444480065 13.080523843647702 10.92718489631602
Pt 14.064034473060472 12.460199760883839 8.520410499156933
Pt 9.796619457489015 11.5855044499808 9.180784995641488
Pt 12.753458022150463 12.159124736888222 13.263187600881391
Pt 9.405275629546786 14.116283233268765 10.002023112558364
Pt 6.919851929040434 9.965461040887615 11.655908213692442
Pt 8.958934759941508 7.019207586160328 10.57949833638229
Pt 9.103077204637287 8.871580063424096 12.23160158726036
Pt 11.115383384239033 7.281609470175721 12.008217311347227
Pt 11.309614854525947 10.174835122740975 12.243252870377964
Pt 10.873576336845668 12.7476281983422 11.625128449447438
Pt 7.831332444728903 9.943816200099729 9.224186316693661
Pt 11.701141355738262 13.397172578460223 9.013687568141169
Pt 7.794009962145156 12.276641207973917 10.735676554135214
Pt 12.639440484504464 8.490820131627363 10.408249018734486
Pt 8.983848732249996 11.374008347755879 12.787226703606628
Pt 12.177937341655314 10.714948977081859 8.872922127928714
Pt 13.810399351122 10.669648310505659 11.450649778277436
Pt 6.623520071152174 7.858012786460196 10.097052394275696
Pt 10.224464899017917 9.098719337689644 9.607314040821844
