20
Energy = -92.45023416 eV
Pt 11.377028263125505 9.951072654271098 13.933128160643458
Pt 10.203451920200047 8.036854289301113 12.570271783367819
Pt 7.575004508391052 8.426515055353892 12.137405099800043
Pt 12.434653521609091 10.253886541644027 11.640930191954249
Pt 9.231918776998544 10.39937171271993 12.517893177409457
Pt 11.82817701825176 7.902312059500511 10.581263515602092
Pt 9.208056457435932 8.035312771417187 10.194549422440796
Pt 14.218132348841214 8.654742122344262 10.602034877113732
Pt 8.450554871636129 12.866322713702015 12.02572093511983
Pt 10.963760199562676 12.24019841098738 12.38900220412296
Pt 7.232771814687326 10.696393508960227 10.971493544818589
Pt 13.110058720508363 10.418576389441128 9.065329947299867
Pt 11.071021042179732 11.817306952718106 9.897840844618203
Pt 11.049377416900034 9.070379401158483 8.427821547995757
Pt 8.930701257590291 7.871425720581208 7.563213539775882
Pt 8.280428836318524 10.024476354667687 8.806578013029391
Pt 8.655952611601107 12.488094208473711 9.477136636061413
Pt 11.470723895007527 11.679154559804827 7.454805789944002
Pt 9.402047865393357 10.255349430459221 6.591475437544883
Pt 9.176702312037945 12.782778800769824 7.022628989613121
