25
Energy = -119.48678274 eV
Pt 10.68908480877969 10.917804358955937 12.849939747578215
Pt 10.52925686183627 13.401379189536735 13.395830186604327
Pt 12.476446275157297 9.995537624650716 11.093082902009842
Pt 7.959339230898026 11.168935490330284 12.285386747601448
Pt 11.968265568248212 12.752788680144016 11.377866756642408
Pt 10.778533471884444 8.351328764252099 12.146285007866702
Pt 8.749829781272208 6.761753667212041 12.741389894070233
Pt 13.281349589831741 11.774685522910094 9.338475190621255
Pt 9.379855788877544 13.259165892022743 11.145929502968363
Pt 8.86218776372168 9.2513078573127 13.69555971822422
Pt 13.80246363965332 9.21146194985888 8.898128769418724
Pt 10.07183194162476 10.350296421002168 10.244738855147702
Pt 10.83168007140229 12.511876799925215 8.91290224270765
Pt 11.722485440832193 10.341786178292535 7.745333470251734
Pt 11.726205319040043 7.832716321662417 9.724920412920293
Pt 9.433607366151472 6.7320091711780075 10.259346000682562
Pt 7.9712046963412115 8.743061608469025 11.127025100995125
Pt 8.337485687073656 13.201177883971422 8.785610628364683
Pt 7.6190101665485335 10.831302615709825 9.622316513926462
Pt 6.820669110847985 13.052755850862534 10.95042924806342
Pt 9.171011260028058 11.086468662705022 7.376395300841046
Pt 8.717040400745852 8.707325742190946 8.55987179854958
Pt 10.113863709778778 8.891189440293719 6.347296908030567
Pt 10.192149133406712 6.632991793182795 7.842175259160213
Pt 12.416317324023128 7.86006692137309 7.1549382447586085
