21
Energy = -97.84336715 eV
Pt 9.016335032020761 10.699509948303392 7.15208571762214
Pt 13.087708576061662 12.146369576168972 12.001641014924168
Pt 12.657926049142315 10.687571358988134 9.681881928422884
Pt 10.234902606354414 8.722737129786486 14.425711883463826
Pt 9.967690100428317 9.857184092373283 10.869929831070632
Pt 9.461062179849197 12.124175609776508 9.299364217601774
Pt 7.8720007049554335 12.100077865213851 11.454272366364386
Pt 10.803579214974933 9.262910382430162 8.407727208845998
Pt 10.015800779994997 7.387611259884651 10.003514979642215
Pt 12.08045110751097 14.456707927084508 11.831236881563726
Pt 6.580224044817417 9.912502464339088 7.367565774944988
Pt 11.799332753719753 10.512041689925267 13.523913898946049
Pt 7.667958137878068 10.237850335198187 9.693111047223395
Pt 10.504149680644217 12.305420050443072 11.734489006065017
Pt 12.606305969180982 8.10133716540408 9.976362007257359
Pt 11.363346628829758 8.111264041820283 12.217738683679869
Pt 8.326626632304379 8.217175693485666 8.25578045189879
Pt 13.611264478897478 9.637961831386118 11.882529668465864
Pt 11.849200591285847 13.205408871623082 9.624512497273857
Pt 11.415576698753494 11.675552729293422 7.591105488235787
Pt 9.063207990048019 10.565674587129047 13.138508425008698
