26
Energy = -123.00525459 eV
Pt 12.772477424696321 11.367603460172223 9.934155471724205
Pt 14.146604335448432 9.157592613696236 10.269027212929743
Pt 12.536954530952373 9.90585274914598 12.29598966735899
Pt 9.516328668756968 11.949113770789834 10.983042846332822
Pt 13.318454164845827 9.850654501273457 7.830589803072865
Pt 11.754633668559945 12.494733097424431 12.12990687843073
Pt 11.212877311928125 11.272725761164224 7.698958824777321
Pt 11.05220817790806 13.311984972924964 9.521781817189082
Pt 10.69594919058956 9.78215044853159 10.41044396979277
Pt 10.118317409865394 14.5956939503256 11.780700912230408
Pt 12.169964235545537 7.583625280859235 10.920209090017359
Pt 13.320653339952862 7.281512110262364 8.570000775858844
Pt 9.46381680043207 12.979637874489027 13.79331164706198
Pt 11.024562140106436 6.13998809635929 8.92764701805075
Pt 8.577605812543824 14.481276876772016 9.63786701801045
Pt 7.6410764311258985 13.55465352241064 11.971638056157254
Pt 10.338970939966636 10.597646991668073 13.535939748390435
Pt 10.999905606574272 8.628560435272437 8.041106790690632
Pt 9.098045028248785 12.669408954696287 7.80879654846178
Pt 9.800432624306364 6.43768986232613 11.232558046668975
Pt 7.8815863864923354 10.901949568149083 12.581233050526123
Pt 10.655769834784174 8.135322252173951 13.013001784053616
Pt 8.5258668590846 8.745577447155087 11.41611320192261
Pt 7.346250971802358 12.045795103261653 9.686227565415649
Pt 8.8472958878378 10.165321449339368 8.576040048216777
Pt 8.802150698167527 7.59618711284759 9.062553579841156
