24
Energy = -113.98479925 eV
Pt 7.856676381744434 10.042555801086118 10.561949541157027
Pt 7.087882832834315 12.516268948878116 11.595271330025563
Pt 8.19213424898847 12.457101657918509 9.282242735162804
Pt 7.12283886079452 8.564791418422875 12.535011284225021
Pt 9.731123854013433 8.29311708004976 10.05952313196541
Pt 8.47161374400499 10.714954009786208 12.906234028638643
Pt 10.144970859407598 12.694313908968864 7.578733791606225
Pt 9.882504788800906 10.523580493651789 8.818869045916417
Pt 10.576916672272716 12.785053537981629 10.15790710801147
Pt 9.48713164151037 12.95118702709301 12.421177231449102
Pt 10.031658428083919 8.152568626008048 7.517964627880838
Pt 9.586178720619683 7.974444589619627 12.523017354534506
Pt 12.12853221386628 9.715612267156377 7.872574193877957
Pt 12.725665522604615 13.574188214036662 11.403477248114697
Pt 12.43172275049627 11.907078857333588 6.655953571703414
Pt 11.703077124561323 12.513866071106785 13.52351269817388
Pt 12.020294565619992 7.512107403359623 9.067684087354067
Pt 9.65115459410772 11.820347708820805 14.919315937715115
Pt 12.034160589824792 8.453474710449486 11.729201183481907
Pt 10.880060698384252 9.936339586827202 13.483987895607893
Pt 12.9259589380434 12.676823752432664 9.014020393687662
Pt 12.517271074782547 10.977081799197107 11.604614011686825
Pt 13.8416905854702 10.398996161671125 9.579267085461579
Pt 14.139823366986688 8.015189425968515 10.359533540386012
