27
Energy = -128.17162413 eV
Pt 10.66131371 14.384908962091155 11.456579355475228
Pt 10.66131371 6.9377184579088444 11.456579355475228
Pt 7.43307169128505 13.114913540338952 11.021828301540252
Pt 13.889555728714951 8.207713879661046 11.021828301540252
Pt 13.889555728714951 13.114913540338952 11.021828301540252
Pt 7.43307169128505 8.207713879661046 11.021828301540252
Pt 14.126769220374051 10.66131371 9.067563323226304
Pt 7.195858199625951 10.66131371 9.067563323226304
Pt 10.66131371 12.85405219051478 7.123370540049721
Pt 10.66131371 8.46857522948537 7.123370540049721
Pt 8.147907096764799 10.66131371 13.999399787280085
Pt 13.174720323235201 10.66131371 13.999399787280085
Pt 12.451656210314646 8.48698551022515 8.985232988015978
Pt 12.451656210314646 12.835641909774854 8.985232988015978
Pt 8.870971209685358 12.835641909774854 8.985232988015978
Pt 8.870971209685358 8.48698551022515 8.985232988015978
Pt 9.288869439048149 12.651425472316818 12.778748617309013
Pt 12.033757980951853 12.651425472316818 12.778748617309013
Pt 12.033757980951853 8.671201947683183 12.778748617309013
Pt 9.288869439048149 8.671201947683183 12.778748617309013
Pt 11.964599439234698 10.66131371 7.668573919888539
Pt 9.358027980765304 10.66131371 7.668573919888539
Pt 10.66131371 10.66131371 14.078032472877759
Pt 7.957756249335996 10.66131371 11.431496077456842
Pt 13.364871170664005 10.66131371 11.431496077456842
Pt 10.66131371 9.35740828111543 10.570116031423312
Pt 10.66131371 11.96521913888457 10.570116031423312
