25
Energy = -117.98067787 eV
Pt 13.007842143201346 13.675484334774712 8.375154778274878
Pt 11.57068644999052 11.66722464907996 9.284499926803576
Pt 8.947018030760786 11.70281123559739 8.956447021338606
Pt 6.4828734586264485 12.019012229300358 9.901861384981078
Pt 14.250505874040815 11.858735643659527 9.689180803061989
Pt 10.220182463486307 9.719532158470333 10.273419921905509
Pt 11.38412772285751 7.836566077751828 11.794338880204117
Pt 10.097305392429226 14.970616790057932 10.092063268971602
Pt 12.698412425105897 14.993128027581376 10.467205145795223
Pt 10.405695615671256 13.659593422808513 8.014287282636635
Pt 7.608050538562792 9.657145361228878 10.080321534750494
Pt 12.78000348913408 9.836037756502373 10.640156021471801
Pt 15.38023558271545 9.9748328777947 11.070618598837765
Pt 8.820538245560497 7.818904854986997 11.433319435458072
Pt 11.224305787256819 13.115145046005676 11.579391028458753
Pt 13.925646604556134 8.013479358567063 12.101534830781947
Pt 8.61795768101403 13.06415796307593 11.111020095870073
Pt 13.932030026068455 13.192028868824417 11.806649201030828
Pt 7.289436454995952 10.988513811809531 12.177318340171777
Pt 12.437153446660526 11.269131426297934 12.913352610625052
Pt 11.060659144340574 9.18088644898426 13.924567783710145
Pt 9.864573208603472 11.200268690311882 12.618886054302019
Pt 15.06510276165757 11.29188966086049 13.156688673093727
Pt 8.501195550929626 9.14672700523745 13.528348217744334
Pt 13.610843055235838 9.33052745389196 14.191750313181611
