20
Energy = -92.68851129 eV
Pt 15.190541025366414 10.371853558421574 10.829410059491334
Pt 13.657824955500455 10.901927530991015 8.850614571512619
Pt 13.387164703364654 8.619721770764848 10.304116060753923
Pt 13.458841481302699 11.561834448053125 12.28974666569396
Pt 12.315815173935983 12.466403078587883 10.224717864087891
Pt 11.527945139781075 11.836043510037978 7.718689876750061
Pt 11.30824906627047 9.551358075834372 8.930488384849546
Pt 11.819558064222893 9.673690286213558 11.949099837328124
Pt 11.051098333194005 7.561632819567319 10.600126648594452
Pt 10.844445439202149 14.382761371734048 10.964922343936054
Pt 11.330855104765526 11.34543483863413 13.76891847298526
Pt 9.18156772057249 10.773631009118494 7.93338993472332
Pt 8.93711025584515 8.566588874228504 9.505268730055459
Pt 9.73822187869654 12.708769441944284 12.405286433067786
Pt 9.755806269108858 12.464371314712267 9.662921959039794
Pt 9.30759027146716 9.234415262364594 11.953895291550847
Pt 8.703372963253035 10.870623068866534 13.81505817452284
Pt 7.905872367882265 11.273281151613663 11.254157531462171
Pt 6.9773371135343645 10.316519707555623 9.10090156745286
Pt 6.863850755131359 8.782206963153879 11.201337674540147
