22
Energy = -102.74482166 eV
Pt 7.777887424969793 8.309855834690929 11.936592641304504
Pt 7.5419414327242515 10.966361249618966 12.007720702511321
Pt 8.713203839022873 9.644739664640305 9.897915981389959
Pt 8.410808432179707 9.289601573932847 7.333946294758091
Pt 9.978405983991523 7.464617820365988 10.937460118258137
Pt 9.957614537817486 9.85412572280064 12.201772156328495
Pt 8.884649881724835 12.343755152230392 10.285083107251507
Pt 9.871897019012929 11.206493952990334 8.120903345825864
Pt 10.686342474572742 8.763697982825471 8.420477538152443
Pt 12.214207694415084 6.83861196425706 9.900339949394244
Pt 9.596412851912115 12.286440683146672 12.90890003033163
Pt 12.18577824056315 8.397614712210677 12.016248246413577
Pt 12.838296847311032 7.65621534619991 7.5479760616448015
Pt 9.904444582590656 14.41085014486397 11.504805499329517
Pt 11.96649129108699 10.184517461051724 13.911011069407287
Pt 10.50647619141968 13.693307127502447 8.855030973932053
Pt 12.927908788806693 9.35617769664015 9.48189406188364
Pt 12.354409542788328 10.954200232762052 11.454816156651729
Pt 12.232169423836586 11.758122046841185 9.026243858200607
Pt 12.051884674486402 12.733612331094436 13.444142082773956
Pt 12.263312824299213 13.546783842647875 10.849903353049989
Pt 11.984509238205998 15.18935067442465 12.80586998894441
