21
Energy = -98.74053474 eV
Pt 7.381642271855854 10.036683259333639 10.229461552517755
Pt 8.819907693891649 9.980380656054612 12.590759454750208
Pt 8.648858335610802 10.113246525180848 7.784005978287155
Pt 11.517844602173891 9.987344763234974 12.515901691614664
Pt 11.345671011774504 10.125474332666373 7.702336893192967
Pt 12.786251834530352 10.056588577063879 10.067321453168114
Pt 7.805345616099974 7.848366269384812 8.826139297166973
Pt 7.8950145810751335 7.778512170665436 11.495366360116265
Pt 9.994467292779424 7.87940573282035 7.372660441065196
Pt 10.18393294012251 7.726107972735675 12.794923004840156
Pt 12.285256415175708 7.872898945158504 8.672598375999208
Pt 12.381641774457687 7.79079577693588 11.348449990247131
Pt 7.787143531871168 12.305200775214752 8.941904668038573
Pt 7.87980709351631 12.228650587067053 11.60550804542877
Pt 9.985261233452059 12.373799913338894 7.505606250602035
Pt 10.169461488527249 12.22483865823625 12.908585577138657
Pt 12.280851763919262 12.313549396309872 8.809479717068891
Pt 12.372921196961885 12.24636654059345 11.479415462836519
Pt 10.081698451121023 12.621050170668713 10.216451238807673
Pt 10.085866969838632 10.048384696998598 10.148491653440724
Pt 10.096112373216295 7.47457765728147 10.077616872065208
