23
Energy = -107.75074777 eV
Pt 13.011358625417504 13.222378603514706 9.159120258147166
Pt 14.118698081324785 10.22039088061897 11.72935319938828
Pt 10.787095704164768 13.951190689919109 10.58394187156148
Pt 12.521260504210613 12.298902812196747 11.504221122526793
Pt 12.967230958981105 10.634530951957968 9.39416882281602
Pt 12.741067496743032 8.36808987587799 10.6305245857449
Pt 10.765360696085995 11.66282506354343 14.99578197440074
Pt 10.728835834089246 12.319834966159704 8.396346428697475
Pt 9.989831555818167 12.326551891658646 12.573436591045143
Pt 12.11442859766435 10.45989007052174 13.258641323360814
Pt 11.91729642488421 10.310515985283175 7.0791944288059705
Pt 10.72709121967296 10.073415760353296 10.7745455082176
Pt 8.92566291238616 12.194317902268633 10.275721751126596
Pt 11.681307666337673 6.234131705445979 9.847254520632065
Pt 9.542460477305518 9.961677678005367 13.501880231452866
Pt 10.910058231679143 8.437739672198504 8.599936374167477
Pt 9.383226284125525 10.17947285751935 7.726084523564672
Pt 8.041673249150197 12.38476142119809 7.836695556521408
Pt 7.519895489108357 11.1845488336495 12.208350637598182
Pt 7.445234895074732 10.32788942839505 9.374364522379166
Pt 8.511531100439887 8.930143996314658 11.421922030566428
Pt 9.297258024648242 7.03039802236434 9.953815883127081
Pt 6.903496299287671 7.837761259634448 9.726058182750918
