28
Energy = -134.43209202 eV
Pt 12.862266618512322 8.284206666527398 7.830664732390497
Pt 10.87997165074656 7.4371029989366955 9.291165121192634
Pt 8.804123951687902 7.460895370395689 10.884663458455204
Pt 12.999686153565504 12.563985790597084 13.536772277468987
Pt 14.83905537103144 12.280607726334448 10.402024779248686
Pt 10.11105477257463 13.669107196317116 11.373980501091799
Pt 14.40513866609031 14.137463494739407 12.214140130150524
Pt 13.535663032164013 10.726838793993002 11.885491247398534
Pt 8.650767764811846 11.012939405656708 7.232165066495476
Pt 7.2324507966345095 9.455616647845266 11.987261342663224
Pt 11.486655865410603 11.397704754007655 9.140153646897067
Pt 8.251081411637271 10.700846706290475 14.043900607034239
Pt 9.37957475960794 13.42284898069338 6.822268772579815
Pt 11.108550834112572 7.10444571428853 11.980248428453221
Pt 11.698429954238078 9.345642791257914 10.687434878718848
Pt 8.620029535305912 11.604408933969086 11.594575252797158
Pt 11.089073344203555 13.931753445403283 8.68815953588033
Pt 12.472728077400758 13.15584971063104 10.756813752768723
Pt 9.833260204989633 9.3523220519456 12.528510574035886
Pt 10.733417556299106 9.580794056101546 7.461926165023907
Pt 6.499681737303129 8.098584133466202 9.90378264302795
Pt 7.244151168636802 10.627184809848428 9.509675768353226
Pt 12.188919752092641 9.153273807583327 13.391588333648539
Pt 10.47948519674107 12.02723739014102 13.399434148293007
Pt 11.98947354023823 10.933301781607064 15.171888218653152
Pt 8.630943816188477 8.712000224545127 8.54948751428242
Pt 13.762672025157068 10.180733511133159 9.294396401746743
Pt 9.046908868329147 12.477519531454439 9.27264312696037
