27
Energy = -129.21995536 eV
Pt 14.879184406716409 8.013009163117397 9.889236628512645
Pt 13.920530587693367 10.357873114589273 9.634885242120413
Pt 12.076391894275815 12.57628104098085 6.733323609802838
Pt 12.367422568347264 8.086531811409557 9.399361174228222
Pt 9.894520982579365 8.615152870748977 8.837539459853698
Pt 11.591605260064263 10.495037949410126 8.392477949717195
Pt 12.917619890003227 12.688976528365 9.245300387320306
Pt 13.559828493350524 9.015194651857877 11.834670702452845
Pt 9.89532150144512 11.251641336266834 6.6815815803959095
Pt 8.223477889633621 9.407753080668495 7.086574765871648
Pt 10.698853754034966 8.270401436489266 11.316163048384293
Pt 13.30366804314026 11.801430625995614 11.708805270953912
Pt 13.478088627582517 8.016544496073465 14.17569623437959
Pt 10.910008771053418 10.840720487855815 11.220745387940303
Pt 10.362835037762103 12.996053585586626 8.718384346074508
Pt 10.974598103155834 8.270148363758645 13.84326592951653
Pt 12.523194829061572 10.332628119910575 13.819376869427343
Pt 8.092737453487196 11.459204735946324 8.60279374530652
Pt 11.176392237166612 13.423539756908164 11.148170279511339
Pt 8.652504796746973 8.615410925419802 12.920188178732333
Pt 8.543717924780271 9.899758403231852 10.619807032732027
Pt 8.601450985770056 13.128329374283249 10.553216178000136
Pt 11.876343907628637 12.740115014232718 13.691812449890945
Pt 6.456640049898001 11.696979326946243 10.589747333170983
Pt 9.47025989428256 12.836764714403333 13.099368376118235
Pt 7.025132645407753 13.42271355638907 12.606873929618297
Pt 7.7453751277158025 10.959511191938377 12.848339572750655
