25
Energy = -119.6868236 eV
Pt 10.408552947665179 7.868133310175746 9.416734064938446
Pt 11.665138071267773 7.693857815275264 7.162484862002292
Pt 13.03897594700885 8.047856213102177 9.363507900967619
Pt 7.879839680891849 8.495222917271361 9.378286408431268
Pt 9.189277596404974 8.157985586028245 11.702885661717392
Pt 14.326448005009613 8.468586094412844 11.556334873949025
Pt 11.762369835795315 7.926969408292288 11.75558305837664
Pt 10.396042326421627 10.265084697817018 10.624018607739817
Pt 10.001889802661992 11.88238240413903 7.436108216138821
Pt 9.519017801514803 9.281653966830739 7.388472101830457
Pt 11.992476629474305 10.14432631605933 7.9136106953724745
Pt 6.619667607069064 8.577037044465962 11.724787499946865
Pt 13.154370924961386 10.466488720380378 10.310719089930865
Pt 12.749188575454387 10.174691846450694 12.861457776422784
Pt 10.52224953075928 9.198966743202151 13.730894144327385
Pt 10.374124292100726 14.351355421878592 8.41678638041063
Pt 7.560018388349791 10.837357036081428 7.960213515203672
Pt 7.6136078407778545 10.734111439821042 10.575140579568508
Pt 8.20983984445677 10.339228264036695 13.043210706174664
Pt 10.465757320601469 11.69447841575034 12.773916310528984
Pt 11.638733521681758 12.280794507455342 9.367054826390751
Pt 8.604200454509174 12.74657344814676 9.453227436979848
Pt 12.729230734445428 12.596409622550075 11.754579557326542
Pt 8.055248669615509 12.832345962027976 12.055932502708494
Pt 10.346179382323387 13.760548529571224 11.096498953837875
