25
Energy = -117.91284293 eV
Pt 8.564137079959055 11.677978488830231 6.674674565875598
Pt 10.800410608290104 10.457536012680361 6.867914293551615
Pt 10.39932951074527 13.097731575105254 7.739102072112217
Pt 12.74196447283912 11.828115288884641 8.162195758038058
Pt 13.09599843564041 9.447639049978651 7.321085272778856
Pt 8.607912297796089 9.708197308808414 8.391455924408188
Pt 12.361696387747969 14.24061901254174 8.893770065305416
Pt 8.232421028135612 12.201153801794085 9.214662049756127
Pt 11.070063448458034 8.801880324825676 8.914812566896243
Pt 10.099894974876412 10.657922750716768 10.485464466970729
Pt 13.365152753106452 9.949814620784526 9.924746088901255
Pt 10.39098828514682 13.259559080713727 10.38353827924025
Pt 12.992424611842582 12.426129184335856 10.737850168057527
Pt 11.61396357496264 8.633608432020669 11.44980751843298
Pt 9.05227402732626 8.346375934114015 10.565098041455526
Pt 7.264194408457595 8.267095472820525 12.406884985904139
Pt 11.087731683379825 12.061534518202954 12.580533366673336
Pt 8.481728160807782 12.102351524302138 11.803967997961816
Pt 13.922268952051997 9.349110331382656 12.339375400072045
Pt 6.897633454857334 10.622635638234485 13.179947711726907
Pt 13.580401005158832 11.694749714031571 13.111401944928884
Pt 12.04015160007909 8.476090284048558 14.033041399957943
Pt 9.629735460953142 8.35977054085431 13.222847993530959
Pt 9.259367554450572 10.727754427944475 14.015005645932606
Pt 11.681504038905063 10.837994498018398 14.814164237505384
