20
Energy = -92.54268364 eV
Pt 9.325147073378453 12.777385144277202 13.48674063739368
Pt 11.278281691457146 12.971252665698008 11.812981056903753
Pt 13.401180837182107 13.266344835040178 10.434821599013144
Pt 8.68670902609323 13.243680998644463 10.9715247084838
Pt 13.225693614915764 11.260567480239315 11.965616825178726
Pt 10.51129145433673 12.177536203654252 9.469359558362859
Pt 12.659718569332822 12.464031030887108 8.182900456014366
Pt 11.624047024165417 12.413290758839791 5.928355980716237
Pt 8.26799932482807 10.941072919256356 12.028834273446055
Pt 10.13273576739587 10.976160662119906 7.251040974963745
Pt 8.891819539139773 10.165297737153454 9.51694317085912
Pt 14.15306439713672 9.001884151333751 11.096792446421043
Pt 10.87609976292033 10.756285639685382 13.23865858936764
Pt 7.014791853147817 9.07192363321459 10.803157779041197
Pt 12.413681984330895 10.285313977547288 9.735361263489034
Pt 12.376540365623379 8.673121968555197 12.852357157540652
Pt 10.605242091789474 8.995402296314662 11.054356758547948
Pt 10.823913013523828 8.823333593142465 8.400928202044636
Pt 8.663714389888312 8.500228762767966 12.648260095734686
Pt 10.412264176574768 8.57982149878942 14.464944423637961
