25
Energy = -116.92626826 eV
Pt 10.332831086759183 12.030824265317976 7.0513624638437875
Pt 7.932273984508705 12.288616307195076 8.6274088544706
Pt 10.042303569808032 9.551896846806649 7.132252682198936
Pt 7.720383460164252 9.827211560852383 8.639981006117326
Pt 12.566384425630668 11.7507045746009 8.260627204052396
Pt 14.387682253105893 10.368762300556192 9.618340444794221
Pt 12.701430215210173 11.944810886742172 10.878295691602457
Pt 10.384233489189867 12.152091172099528 9.707784498849957
Pt 10.096795193544107 9.427920539689662 9.735685038073573
Pt 12.316243344882784 9.213119027005254 8.310282802558982
Pt 12.383989514383988 9.138231994459286 10.919774056530214
Pt 8.682258415617964 13.870278609895628 6.882174959218418
Pt 14.96666233769159 13.48688669230895 13.441151335500333
Pt 7.859274973928364 9.771763024041874 11.18490946745523
Pt 10.232250925950792 9.426084060307238 12.325425226594158
Pt 10.57709829903735 12.143746225181038 12.294834341555287
Pt 8.15370190781591 12.294912826225351 11.147875283082863
Pt 14.740146867942201 9.035867439070602 12.01878406887121
Pt 15.06478025519758 11.518881850996694 11.953883870324931
Pt 8.091638255344101 9.828120331228561 13.756376201695792
Pt 12.631431908577019 9.405640240682148 13.505848338946631
Pt 12.98306863618108 11.95661046553318 13.55733751930683
Pt 8.378935989615844 12.289370876346641 13.709588661875143
Pt 10.513019569148952 9.664850600174917 14.945218991181813
Pt 10.771534690637388 12.123150852555883 14.905150561173313
