27
Energy = -129.53058862 eV
Pt 12.094060022012526 9.5607197887985 13.80264581751752
Pt 9.91709559875077 8.219975978468748 12.867737070579116
Pt 10.201733561413363 6.8871372813198475 10.359266345036838
Pt 12.033070495012506 8.495710441140002 11.472091052944021
Pt 7.898249436560396 7.31488898390528 11.48222747471967
Pt 12.193535012090097 12.269600341304896 13.518055023177226
Pt 14.343021085678851 8.648453134910648 10.371183287188105
Pt 13.285929622216893 10.782507595370074 11.697293836609868
Pt 9.916087919445227 10.918766675553933 13.517307498867696
Pt 8.014856250881536 9.859562369707982 12.06712942122187
Pt 12.309193909281385 7.827347188333996 9.007430434455884
Pt 10.078525458997714 7.7399616252276955 7.793091771261646
Pt 10.639848520115125 10.795683245880548 11.050980084369312
Pt 8.93360367934454 9.038054447130948 9.677947383200728
Pt 14.229929974575999 13.198397973710073 11.978086842572356
Pt 13.327052822579468 10.501808530172827 8.97811064056991
Pt 9.869884967973794 13.321464836369934 12.801336367118783
Pt 6.300259891496421 11.652437205199588 11.58355391328383
Pt 11.81691980503698 9.51048046666872 7.027796939962761
Pt 10.296043901485154 10.956865861155496 8.49553105952244
Pt 12.008975588487123 14.39097208954986 11.754971275236072
Pt 8.087491655359397 11.465689882027695 9.73938724028583
Pt 12.774683518557838 12.907897967963223 9.78048559702028
Pt 7.851581451002586 13.60065096424824 11.302119713600293
Pt 10.171172051799015 13.153225007203382 9.903261076662735
Pt 9.692269999860606 15.410077603794164 11.187743415291363
Pt 12.279435026107048 12.136173741006056 7.347740643846366
