24
Energy = -113.31427546 eV
Pt 13.275686660826864 8.96999146975047 12.988058395235644
Pt 12.932386732017116 10.563664472622754 11.117245691051663
Pt 12.986748468290433 11.1558076414392 8.548198239450123
Pt 11.092231584619247 10.25193640787431 13.773016258403137
Pt 12.873545466657944 7.051316333178079 11.271184034842804
Pt 12.376706076715365 8.716712535012519 9.374735590101093
Pt 12.354161259830905 12.34500429320788 12.854790437357247
Pt 10.790422294508405 8.37639333684094 12.015682910840418
Pt 10.360328652760085 10.46141086500522 9.864106779800686
Pt 11.046942405420456 9.741612969035558 7.359362465021943
Pt 11.691559470522035 12.779472786384185 10.294538594285923
Pt 10.549452218275643 6.829393823961784 9.970951571424967
Pt 10.877570237612693 12.467682745387838 7.816121972430633
Pt 8.730402056936732 9.67345496806355 12.958842710426378
Pt 9.831889739351208 11.947649312089082 12.066869743202258
Pt 9.130123578527112 8.535553356313233 8.584304702347543
Pt 8.38427355516802 7.836348212731751 11.032517211924192
Pt 9.439417959358 11.19744427135512 5.953886858685596
Pt 9.052210369585652 12.938360771201436 9.736856512136534
Pt 7.775031954848023 10.948093932660198 10.770907777174566
Pt 8.004797235215541 10.84609065956609 8.057667051494104
Pt 6.348077777109897 9.136571073180296 11.981531614753282
Pt 8.469586534271725 13.299167564143346 7.2283567530197885
Pt 6.64506463606799 9.059927314465746 9.341642616200597
