29
Energy = -138.84966127 eV
Pt 14.133186822846158 9.721823700777653 8.292494120729636
Pt 13.771938334742806 10.528856948232656 10.655017662239588
Pt 14.069254100186022 11.647245580583792 12.919705339562789
Pt 12.480220026241616 9.082563775644774 12.55108699318501
Pt 12.626864303080762 8.149475009687789 10.108882364209467
Pt 12.374182679144187 7.962693162856001 7.426897453181721
Pt 12.023409196499362 11.110048044720767 14.334787397080426
Pt 12.32573565777024 10.432794825142352 6.514477346787758
Pt 12.636449500385192 12.007796911196566 8.576329924648931
Pt 12.907579477898505 13.033698138922801 10.963933778353205
Pt 10.161797571075738 8.95123514775778 6.382260607865396
Pt 11.123157420552738 10.002774263703083 9.20570663015163
Pt 11.159343483877837 11.263851244956765 11.818746703208717
Pt 10.17235137005862 7.627017868251654 8.79228315934692
Pt 10.316732733823102 7.990842607266618 11.413308367263966
Pt 10.766236153681524 13.978251805394168 12.146690547045859
Pt 7.904794328496504 7.90369481370755 10.067110362852208
Pt 10.439536285341802 12.97337571555521 9.706534198695639
Pt 8.746373970830675 10.256284895222757 10.867779462015655
Pt 9.734699944378617 12.304780431775715 13.874689905097002
Pt 10.06854542317321 11.568632718240798 7.487863720289745
Pt 8.338689092036843 9.558229481100298 8.010402017034318
Pt 10.075972575869121 9.509801738645391 13.646099132770729
Pt 7.992640127871812 8.278924949333687 12.66008324662217
Pt 8.465508384765132 12.90620198252123 11.543321842556125
Pt 8.006359056282964 12.034332578593633 9.04661967372072
Pt 6.134490208613197 9.737746687822462 9.26139687054357
Pt 6.349649484731724 11.430337536511733 11.152449805107977
Pt 7.701732777980885 10.796878985343925 13.303289226089522
