27
Energy = -130.04765281 eV
Pt 7.2849012753780205 10.584620310096652 12.958307304549583
Pt 6.6400211153147515 8.53167793915554 11.58576477918285
Pt 7.965563255526606 12.636201492073372 14.258685313412723
Pt 8.594247052380382 7.9865784613629724 9.814236496461685
Pt 8.054529501409071 12.928165475163809 11.560047424454208
Pt 9.13857275750933 8.771696318947045 12.321393066292007
Pt 9.695764641934842 10.585036302479512 14.201479858681182
Pt 7.898468266148427 10.495799861742176 10.390304163398017
Pt 10.202946728865879 12.766515458346998 12.894963583961985
Pt 11.671431551493136 9.29892157182293 12.76856059939016
Pt 10.95731071299432 7.6047097081929955 10.864287711745883
Pt 9.330866743995294 12.321018205246897 9.318016091845907
Pt 9.334432457177584 9.929802435931343 8.21613232655655
Pt 11.639734189152216 9.400703932478596 9.139957209080087
Pt 10.63305645004871 10.901296788929178 11.04584574411508
Pt 11.30541384500768 11.668802896493627 7.7762137133461495
Pt 10.64497104123662 14.247128854992072 8.021933153933427
Pt 10.39995161086726 14.177848218176903 10.686785594408809
Pt 12.19037815250675 11.492062888402739 14.03859270589813
Pt 13.370907594370161 8.496671776997736 10.90051063831901
Pt 13.964616881615903 10.726830192033525 12.330065862751814
Pt 12.47182830934256 12.756793296227464 11.694381839476423
Pt 14.204407204068897 8.601711044878787 8.440651990067353
Pt 13.605222058928167 11.099422930881833 8.883257563424818
Pt 12.759311658956927 13.5297013106153 9.236255038026474
Pt 15.440739281003063 10.022263660845494 10.339972517498829
Pt 14.84113585387767 12.678748858593343 10.554127900830148
