20
Energy = -92.00473836 eV
Pt 8.024471766664261 12.33869274662628 11.954091164702895
Pt 10.312545437614105 10.460487563061236 7.711679859536013
Pt 13.19299622387216 10.448076602758043 13.889033336639883
Pt 11.905415249840054 12.389235808145 9.315551168321516
Pt 10.649326498425234 10.415223340473547 10.632617164433602
Pt 10.530571815044295 12.983448190062324 11.55776260337898
Pt 12.811115341687298 11.697747791840412 11.720336863684224
Pt 7.831066447108932 10.231445712193054 8.253595369458987
Pt 12.399099102816928 8.864113616084682 12.039171491521135
Pt 9.22156845737631 12.308574799413698 9.214318639802293
Pt 9.759435105226085 8.437205499899056 12.110031803390576
Pt 9.490484782934747 8.409042373213552 9.239049341585643
Pt 11.363596273419908 7.075454230592816 10.47262524874654
Pt 12.7727590911465 10.897509493106062 7.299364216880202
Pt 12.358250819957512 9.056712947761314 9.133303356883829
Pt 7.972014562457482 10.056942599885486 10.803177472848994
Pt 10.731146666672798 10.890445291115643 13.368151643139228
Pt 14.082462670896026 10.927045041876902 9.61008656264891
Pt 8.582268309533163 14.387039865451449 10.590541292091995
Pt 8.263485575443541 10.226583180543836 13.370612055862905
