25
Energy = -119.67641735 eV
Pt 14.564819518942993 10.120222219160702 11.772146775301659
Pt 12.121019680284173 9.386171892890498 12.293295095877804
Pt 13.312786071866288 12.34141528669381 11.470655594099046
Pt 13.251386282535973 10.436054795512879 9.562300540664483
Pt 13.356673743582821 7.932064131352747 10.627040872012602
Pt 11.68462636465526 12.687786176762822 9.279275252609322
Pt 11.604571102921362 14.277774600577986 11.361733697017355
Pt 10.088915538104132 9.995341090393028 13.890145145757167
Pt 10.979060333960916 12.021981416480834 12.502843637681
Pt 10.647830393415765 10.420169195296777 10.34419992157782
Pt 9.759148405076438 8.345979362907848 11.96338152617703
Pt 11.81302835756515 10.857999239401078 7.4220490320017305
Pt 9.402352787068615 13.348470351058863 10.417542220081138
Pt 11.64123269431557 8.541059412083692 8.654689411077706
Pt 8.492210321258773 11.729479630841615 12.964330582369819
Pt 9.458712182161818 11.749323586617006 8.243244510486278
Pt 7.2236640326802135 13.54118327036652 11.775371038332647
Pt 8.476146905495348 6.5947515389146245 10.562159239778227
Pt 9.669659092597474 6.8118042606167615 8.170355473036016
Pt 11.104805278233838 6.7399323606486625 10.437602607139567
Pt 8.103124360554185 10.125469022645513 11.036667590319288
Pt 9.590594019687305 9.322723469754438 7.351711384597185
Pt 7.218195395374216 12.115163908692072 9.699246126239627
Pt 7.8019490621372185 8.543539675912458 9.074353525232109
Pt 7.180795771043452 10.561447799936355 7.670966896052527
