26
Energy = -123.68835118 eV
Pt 12.317966279910365 6.066419445347477 12.397245872842314
Pt 6.931760581683646 11.686651507222063 9.331276937281297
Pt 11.248591883883893 11.10151368027131 6.846694929213037
Pt 6.984011150235029 9.00568963520609 9.636040935805807
Pt 13.681404978364975 9.344668090360788 9.339909043386555
Pt 9.104305618525569 12.20674469923139 7.91046651749847
Pt 9.575189558754348 9.50298957069826 12.850427783121214
Pt 13.553025581147077 11.53435620687107 8.052778948488475
Pt 7.568754548163907 7.521518606580243 7.599889298014051
Pt 9.367777225688076 7.796251686781045 9.635787404150365
Pt 7.68881966163861 7.978930826504942 11.848765073499234
Pt 11.617750073426176 10.92151717716514 13.591357071113384
Pt 6.750763821645889 12.400807192323787 6.8634128009062305
Pt 6.499819974769108 9.89713506936553 7.2434285417550965
Pt 9.06456067799488 12.463560775089128 10.555589143719653
Pt 11.278863780912907 11.91155790109788 9.31334860684776
Pt 12.861405210037004 10.610219530178423 11.31287209034764
Pt 12.167810052877378 8.597348399786519 12.721078879239709
Pt 11.356075936845365 12.837377397689243 11.770723576959812
Pt 10.017777092085431 7.05203935332686 12.062225990796529
Pt 9.002609811355638 9.66941327265658 7.578340570103125
Pt 12.023143828062269 7.533541204284499 10.290107077226914
Pt 11.278078283694223 9.153394205072562 8.52353822252578
Pt 9.236505842503693 12.04707357364685 13.093475641602321
Pt 7.563104451676408 10.587243693188277 11.585832896946812
Pt 13.54820718275693 12.860120388691833 10.333469235246765
