21
Energy = -96.96467324 eV
Pt 12.576296008115312 10.877658763393828 13.598586479186856
Pt 7.733773110357419 9.70940881388334 10.222428201150713
Pt 13.68297969795265 13.12168502109064 13.240136907266548
Pt 13.450024997915339 10.339855412695773 8.664555393116515
Pt 11.590775624058294 12.11857476369194 8.903843590331226
Pt 10.50953746683876 9.483578690638893 13.4497158385996
Pt 8.521749120841536 10.285431564803162 7.9113019275457885
Pt 9.00353248508147 11.958708757954629 9.7961769395029
Pt 6.976853757033225 9.11690299384148 12.554967380940754
Pt 9.992893677589276 8.677134541242609 10.883586186195512
Pt 13.79746090147053 10.542103237766552 11.34259249427167
Pt 13.901272011395019 12.69822661337638 9.845371710334414
Pt 9.48060414019053 13.317965120506503 11.934712188243573
Pt 10.841998242963856 9.620493311825312 8.64168420647108
Pt 10.299221461600792 14.219491801117861 9.545817187611005
Pt 11.183163575442158 11.16517041575273 11.393871903997315
Pt 15.547417266041965 12.388131281932553 11.769332283621358
Pt 12.047683233563703 13.680116873289617 11.442893502489294
Pt 8.912425144409488 7.595246130446334 12.902739020519105
Pt 8.648353646710886 11.009880577889609 12.543680262874036
Pt 12.504526125182228 8.592280580625724 10.380487060873945
