21
Energy = -97.61741221 eV
Pt 7.421450163579446 7.17465998916702 12.05070341719039
Pt 9.843045230805908 8.132267928990844 11.572061843770244
Pt 7.786103317568392 8.173561235029139 9.78132145927735
Pt 11.730536482350455 9.65583665038871 12.56928813657764
Pt 8.835965124565966 11.280696767417187 8.36377519126233
Pt 13.85112269422045 10.052938346999971 10.987426158831706
Pt 7.973078742945818 10.543628147045041 10.787955465554381
Pt 10.72644739630839 13.955342748870132 10.171264380928182
Pt 12.304327861167636 7.906271392501562 10.67076236734974
Pt 12.33235455586654 12.164455097621184 11.230521518437177
Pt 9.985541550536215 10.833935692861695 14.015044312110312
Pt 12.55000553639708 9.742672363375638 8.75257754649916
Pt 10.351921219021005 8.258473170534046 8.87101806354729
Pt 9.8310972877786 12.380436868130428 12.05281398401092
Pt 11.28091979212043 12.213594054342364 8.374939590038634
Pt 13.807258290055577 12.031822029477219 9.124525479354084
Pt 8.206306102721443 9.345492171214786 13.072727744984482
Pt 8.260927519465854 13.102125377876199 10.066073458703269
Pt 10.694840669436067 10.096042568942966 6.905073017969028
Pt 10.541917913481317 10.470413773609714 10.322739727850347
Pt 8.248402494045283 8.956246671062507 7.4323685030455255
