22
Energy = -101.86604373 eV
Pt 13.866507887995029 12.496800751573875 9.107341782112005
Pt 11.315226506056373 13.014981491257782 9.307060195991895
Pt 7.418276623344222 9.269518882436934 11.894762934405477
Pt 13.359961073030414 9.986610585006432 9.182213518410371
Pt 10.649678923159192 10.716457524126382 12.715664289878905
Pt 11.923300020428643 8.704215582794038 13.783048575527697
Pt 12.688528081776614 7.519784481562039 9.135843346339923
Pt 9.50832077871012 11.212779711209468 7.497721109867671
Pt 9.605116174333265 8.089915908480698 10.992524463990895
Pt 6.749896631714015 10.561538551672434 9.71363327763512
Pt 8.511437333987848 11.597352632108347 11.384585748760419
Pt 7.322853304719322 12.38839547407786 8.05451207792106
Pt 8.492893795911527 9.049024409148995 8.788261859569621
Pt 9.40503736299465 8.446263545779322 13.488749036209725
Pt 8.30131371930153 10.807008020415626 13.864957739062248
Pt 12.123204778839838 11.527608211476357 7.36205157959767
Pt 12.461530823579713 11.611657196991935 11.190449607879653
Pt 10.175486814582426 7.010566275147785 8.742872232528253
Pt 12.159043053838625 8.830089300418916 11.278941520166532
Pt 10.393036541532242 10.504103296960112 9.905545567788716
Pt 11.141934234765802 9.186438636403498 7.740279178736384
Pt 8.926003932578176 13.378443418264542 9.727210469713523
