22
Energy = -103.15652629 eV
Pt 10.874754770156683 13.13596186103142 12.310160905575673
Pt 12.453263607091138 11.830424691031725 8.238320060805888
Pt 11.231486960208157 7.902216937572718 10.023665134314976
Pt 13.040009027214587 9.854184434417762 9.872303078795605
Pt 7.2435621557913015 9.264211166874693 9.7004327062505
Pt 9.393484781847116 8.639292898073855 8.33061376062985
Pt 12.9170610569389 12.380879164724549 10.726701965058986
Pt 10.042918397098934 11.131440094555703 7.610692459223254
Pt 7.568890189033034 10.257322156318986 7.34232075533404
Pt 7.983053875877472 11.926070759293546 9.224411927206463
Pt 8.523371166795366 13.37043387622512 11.30060418464932
Pt 7.483220394420071 8.478346308189538 12.161583710495702
Pt 12.535113311252625 8.988138759526791 12.293913020103744
Pt 8.702043601390777 7.059625238461323 10.321966631921104
Pt 14.609012369092031 10.626790337654974 11.75796139405994
Pt 11.882896287024893 9.1946239920575 7.700827139453756
Pt 10.479891288191771 10.638711508701647 12.76899743375704
Pt 10.37387803701992 10.397862723155757 10.219554625650568
Pt 12.821218962931924 11.67340895256255 13.267796267386469
Pt 10.068711085489321 8.145595497354238 12.35743961980605
Pt 8.12840241522562 10.880904517744277 11.743612059878467
Pt 10.512340440166017 12.921872570596024 9.667274902543694
