20
Energy = -91.80564694 eV
Pt 9.791576887736246 11.344511477976065 7.128785630143589
Pt 12.10256293504706 9.964448389085515 7.345312310529116
Pt 8.515743554242409 9.328099041341778 7.898937583185973
Pt 10.826275581016226 7.950235133935162 8.117390892062916
Pt 8.895231309891981 12.694392252733879 9.134335800143024
Pt 11.194560746252819 11.39592066931994 9.306836350317836
Pt 7.598896105249153 10.648572322087633 9.915924147827898
Pt 9.825329965525597 9.236711922255589 10.133217367038942
Pt 13.426071598812724 9.996681292910377 9.55783532089173
Pt 12.128911377101854 7.9515064295199505 10.34324518048497
Pt 8.014846498174085 13.97631529902165 11.136411622488
Pt 10.27453548736586 12.746559465858 11.420451264996855
Pt 11.17711302656058 9.297421286906625 12.438422350139582
Pt 14.687612005084397 10.000068263494454 11.757298935907283
Pt 6.748360119538169 11.983541964401432 11.897376335794734
Pt 12.51931883521796 11.40874489723502 11.629690464455047
Pt 8.932512565656411 10.635215112866252 12.229683540728212
Pt 13.421183605487942 8.009564603745734 12.524148697055251
Pt 10.29829800645497 10.690187352220105 14.39768677122155
Pt 11.566555607887278 12.686798641389153 13.632505252890468
