23
Energy = -108.54120742 eV
Pt 12.090194256272397 13.607437722064827 11.477944664257848
Pt 11.976190404200104 13.48021243972538 8.784476063196312
Pt 9.932909720823776 12.80534708803123 10.316638889494985
Pt 10.202319540336054 12.114791806125814 12.868921109967612
Pt 12.594188137394031 11.343391801081482 12.567830418638355
Pt 13.365131256600414 11.633593982075366 10.217133358718701
Pt 7.728071117209463 12.065265707619124 9.120135375762134
Pt 9.822422183140725 12.55786778954517 7.652554400061326
Pt 8.156234577895532 11.37789322781855 11.6081857742333
Pt 11.486760032414841 10.091531683361806 14.510600253047505
Pt 11.637677695612064 10.97715182123431 8.467682805302973
Pt 13.372264033892918 9.0246964544091 13.067786848424252
Pt 6.147658407816123 10.326527191147227 10.37843530205845
Pt 14.023807795833955 9.213140560454644 10.50286027455131
Pt 9.743053698241473 9.564109019432854 12.759854479379278
Pt 8.160965577468781 10.8870500226909 6.662743362511809
Pt 10.104653246536161 9.238893900605769 7.403219411229697
Pt 8.036850593828792 9.517865446824883 8.834370306047239
Pt 12.262590260040161 8.523394848243182 8.703253432523871
Pt 11.724530762952927 8.367051068065027 11.297682983612313
Pt 7.896484785154475 8.580808460193225 11.216270194705316
Pt 9.884027775956012 7.742708408221789 9.557944951671638
Pt 9.701378151041768 7.00963356169126 12.073839351266704
