27
Energy = -129.88795078 eV
Pt 13.811095061370489 8.285350201081297 9.540753530870067
Pt 14.208291902467655 10.348168138115227 8.115472538187785
Pt 12.296265239893085 11.525484788081695 6.948644599070904
Pt 11.287827230884153 12.457404500392006 9.089572391239443
Pt 13.150437563327813 11.072500890650275 10.345488142575682
Pt 10.438819969472824 13.198580245113858 6.485713326179578
Pt 12.054438216493681 13.173619923414124 11.545459322744914
Pt 12.331071860424265 8.858833591738874 11.620169690559573
Pt 11.743753855487455 9.241459147750117 8.2241325680047
Pt 11.174918000511292 7.249308728019327 9.926127680120041
Pt 13.289271883980998 6.42488840595259 11.226773862382563
Pt 9.737882687551831 10.868870269876812 7.483877116203263
Pt 12.640535358121882 11.048571251987534 12.95228075436053
Pt 10.919407440877285 6.902505869743485 12.616566212135163
Pt 10.42980550883632 10.64658216159562 10.94567891304598
Pt 9.38326505529055 8.932205021874616 9.116619625015861
Pt 10.334348207028262 12.225175734446227 13.247796248316229
Pt 7.87032336730611 11.09516513322549 9.341818720169197
Pt 8.746399105037437 13.364536184955806 8.446676586663068
Pt 9.5347508654798 13.274493516663332 10.921172027970616
Pt 10.446939679207766 9.431754988861032 13.344980566638391
Pt 8.8376018836558 7.743099814947265 11.39447363086392
Pt 6.9066650172973185 8.853058662852042 10.134932504761663
Pt 7.972919652860685 10.068687195647852 12.13576398710673
Pt 6.977527484278675 13.269469146265545 10.382148989002689
Pt 8.566373322461395 10.857247096004034 14.537347178264872
Pt 7.7110132159969265 12.54253163924997 12.749734524860658
