27
Energy = -129.18134775 eV
Pt 9.333101846763254 10.921105046895574 10.63284802826848
Pt 6.753279602943397 9.861814800259348 10.563432041177597
Pt 8.38758839888449 9.234388129588623 8.575282537928578
Pt 7.117389626676566 12.345740216487949 11.131018654306601
Pt 9.147917958262251 12.40092194929956 12.791585432317069
Pt 7.203057073386762 11.641353423942975 8.474204748582022
Pt 11.715124138729523 12.179470469720856 10.354215081112807
Pt 7.4657111606980635 10.427022505226772 13.160718225548736
Pt 11.786457053977621 12.041825116269615 12.924203585180942
Pt 10.118285039928582 9.921729454604266 13.095822580993085
Pt 8.467697533301868 8.380589707596565 11.82668432463472
Pt 7.096398270131203 7.361736113063705 9.850642408477936
Pt 9.703261610054597 7.202458692382063 9.796287181386468
Pt 10.939602265100763 8.95348337834175 7.960655050407312
Pt 8.949229227010226 13.333656945585217 9.559113926009083
Pt 9.750339182574251 11.337146158674622 7.897064664229322
Pt 12.370539320506628 11.171353243022438 7.907782724318419
Pt 11.452233390067724 9.490432155756512 10.395092454617478
Pt 10.504790237077096 14.150351126107386 11.522578267018071
Pt 13.869194811152033 12.92659051135954 9.077289655594592
Pt 14.030310950536403 10.878115723999576 10.665543582865306
Pt 13.562214734048563 9.095082583411278 8.815244106109063
Pt 10.906961254672364 7.526107504389394 12.255514112714915
Pt 12.685467781945059 9.565109653056085 12.621375531737796
Pt 12.310861399563827 7.1039119618708515 10.046218504070207
Pt 14.47557766411441 8.311338185864427 11.20178057088397
Pt 11.231765596775473 13.57152228618455 8.232159019509133
