24
Energy = -113.87395481 eV
Pt 9.939554021994615 8.229022929064804 12.697387744815831
Pt 8.755967364289528 11.514964549502505 8.970037050497915
Pt 13.756145259042171 10.203617039430954 9.77223514598704
Pt 10.01163014095502 13.264251897632086 12.179727062526455
Pt 8.862043372716965 13.920788943801359 9.917298533725043
Pt 11.467637565954249 12.144345570579468 14.128869337460086
Pt 12.505730917524534 8.174279670682388 13.496399446108704
Pt 12.885820360321548 12.659486453690487 9.257573149847742
Pt 7.8005839512890045 11.922427555169994 11.324441084002943
Pt 13.897606172182268 14.78459910207141 10.444213389654593
Pt 11.903089928372987 11.598122970663438 11.675830194154283
Pt 15.14706728844797 14.394320712094311 12.708224982477741
Pt 10.612979612252591 13.103943455750715 8.058830128502008
Pt 10.789677385495311 9.612518585117204 14.791504181463672
Pt 11.780857396547837 8.998271882923989 11.052662520185823
Pt 13.946429241094041 10.062453366910027 12.379040118905337
Pt 14.675194486108872 12.302307954921195 11.150421764639523
Pt 11.338778594824019 14.569205353970109 10.179895731366273
Pt 11.207559732225347 10.683021622298382 9.1380278416394
Pt 14.160151401655627 12.350107048758396 13.826609045826746
Pt 9.380845909779945 10.837015775826137 13.038706976860746
Pt 13.316216214779862 10.26207319986036 14.94555568621392
Pt 9.196816904391651 9.67863926672491 10.700475050095369
Pt 12.465921292789504 14.097432064609551 12.590665476192953
