21
Energy = -96.27673267 eV
Pt 13.378306259649607 9.36720733840111 12.94424197568936
Pt 8.43610405755392 12.153101841456657 7.584217954679236
Pt 9.305836960286088 12.00325235952121 10.237115851142327
Pt 12.956411405940733 14.929766947381653 11.926310774155963
Pt 14.40635191356679 11.111634786203535 14.371494196447406
Pt 12.94287840356241 13.014710098116455 13.482139376936514
Pt 11.052925474212861 8.470069253885615 11.897409723644042
Pt 10.625755259695012 9.252806647741348 9.552632675866276
Pt 11.610144188738124 11.519005649563612 8.754817109172189
Pt 10.87041027372988 14.160698764793906 10.730259922080132
Pt 6.952292269363133 9.555665708585574 11.150774320760872
Pt 10.283389525537993 13.677111950402868 8.343168768175723
Pt 8.168753672081882 9.97267471042511 9.067517202146709
Pt 12.97373673554518 12.510124857854137 10.735436588720356
Pt 10.84760439427619 12.110675435944128 12.30949042684427
Pt 12.980560714001887 10.023767338153304 10.420640462021515
Pt 13.37047162801297 7.588243488579428 11.160232434707863
Pt 9.099515505139548 10.169630461876572 12.176158436717769
Pt 12.234862181184264 11.64823312028363 15.550755960355046
Pt 11.067055711953023 10.158962762955639 13.907894395359722
Pt 9.997856129724672 10.155995636746187 7.2112201476640125
