20
Energy = -92.16089415 eV
Pt 6.43978763384506 7.384688622091962 9.418840003270494
Pt 8.208966383827944 10.74495916813572 11.03244065371644
Pt 11.38142034729761 9.059004002959263 13.614856848208428
Pt 9.649031246749848 13.995105604380004 8.148906235487493
Pt 9.808279320475721 12.8947747802666 10.519499111298048
Pt 12.714088821525563 9.976638023752635 7.539438711375008
Pt 7.8346696240740314 8.187926284707345 11.278132077687864
Pt 8.769231078213016 9.45166189318789 13.279488193326788
Pt 12.222650115307049 12.985893952217811 11.612614445868694
Pt 12.864744221763809 10.45931628537113 11.88385476078615
Pt 12.816379245030411 11.575061886891413 9.529959259618
Pt 10.630164210874593 10.514058036985947 10.168838032920803
Pt 11.712829730951471 8.360094218890977 9.418431389790062
Pt 7.734844282207042 9.363591095389568 8.689771365711705
Pt 10.31944070824742 7.917228533261837 11.536843091543988
Pt 11.15327476515243 12.081886728116121 7.557118522604921
Pt 10.40209120224019 11.369582680142722 12.63617744620586
Pt 12.927249064222577 7.9307124983017 11.671543753698257
Pt 8.330387677680935 11.834806897756964 8.622347657953528
Pt 10.078856149529923 9.695177692074562 7.839730581921514
