25
Energy = -117.51277612 eV
Pt 10.04444958147664 12.419811835906678 15.743639136199453
Pt 9.623808201106574 9.984874679471563 15.465804259084253
Pt 12.425556995532276 12.531163973556872 14.976151417329891
Pt 14.725863761364579 13.145721595525446 14.002852231603358
Pt 12.09155969714138 9.947841185191976 14.737927161767427
Pt 13.982320144797088 10.838393623478618 13.24987357069685
Pt 10.33259796459217 12.63965819712348 13.224866450147003
Pt 10.124400985933438 10.04089273161478 12.958542210667082
Pt 12.793225911198753 12.992602666910926 12.26817687776126
Pt 15.143567468976245 12.217425965537663 11.312437861248666
Pt 12.507098770710723 8.873992243913111 12.421017352056788
Pt 14.640215036959937 9.709346044846981 10.958879766891215
Pt 7.357111651490617 13.403611739222528 9.319717271693674
Pt 7.0544978623789945 10.939363926488733 8.976651015769585
Pt 9.681145636924024 13.20424784156209 8.398686618760639
Pt 11.982496881042833 13.012453286214766 7.47146763078991
Pt 9.56521763513777 10.64440002112313 8.535835011552859
Pt 11.591962067036587 10.580174293331611 7.093243765880899
Pt 8.404165834724035 12.9430582539197 11.586274032572462
Pt 8.548599542601181 10.496497190831429 11.019954031786535
Pt 10.791922365182106 12.863517737934915 10.679891194852267
Pt 13.170830931710466 12.634419784533875 9.641028179338274
Pt 10.989459563092328 9.754728006080834 10.504267363938517
Pt 13.068841498833297 10.12834784045099 9.053523330470416
Pt 13.103686224634176 7.798057549804255 10.143894471717436
