27
Energy = -129.97357565 eV
Pt 10.754459664454036 8.00073274223747 13.14456268156972
Pt 9.429169831006162 10.133273561642339 13.838124430377786
Pt 12.73266068729562 8.389785587497041 11.401094266013057
Pt 11.563346662820361 10.51218309295957 12.42431492979952
Pt 13.269987861268822 10.87115044608129 10.45575339587189
Pt 10.43674888330145 7.6309062860838885 10.602671014996705
Pt 8.424859599079484 8.828208470360254 11.843987395107643
Pt 10.018194950420867 12.642263809700495 13.214111673104284
Pt 7.601581664927409 11.636965352240466 12.891833862100896
Pt 14.14742264577426 8.664891056923702 9.283617041276948
Pt 5.976219531037689 9.797339391335745 12.24577531321977
Pt 8.813401821947698 12.643785037202926 10.886301481003958
Pt 12.521837166732283 6.520017848735365 9.453553070987184
Pt 10.307842905876104 7.566864135930742 8.07182367728387
Pt 12.677608206514957 7.921523560768986 7.204074071414529
Pt 10.165876581490783 10.248640932136283 10.257785054679843
Pt 6.2303741599754145 12.166620942166693 10.671919645137415
Pt 8.08531782902645 7.559188214721722 9.482104622066755
Pt 12.320456574240602 10.242493715995296 8.148309647638413
Pt 10.050068955240576 13.784134457586783 8.913137540251281
Pt 12.493286280459014 12.742496262761962 8.7157612825459
Pt 7.038603064089841 9.898618407606602 9.897210307843128
Pt 11.420569441087235 12.766188885347626 11.024054638430025
Pt 10.788106203607086 9.499755184727688 6.168695901786836
Pt 8.821460970912081 9.686250842575223 8.054622611751611
Pt 7.921070177609865 12.14645928271278 8.56145518314683
Pt 10.303024674776596 11.744954132477636 7.4141808939422
