21
Energy = -97.89514575 eV
Pt 12.487957050555373 11.633014484212092 8.421376288927574
Pt 12.55522567113529 9.553294685104722 6.980274982799622
Pt 9.230833514206884 14.200173416437982 9.762898386528672
Pt 11.502042056288815 13.170902536690878 10.30978416725283
Pt 10.274830255503517 9.434876037359315 8.077630599078647
Pt 13.393596301517222 11.485962570138263 10.991224325792707
Pt 9.934737148507205 11.902535705566642 8.728764327697318
Pt 7.841220692613683 10.495585211124611 7.822230346643361
Pt 12.5632135686053 9.371174193080753 9.605817042940934
Pt 12.783000175023366 13.381111938144418 12.561322298533073
Pt 8.442165152574287 10.758151762849637 12.225479636343886
Pt 7.7289450237639805 11.89454622636657 9.992187381624914
Pt 8.336470972962728 13.384368252203364 12.038167365212688
Pt 10.631694603340303 12.014015750110211 12.451309575245658
Pt 12.682017875733921 7.41846201201767 11.23650157043498
Pt 11.786309520944444 9.746019529376225 12.017366043081596
Pt 8.466131772068067 9.260442086580506 9.972389490421765
Pt 10.436345179364318 7.572017342231928 9.834400438133596
Pt 10.03938543054543 10.11605880172325 14.141705457740333
Pt 9.567467208103253 8.417947861324226 12.219203249166627
Pt 10.614292471031122 6.087221241746141 11.907848670788017
