20
Energy = -92.34457175 eV
Pt 10.83998093700496 8.779936814908938 6.8160891881015395
Pt 13.221117890349353 11.723624591409015 8.697376681990255
Pt 10.851092137822631 10.951751970698322 8.230370608645762
Pt 10.877263617467115 8.53300901781473 9.361031120167182
Pt 12.667657585517064 10.092545075243933 10.58672583867215
Pt 8.64628451815486 9.098307844596711 8.036838337038171
Pt 12.840447144125246 7.52159539254782 10.820201231831456
Pt 8.368701503154234 11.66981269935612 8.162940210602812
Pt 11.302340929550551 12.80157222781148 9.982216823440893
Pt 7.000153148891379 10.088907248470363 9.742140994911615
Pt 9.152910187936923 13.873204911064827 9.124369110507224
Pt 8.51223344752201 9.666629972515848 11.998498288874588
Pt 10.53795509213593 11.316446590898273 12.361708199251535
Pt 12.87410106427094 12.260765108306032 11.901525051689303
Pt 10.887112072685277 8.77940105066307 12.009436531403257
Pt 8.22289586236091 7.778760027279361 10.20536696026705
Pt 10.43533701166628 6.4467906181537264 10.915156596052125
Pt 9.864179206947844 13.82138948517111 11.84277365410093
Pt 8.505795274264155 11.925448848328049 10.815375494377834
Pt 8.664124416651584 7.141783553241812 12.661542126552702
