26
Energy = -123.8520697 eV
Pt 13.219882223863921 6.913085042998688 11.81100035032038
Pt 12.98894325683189 8.693094648966916 13.522938852141161
Pt 12.090630816074718 10.306508158151841 15.207233638256264
Pt 11.221466829914785 8.377468666447175 11.006015014725987
Pt 13.919554804511296 8.556077480529241 10.07398564337935
Pt 10.467289076041117 9.187258678805813 13.471155557459817
Pt 8.676179290151373 8.771422947273242 11.684437055515374
Pt 12.951382151195117 10.429861852711392 11.598442255353294
Pt 8.509200461317004 10.882476017758165 13.281472016342715
Pt 11.290057522473457 11.61885778589589 13.200973086154175
Pt 14.375207217042211 10.068590600742532 8.139418359049872
Pt 11.91225580674854 9.373512337003405 8.563451084276467
Pt 9.488940948944986 9.135298356115866 9.269824931926996
Pt 11.523918976757408 14.121968400595227 12.831967141950576
Pt 12.874622590504366 11.702533095447091 9.332055704316156
Pt 9.47717606330298 13.135966052280985 14.357168705631475
Pt 13.50340594735046 12.975543848493992 11.536201153530197
Pt 6.86434552883538 8.927922537638056 9.73330736845784
Pt 9.393205384582659 12.838281423228514 11.78908213113834
Pt 7.764007669934396 11.122795776626882 10.796615509883384
Pt 10.154967909858264 10.579611733051468 7.187310869680259
Pt 11.368507779449729 13.602766243571807 10.211031274754886
Pt 7.670712703503935 10.784702919664868 8.178471259365633
Pt 11.098112156974366 12.866404802313273 7.736364789696472
Pt 9.048187847487752 12.853989318684743 9.280437351976135
Pt 8.631234051241803 12.657396289897113 6.683033909611166
