24
Energy = -113.76142653 eV
Pt 6.542738710082742 7.307261128285743 8.041144215813215
Pt 7.365090902444757 9.777066255530533 8.204602802492722
Pt 8.678210334717154 11.947827505429384 8.694608446149399
Pt 7.318559832523996 10.835024894146843 10.616714141163492
Pt 9.131269753928237 7.924792943268052 7.679645309538849
Pt 7.2486730843944756 8.184318921244428 10.409360695419856
Pt 7.770977557673339 11.635067571271211 13.094469084092692
Pt 8.671483327021724 9.288868822662343 12.317976427993186
Pt 9.617899412106423 10.338257168798947 6.808520716331673
Pt 9.822310107737659 9.638000919504245 9.84616254876717
Pt 8.418641560601847 6.052056871937311 9.343618286596884
Pt 9.203947479610523 12.611480205290755 11.15607693330059
Pt 11.594532884112635 13.260256329726763 11.914569328211508
Pt 9.824025378877836 7.278597550662225 11.156758083653393
Pt 10.292878352464573 12.924977375703161 6.934943812575726
Pt 10.389527455498781 11.20469423048027 13.09062900696507
Pt 11.229532461313408 12.543442881830234 9.447277146070792
Pt 10.975746666923985 6.341829955486078 8.883875730739993
Pt 11.55245912287295 8.7544285270454 7.964974636247893
Pt 11.219152546907287 8.727789121927554 12.864853279390012
Pt 12.017029669643854 10.734737727951726 11.14592598218326
Pt 12.11175473183162 11.21954184858033 7.468839233218925
Pt 12.169827573779052 8.207245573034577 10.444941545029995
Pt 13.596455546921797 10.01962232981483 9.191077936000422
