35
Energy = -165.50862797 eV
Pt 12.722535000272837 16.61131380515535 12.803139273627572
Pt 9.665806135509225 12.799701934509587 14.135173462043365
Pt 12.378262047715198 14.115709281422944 16.750512668881406
Pt 8.820730654274042 15.15115367332086 13.645104244866982
Pt 13.31224349924038 14.56843843274535 14.451411508091185
Pt 11.679946455026954 11.429652558688046 18.483392504746877
Pt 14.338549879278164 12.693995014870623 9.07105246823394
Pt 16.377487758778127 13.33302021586009 13.263106763012015
Pt 9.697248899497747 10.378765865638124 7.906949260097477
Pt 13.291924299942574 13.353408519157714 11.41226034246317
Pt 14.134086327864717 14.987466904392486 8.275061621119734
Pt 11.71613218971234 11.10556282059907 14.533356962143113
Pt 13.358522499516223 11.705164946616478 16.563041612276432
Pt 9.901594449495567 7.54404917519893 11.291921697541303
Pt 9.865560491578405 12.239895120198478 9.636813422489215
Pt 15.291337477268309 9.08890850843536 11.804019977565876
Pt 14.663238778651316 13.501560293208504 17.959110374640897
Pt 10.525468269939259 12.410735958482555 16.436569041630722
Pt 13.366438838886427 15.766542021332638 10.450621761226007
Pt 14.189552094552894 11.976384133355607 14.101423058282862
Pt 11.066056442147907 11.881825789456297 12.079413217298105
Pt 10.207057494825586 9.786276119789866 10.34124008437861
Pt 13.10572547015662 10.211475917697397 12.526101362459544
Pt 11.266871759009302 14.536439443775038 12.927512870850698
Pt 14.562247000360333 10.937334180107861 7.2071539128783755
Pt 12.114636299900623 10.584469652917504 7.4402565497286215
Pt 12.535723431496768 18.08438150961008 10.79314462249794
Pt 12.287586149812775 11.303252899985981 9.82057215414226
Pt 14.63147538942999 10.107492558223054 9.59219696400918
Pt 9.133361115258158 13.626347127258454 11.618031679045243
Pt 12.510790067883931 13.606553813106196 19.31652914895864
Pt 15.272407666609302 11.671937521982546 11.626115490083901
Pt 10.77957174103967 9.23662065777906 12.844074416850077
Pt 14.889628100078436 15.118538171262713 12.410644070046784
Pt 15.461225114832134 13.66665474370103 15.604000721633033
