36
Energy = -172.33722856 eV
Pt 9.374830604929919 10.24088541157988 9.408885337635937
Pt 14.653440382409956 11.203142234317207 9.560120474486057
Pt 12.476521779073853 17.359046954435875 14.946995465712424
Pt 16.44323057043008 12.682808433637899 11.000257897839433
Pt 7.148115995882402 12.208970038066651 11.16368255411418
Pt 10.636867632268366 12.601654987672564 14.945456297775564
Pt 15.140491666442108 8.694979298246837 9.73457452933762
Pt 14.165393053442603 14.029360486404196 11.152516201618724
Pt 9.902141509898394 10.083921148562377 13.690818950248424
Pt 14.591005113154031 11.913439711175975 12.66858420315054
Pt 16.216351869900897 10.151545587762133 11.518127367381187
Pt 7.602052497541693 14.485359668889737 12.201675422626176
Pt 10.17562618836903 14.709790474119082 11.902503405685328
Pt 6.94368582946904 10.225133060146838 9.711641335100738
Pt 12.977441962922379 16.149941381879348 10.485087828461685
Pt 12.591149207672567 7.951947298851441 9.920557698561923
Pt 12.135333388386357 16.088757142856736 12.832330460901936
Pt 12.031348591793424 10.293477199903906 8.971193177619176
Pt 13.064189144887603 12.694505623590135 8.187960228326807
Pt 11.83262159198809 10.690039252886526 16.12636752201906
Pt 10.562513898520354 8.457911125566119 15.61661583951423
Pt 11.911638304223834 8.36841811463288 13.437284024522034
Pt 11.503256062339572 15.080778726237071 15.180662187749196
Pt 14.291177426168876 6.6327316943082195 8.67237528654757
Pt 8.679803149895157 12.232844512911157 13.211676856216524
Pt 12.180353556762718 11.927830620410706 11.092849257543644
Pt 9.18638908106448 14.704357749096433 14.269389547233342
Pt 13.61978798158872 9.56374306897353 11.773092556998211
Pt 11.9137631971303 8.736230614773412 17.661253469818405
Pt 15.287317850804527 13.715137186764066 8.859628912774376
Pt 12.480845249518081 13.527608675831155 13.145637238841607
Pt 11.569914220633462 14.208698663816914 9.761017842520385
Pt 12.38417200392547 10.976561814817194 13.638183927668623
Pt 10.894261065329944 9.42078562392776 11.281416784373167
Pt 9.657656337493737 12.434298706835811 10.770769470344174
Pt 10.53851156189746 12.316557234273072 8.262009966892396
