35
Energy = -173.59815396 eV
Pt 13.464353777112894 12.316048790745487 8.802917851738034
Pt 13.328885162319994 9.84428161667535 8.070467825763702
Pt 12.794754551480974 7.375054536883961 7.410222530261189
Pt 13.785517310233814 12.94564223958379 11.40341848686317
Pt 13.676497909161265 10.45126819083298 10.701294961430348
Pt 13.477446424185548 7.904079303189043 9.888144907907835
Pt 11.285208457661554 13.46798084864262 9.613505306732083
Pt 11.084390044522085 11.284950265456244 8.168249038498892
Pt 12.203587904747065 6.23300634004982 11.548230171027143
Pt 10.584030788562432 8.777236127665914 7.431954450579974
Pt 13.518515487824894 14.858764876804818 9.64544757572812
Pt 10.882329421997312 11.834759350563209 11.674447698420412
Pt 11.200476157591643 9.746035662916604 10.291713833735901
Pt 8.984046271061056 12.73603594672588 8.806421591143012
Pt 8.661791422365093 10.437637217309442 7.617843250521686
Pt 11.006984947427283 7.144006532516088 9.398915040228845
Pt 14.061175131241757 15.457541708493574 12.173341434438958
Pt 11.561477188647016 15.16886807238574 11.585529370327338
Pt 12.810925752304643 8.645964524685622 12.366515436380999
Pt 13.00972791618725 11.131422988726701 13.1179354233954
Pt 12.752923193779264 13.843756169011085 13.67466861933659
Pt 9.974277518985087 7.693442641394389 11.767492277729001
Pt 6.637132923729138 12.033964613126965 7.822497550359304
Pt 6.795287805525152 13.449298133655278 10.077274663131645
Pt 8.877312821680205 8.82446448028968 9.6861136909163
Pt 8.289147414532913 12.195632153518346 11.8221691293487
Pt 9.185464456183743 14.453814056470149 10.840983642083962
Pt 9.53321699661197 10.985424659032429 13.749670286651021
Pt 10.077977449563816 13.647845466837195 13.28652551213776
Pt 7.1001866065617225 10.722717304769896 10.002695486254758
Pt 11.396487682764183 7.0641280213204 13.92254288231884
Pt 11.534027823808955 9.555753826809402 14.671087068824185
Pt 11.483350722540113 12.136207868139088 15.039366117974284
Pt 9.156255423011379 8.416062104856035 14.200938289841359
Pt 8.111956368344249 9.554624903124745 12.079560159107727
