36
Energy = -178.30544692 eV
Pt 7.750645526184744 12.104366232516025 9.884233120423318
Pt 8.066157824926067 9.601470018873313 10.48169539716558
Pt 7.639905634859986 14.660227527669589 9.31890650661415
Pt 9.131078793521526 7.173969451041107 11.041896895037127
Pt 9.489854786687873 13.285859845683204 8.015813036239862
Pt 9.396285524293091 10.656087881691187 8.284846290827113
Pt 9.359092990752545 8.098548067111409 8.489653391300656
Pt 8.109046158616993 11.39927508703346 12.422312429872667
Pt 9.405332456671664 5.59030368295691 9.03841475783517
Pt 9.177837199185639 8.961732672031966 12.884109077335049
Pt 8.094263312355553 14.050698182597744 11.80799776835361
Pt 10.343820235811492 12.263148825436197 10.418872698449333
Pt 10.712018746784368 9.658892790309906 10.611075903319925
Pt 9.135167284503934 10.74836513923112 14.82532256408901
Pt 10.09408571635896 14.855188693099624 10.220450075727076
Pt 11.60693685815744 7.754070423714727 12.254411290763851
Pt 11.784268601039775 11.89258000817138 8.005924576912932
Pt 8.607012416259664 13.294667753591673 14.200059558371283
Pt 10.927824362846618 11.14861794895331 12.741810245028397
Pt 11.851765661841187 14.490515345479844 8.282272540691757
Pt 13.181837902594632 11.06065407862048 15.0399739937469
Pt 12.78316906116796 11.230134392491163 10.851023257002515
Pt 11.493416127351292 6.917341006077001 9.715746940310563
Pt 10.697259048487973 14.035506913703548 12.676263344989955
Pt 13.064116922865859 12.966019966414219 13.146952765600563
Pt 11.348750914272754 9.234713156708176 14.429487994656878
Pt 11.758404381027363 9.267925058934889 8.192984485612728
Pt 11.055140234807165 12.559301495352962 14.89786511492593
Pt 14.094291569607698 13.190700752126617 8.681614381298445
Pt 13.380344956963771 8.538963473354887 10.313299640448108
Pt 14.87729316971714 12.753810792464293 11.104418716995443
Pt 13.523563061678217 9.425477760914973 12.90595507167474
Pt 14.017889913712764 10.544059659431227 8.663916237542393
Pt 12.551584976672737 14.067510884493123 10.808284426511898
Pt 15.328778652447332 10.157602276957801 11.00740002552917
Pt 15.219335702967019 11.390674398236623 13.349994252774573
