30
Energy = -145.27126025 eV
Pt 11.095277161894067 10.797583313252158 6.341308308869193
Pt 12.951023363089499 12.002125913825346 7.913655254091434
Pt 11.1219705676221 8.206061617359717 6.114889309044421
Pt 8.56787925268251 11.587238328761872 6.658559412570154
Pt 13.016396174058245 9.344562168521824 7.726632256767997
Pt 10.451453981574874 12.648992608824814 8.171509788806675
Pt 9.182821252807056 9.101553607807753 7.545414446975858
Pt 12.129344322783938 6.824886225235491 8.00282141201484
Pt 7.895252201979839 13.262749749912896 8.560124495186852
Pt 12.041602955544613 12.865619811276398 10.250351745148437
Pt 13.300295242294153 10.60597850884758 10.097435398132117
Pt 13.029503376153913 7.951174026666262 10.129014052818142
Pt 10.960995718182588 10.105028974494324 9.0779348127463
Pt 7.5478310342396835 10.644256401199721 8.909170434669313
Pt 10.467127736958629 7.655126051345517 9.816190604260614
Pt 9.455805519454637 12.893146238771646 10.658433899843521
Pt 7.9028937974183915 8.177830685602101 9.665051449382112
Pt 9.278608742943613 10.273604501336672 10.90716602170329
Pt 6.9165398234649835 12.651762519458758 10.841756953116212
Pt 13.611680467896377 10.569535012745865 12.575743720753376
Pt 12.125953333414776 12.731810174893248 12.756957372369248
Pt 8.77546892868132 5.961389294344181 10.931263723203024
Pt 12.609115068991285 8.098470595032978 12.590006306121436
Pt 11.09373055365792 10.181305340335193 12.853841952761197
Pt 9.644510465266155 12.309379478713618 13.16073246052054
Pt 6.674445436417614 10.110828224286665 11.350954915636944
Pt 10.04718696669614 7.827262094475312 12.374354855218135
Pt 7.101938538799524 12.012082466545028 13.305666099135445
Pt 8.529114383627338 9.807962767984444 13.446371465626115
Pt 7.438458280999809 7.754917947737619 12.23091172210148
