33
Energy = -161.92791251 eV
Pt 15.272882192304799 12.068246914246691 11.819682347573929
Pt 15.123969568859602 11.254848953948073 14.264160274577678
Pt 15.092011024377003 14.677296489109454 11.625040804103671
Pt 14.173154825952677 10.578354696289074 9.866086973520655
Pt 13.811525062849645 13.573840413626915 13.67166873169372
Pt 14.543166723144257 9.576732990824926 12.341667350231615
Pt 13.70501682593862 7.99397221982956 10.41895476183838
Pt 14.146143632500559 13.245390543397075 9.691990632810596
Pt 12.188947902956585 9.38765255488633 8.531912779858382
Pt 12.61477754975688 11.951036824044696 11.750528313194211
Pt 12.591318151704124 11.398384423637431 14.510778506976777
Pt 12.462985463343955 14.68864523309073 11.613597074534779
Pt 11.807525672415895 9.592081474768307 11.074880873770796
Pt 11.099376423984962 13.35902482676605 13.514695095746537
Pt 11.017944616157017 7.3873799164631295 9.863266371598185
Pt 12.971903442509836 11.828419685943837 7.884709052546003
Pt 10.069474453461252 11.310629233387704 14.841636354440237
Pt 12.27420433498682 9.074659758570892 13.539526873941744
Pt 10.223124933659653 7.744175643253731 12.380705937701991
Pt 10.453212254568525 11.345216731534492 8.047776862674331
Pt 10.11100470695458 8.680735417255926 14.86063560874842
Pt 11.475076194135582 13.316123181112612 9.482048665777889
Pt 9.700540704779451 8.760077879784301 7.88787718887875
Pt 9.912085357282258 14.363618974052612 11.333405877699564
Pt 10.137167381604181 11.565769428711128 11.081056742046995
Pt 8.903157491842833 8.983691614939417 10.449194785487691
Pt 8.578423779113812 12.661945588735097 13.176708122510421
Pt 8.966251264951147 10.019365262482925 12.878594619974358
Pt 8.892655730189993 13.200213354080033 9.116081130375193
Pt 8.049540948524022 10.57313326047295 8.51978058307774
Pt 7.342359448339043 13.801808770891023 11.181232006122952
Pt 7.503863801952195 11.165545656692053 11.092482821928424
Pt 6.379991123786947 12.4508339479272 9.094457683917287
