34
Energy = -166.72512991 eV
Pt 12.054083961114461 7.728215145914462 10.646780758996485
Pt 13.964190418737893 9.363087838993989 11.496388927826338
Pt 13.708958715933315 8.740051447935679 8.85320962688006
Pt 11.91695840870941 10.423767294070338 9.680688778715824
Pt 13.892141329652349 12.455621543530944 10.34693661483479
Pt 10.24285053787708 6.94885728038498 12.41245787672228
Pt 9.384951350438449 7.621585508093759 9.931170465744605
Pt 13.703758503425298 11.294953879019932 7.958502569695008
Pt 12.014906454154527 8.676686433842047 13.18016905166456
Pt 15.531476425533556 11.387304439311306 12.178858991384542
Pt 11.910754263934619 11.300486935143024 12.201079589590464
Pt 13.643736440372532 13.052359714008684 12.960963975161588
Pt 13.725759120309041 10.518998040989645 13.929810117200613
Pt 11.189121235305434 8.323414859846617 8.11034769556309
Pt 15.55120740180363 10.451867256250706 9.658226761097453
Pt 11.176095076573732 11.019181042273312 7.146308358200002
Pt 9.22009534454872 10.046732249876191 8.55199329636256
Pt 10.19183000425101 12.211044568133435 10.484196600365301
Pt 9.97616351630844 9.733864691192775 11.313820472636028
Pt 7.0414482869918835 12.84307875127647 12.056204063384328
Pt 12.036355932375209 13.212697022133742 8.59498513802572
Pt 9.306372873804767 12.719639695383044 8.089530454512358
Pt 12.032263660284215 14.148878539682302 11.183304780226907
Pt 10.22037505738576 14.913012039917026 9.386558315322203
Pt 7.774213288924474 14.12362602235692 9.812505357410286
Pt 9.189496729926539 11.81980903784894 13.278019311242259
Pt 7.495542012590134 11.55048711231252 9.823075375315483
Pt 7.372092614978647 10.274729998026707 12.181949460909673
Pt 7.092358969997363 9.021461629742811 9.822738174635807
Pt 9.330214301307638 9.128148170447323 13.768442753358597
Pt 7.795514095950004 7.709888335054569 12.023792960644812
Pt 11.153291057784086 13.520540538693583 13.713415755014598
Pt 11.168367285286637 10.861299139650797 14.703936055191125
Pt 9.357613280467797 14.219181970506392 11.884189516163818
