38
Energy = -188.6770768 eV
Pt 10.264653971470143 9.447097365289078 7.187115438772981
Pt 7.85071692356811 10.723131989041029 7.078595643468641
Pt 8.206337015537118 8.30773359469018 8.468189239444909
Pt 12.235355080842618 13.586865913700825 7.021394163903026
Pt 12.510496541418036 10.938536590768479 7.381860112639987
Pt 10.078147535510627 12.072997288934022 6.809695058934709
Pt 13.510956561016068 12.698911504467256 9.181759112106358
Pt 6.018452280918025 8.540240395667697 9.858683732252691
Pt 12.574711212598531 8.319134180856166 7.93023856807846
Pt 10.53385085217584 7.3941534903867545 9.417722123407584
Pt 8.734836459348346 10.593785757974032 9.450501451380116
Pt 9.876730723373148 14.544955801702395 7.822812970919906
Pt 7.96935941108044 13.05037229073237 8.75004779606655
Pt 10.873504273458643 12.390907954624872 9.276539665551692
Pt 13.890179099537763 10.083755102183217 9.507280143088568
Pt 12.008984646690406 14.983878411295468 9.324667950431406
Pt 11.191609297176559 9.91942873745559 9.722323846715163
Pt 6.27258187140843 11.109658841735882 9.398802523851947
Pt 8.445346306956694 7.909738391380284 11.062627222488379
Pt 13.039761256531987 7.664496908320383 10.436411447682381
Pt 9.613718029879859 14.251933908133214 10.569828447200948
Pt 14.246544436210318 11.828001646755373 11.485313002609173
Pt 9.979823556975152 12.679072039422898 12.764014931996508
Pt 14.57213341226748 9.216429607652774 11.955670388252877
Pt 12.093640364864914 13.432766072022497 11.423936313173362
Pt 7.739748271700022 12.489572526951148 11.340688865409525
Pt 9.585416761685982 10.244574925017753 11.825806366326443
Pt 12.391464102563361 12.036412573086606 13.577448850693013
Pt 6.810501704128518 9.980714145234394 11.873296581393005
Pt 13.156564501893557 7.248874151140202 13.12752624639216
Pt 12.102870803296025 9.855563503209686 12.130735966287302
Pt 14.811514705803912 10.941676824976426 13.921659045359378
Pt 10.814678753637361 7.52870784229635 12.021008107887477
Pt 7.85880997456977 11.403958764751227 13.79013698848987
Pt 12.773445105299526 9.519158694470901 14.579724823060232
Pt 8.385876942115514 8.71295502526703 13.656856473808135
Pt 10.774496139360835 7.876908374592776 14.538177429273665
Pt 10.291944641239228 10.516810452700916 14.430637318510891
