38
Energy = -188.28032432 eV
Pt 13.72033934633306 13.339861510363267 13.464199732595826
Pt 6.9133456752029385 12.01068087163322 10.600083276533129
Pt 11.621001873969236 10.005929765234818 10.105608176133545
Pt 13.60093854856043 8.459819020757518 9.19650786921295
Pt 10.767196174192893 9.810803619522908 16.0105960385986
Pt 8.98301418594589 12.919417417081146 9.005455209235391
Pt 11.651837046983019 6.995207642467122 10.452511553526083
Pt 9.482333105133533 11.527111509998347 14.445176386413605
Pt 15.875463199453256 12.250529864097334 11.89904997978558
Pt 8.46851469065678 13.18853798079597 12.704309890495452
Pt 9.565207003666242 8.48915808354987 11.311388744903768
Pt 11.28305304002883 7.2681509344088155 12.955396630130819
Pt 8.099560301831424 10.488809282880915 12.347253808006439
Pt 13.325587409985989 8.59775636208958 11.856861575830399
Pt 12.713007430301655 11.941735015708637 11.49032936918998
Pt 13.280277764576827 11.135488816698652 8.354779986078917
Pt 14.316949959562754 10.66893987892979 13.25227965517764
Pt 11.219917237988934 10.317703550582866 12.806735660171015
Pt 15.213244770229004 14.71435095916858 11.666689072994636
Pt 11.02251277936823 13.484065880855283 13.549743354434057
Pt 10.07255779465179 11.86462788993628 11.111289836858687
Pt 12.688358493996668 8.94020062974597 14.448988587168559
Pt 14.790198644239814 10.388746008417511 10.453903323181038
Pt 8.461425140099232 10.213024438526562 9.543022751803731
Pt 12.08603096691879 9.208827119433566 7.051339654248857
Pt 9.421377119806584 8.84809787986654 13.972190282766691
Pt 14.302952445393567 13.06430880777978 9.773474955405385
Pt 12.344547636736188 11.61247319610366 14.865568685189844
Pt 10.065908485911065 8.366772150361356 8.682744034041447
Pt 10.46623455574212 11.05744819642756 7.9505491046749235
Pt 11.670850477505576 13.199369089702646 9.161584053939299
Pt 7.489925635099489 14.508654517827019 10.551708557539126
Pt 10.118537366972195 14.777141405988562 10.564858960484402
Pt 12.677364065707723 14.85098885348899 10.928450936684845
Pt 12.02548267046409 6.755846859126281 7.9122467335942215
Pt 8.578478585181772 15.777618321946631 12.570509950011614
Pt 11.071626157552664 15.887290809990295 12.799597115279676
Pt 13.537549253264562 15.922222451333377 13.274734138258813
