32
Energy = -156.6713858 eV
Pt 13.61262927308649 9.413409174093488 14.667641178811055
Pt 11.081743510351975 9.725093175382797 14.320377440378557
Pt 9.835707884807965 7.44482219927928 14.371171111863264
Pt 12.706904686830459 11.678712252732238 13.66626972607429
Pt 12.341492511003867 7.585387033298595 13.247332761156665
Pt 9.965128417577256 12.014701365737757 13.582763071747419
Pt 13.482359778092702 9.694225519299755 12.063661225851183
Pt 8.645021143064229 9.642407968252508 13.498629555916185
Pt 10.857950723499732 9.661879542809203 11.598734176529904
Pt 11.73378633750182 13.775006826610785 12.631757057638607
Pt 10.173505364829818 7.099020366986696 11.85209928098356
Pt 12.628360403373298 7.598999235612659 10.569432535641498
Pt 9.10336689314511 13.959825680450429 11.938426393472009
Pt 13.080484813412056 12.112615336094333 11.010530516592324
Pt 8.040360825850447 11.564989745916508 11.870940210934146
Pt 13.599537667893578 9.966080559341018 9.531493987820552
Pt 10.7590239301439 15.94325446659041 11.52803685600312
Pt 12.44208741043642 8.12916300091975 7.9719512790003755
Pt 11.048671207354616 10.101802587649049 9.005278053307924
Pt 10.25715686528482 7.616141657052729 9.336012932567318
Pt 10.374057953858568 12.01183889439173 10.63875045816528
Pt 9.408155443692214 15.116290146043147 9.455266085202135
Pt 8.392801686004837 8.917526983289953 11.01210518916736
Pt 6.885110194399262 10.617187875403284 9.680550037682567
Pt 13.537407589215784 10.197104758500313 6.843416499523572
Pt 12.671627473561191 12.213268655293799 8.40594329522569
Pt 8.022995363002083 8.532341414797715 8.464917067969127
Pt 8.824280023264084 10.925914932517355 7.929918750720731
Pt 11.81937371227611 14.151979480376404 9.908692665781906
Pt 8.04608545726972 12.93492867785145 9.602394158720916
Pt 11.065345613548164 11.078543775288487 6.599908670276126
Pt 10.195896021921165 13.205954701092733 7.85030264146235
