31
Energy = -148.7518597 eV
Pt 8.853182433907213 14.137582785428258 11.0723136244753
Pt 10.057951729856898 8.98864382633648 9.444916477096527
Pt 11.436050412174366 14.307451365136517 11.10331135219965
Pt 11.373884176450895 9.135792375119621 7.185967677230862
Pt 14.061580752755663 14.03018612850188 11.485514560404678
Pt 8.287134943261838 12.481898240626299 12.93773585110371
Pt 12.940975334694949 13.300624936341247 9.250257418351634
Pt 13.49592496790025 10.533513541877403 13.356202714156336
Pt 6.427729590901243 13.250479415745716 11.3368421022535
Pt 12.682963074266857 11.679939953983375 15.445199815161027
Pt 10.32902598884641 11.81300110729731 14.377619218780694
Pt 14.206332428585153 9.000842391034372 11.425160628290715
Pt 13.90178160039279 11.472854919914418 10.748149901671825
Pt 9.3449020177409 7.269915764286827 11.099641797130854
Pt 11.805103445148966 11.674564492967153 7.5516937636817065
Pt 11.087182572944963 9.823347243326522 13.016050667892731
Pt 7.853171002557578 12.164430240516669 9.533056259192984
Pt 13.300982069763695 10.295833330482871 5.924444066828279
Pt 9.315295128637596 10.850421883899525 7.8971983013900235
Pt 12.756627158530545 9.575520742495947 9.33499246937755
Pt 14.26780590739675 11.242089509974754 8.118413840510872
Pt 10.415562906785613 12.700096325238714 9.414857162775174
Pt 15.675471899146203 9.28498341714226 13.395606351164568
Pt 10.598978369972942 7.201676651068281 13.39880144144642
Pt 9.370571419334786 10.844701322440272 11.194295825087572
Pt 8.066394022108861 10.622795655285527 14.632061244806955
Pt 10.158029152956638 14.344384208748606 13.377788459624703
Pt 12.501644939543661 12.913074857167356 13.219778814339826
Pt 8.650677318930015 8.969677867189617 12.838146897110082
Pt 11.842159507204418 8.064950008069156 11.243852224360689
Pt 12.449261852923424 15.53906361797974 13.154467197724822
