39
Energy = -193.3669234 eV
Pt 9.851159063922038 13.907652131476087 13.686508372286449
Pt 8.639705770862463 11.580932183824627 14.41051436930618
Pt 8.854119992241198 14.87385351198188 11.371583184846603
Pt 7.4598713992449355 13.034439539052498 12.500856851607036
Pt 11.518628847426072 14.890047111348442 11.646404074720191
Pt 11.023419115534796 12.034022932125245 15.184142770310244
Pt 6.157853009938225 11.113699369862921 13.614393364877092
Pt 10.180616446600277 14.272820323543765 9.160509807575762
Pt 8.888536059664204 10.375648213854507 11.676713149428082
Pt 12.509508401625293 12.947155437146098 13.290921297171089
Pt 8.215133322501655 12.699409713265148 9.929082722157057
Pt 7.897686544640878 9.101436486562918 13.661497754012403
Pt 10.380743186197419 12.490475996105777 11.625822941741506
Pt 6.496352392765696 10.882449062177173 11.052145930841313
Pt 12.759003058520488 15.035583560317972 9.163762951940429
Pt 13.906302558957643 13.810213282644577 11.225883526827422
Pt 12.985079687274405 10.4264238401332 14.246443562392214
Pt 11.33708165449925 10.146140365259319 12.331333733922184
Pt 10.320764296098597 9.528368903712593 14.64386900704987
Pt 12.12840300687721 7.846708647399471 13.745915066337494
Pt 10.621870426128718 10.447116100795528 9.678809229740954
Pt 7.5905264240346675 8.291596765430436 10.93978209685746
Pt 8.058394058505778 10.176492544576652 8.983967523892295
Pt 9.805455031507128 7.747510366709323 12.338285650118019
Pt 12.16521348905387 12.529486786544448 9.766231401110966
Pt 14.5882009419646 11.534421437126968 12.38868094554751
Pt 12.149762713816298 7.631749074349548 11.116109426389285
Pt 11.650801694853877 13.58695609344855 7.107451164403929
Pt 14.058225646930314 12.85514530457066 8.099488936892323
Pt 14.273987651573655 8.787661922656246 12.5325441818274
Pt 9.608266627718935 11.976760447357213 7.760641839765735
Pt 13.164830428522896 10.335691264421918 10.593435054489419
Pt 9.934444164738885 7.964668071237602 9.647264554231976
Pt 15.69807817087635 12.290674918205148 10.034698420037023
Pt 12.387772053662022 8.586826737277708 8.636174024079011
Pt 12.194652019371713 10.983434826348034 7.487806934016284
Pt 16.03782009017843 9.851681185970282 10.861505733014592
Pt 14.562615126207621 7.893931772772751 10.00728340865798
Pt 14.616501477595538 10.236191226744284 8.495133692433544
