33
Energy = -155.88574389 eV
Pt 14.151886375418671 16.448455948668393 15.0593634004989
Pt 14.544482874098332 15.47962889461562 12.646495775042133
Pt 14.36060604238037 10.470844254378802 11.921205900055982
Pt 12.964815243779249 7.493511263468488 11.9034179657065
Pt 11.774089768772624 10.538466744239452 14.608396386379598
Pt 8.543342858128044 12.76221947283869 11.190239307986513
Pt 11.275089960160464 13.91014763102775 17.386229349811487
Pt 8.436918861221198 13.419288710786807 13.690835155944711
Pt 10.215934219673596 14.074875240336299 19.461734565925966
Pt 14.248597168165333 8.72232181723981 10.12309560093132
Pt 10.252689380319843 11.6737795859112 12.894488812363486
Pt 14.615389548191773 11.340105324696893 14.366417351868687
Pt 12.220985212235918 16.6365562351287 13.375529544836985
Pt 10.328789629852839 11.003548236973069 10.308276384111496
Pt 10.28893912667607 16.65814061417229 11.678711857258653
Pt 15.204738374714648 11.952277408682578 9.973480627189673
Pt 10.660654128015286 14.292679294187296 12.758795336561986
Pt 9.28044125887839 12.68791452892728 8.745040213539818
Pt 11.727261263183008 9.77509139838423 12.112710287509888
Pt 12.1673534738567 14.733645619437247 15.133150634382584
Pt 13.619423363762476 8.82554804189936 13.968089965146238
Pt 10.482251053381475 12.766470313825003 15.226744874287984
Pt 10.130237323733288 14.578987423468345 10.169399787952653
Pt 15.106275434762912 12.880578725700458 12.396830318425025
Pt 15.950822830637014 13.916054987489531 8.287417295535283
Pt 12.420541028299487 15.328766780374558 11.01620313392172
Pt 15.909935796375194 9.833280660211448 8.72183251245268
Pt 11.798839019326973 9.098082661564515 9.655481159500887
Pt 12.958100883688564 12.427790863373216 16.17813475456515
Pt 14.681287835655748 13.888097994719471 14.747309758820323
Pt 13.659336226368518 9.916065161695164 16.320756920885213
Pt 15.121901689651501 11.783506497516395 7.3882892294583336
Pt 14.633051568058086 14.418280485486132 10.320904652566286
