30
Energy = -144.79073693 eV
Pt 13.445972968493564 12.584959149320117 16.504576602928545
Pt 12.278589458726046 10.755061436887031 15.284229127922702
Pt 12.0841610620085 13.41486640320829 14.63740547693328
Pt 14.627740047774079 9.0177591725329 11.11858968721886
Pt 13.461793061731328 9.657757195976535 13.35898856714682
Pt 13.218981333557462 11.224052957200033 11.398151214268433
Pt 13.445896777604851 13.498387999760135 10.289638743000884
Pt 11.65215285614086 13.064801491330206 12.13010427893777
Pt 9.884558925291818 14.323037286697776 13.736880619424499
Pt 10.889852452951555 9.23339918058892 13.698204980737946
Pt 13.14381294173305 8.071140371450333 9.106285525037414
Pt 10.163903231477192 11.712409922796672 14.007490061747744
Pt 13.919819948949318 10.530414538257826 8.93421252857099
Pt 14.754845070931474 12.837774510025916 8.228613724154503
Pt 12.054856853087124 8.447241168348821 11.450220501994298
Pt 8.24790616469683 12.70887839640455 12.475637248826766
Pt 12.386834729925342 12.181086352945643 7.436756552529298
Pt 9.675505089684902 14.543793635675952 11.110883817490679
Pt 8.677240352493637 10.105670967617566 12.602679080610006
Pt 11.103326795040285 13.297602961806486 9.329438781341924
Pt 10.534403539279682 10.610853097807459 10.70656239902943
Pt 11.506887703040316 9.854137770817555 8.162679968192618
Pt 9.615561305637563 7.716612594320862 11.934193871552502
Pt 10.484126642987151 7.82126654015582 9.366377771421709
Pt 8.364869276393998 9.120985878907348 10.130774956033184
Pt 9.818112786776576 11.72829912198404 7.627283020903693
Pt 8.70051980039151 12.488257041919868 9.895897107856115
Pt 6.76937957418071 11.10575825366469 11.022818718232381
Pt 9.165999995309615 9.090560565066072 7.402295722002256
Pt 7.446697078431841 10.777481861254186 8.4364371686811
