34
Energy = -167.40097673 eV
Pt 14.150249236358372 9.977365944247019 9.318360367272982
Pt 12.940327947650992 12.545431082421368 10.197354215810428
Pt 13.865628216043362 10.767321976300364 11.83939268216059
Pt 13.761083034221507 12.113888741569726 7.67475512734035
Pt 13.224860258882098 8.287525405840116 11.172976049639813
Pt 10.078561468918897 11.117491082942223 14.337432271982124
Pt 11.863901832385178 13.903480598913097 8.229265827518354
Pt 12.442937340860924 7.871132152094704 8.567033971045463
Pt 11.800676586759351 9.6673953123081 12.970115200475153
Pt 13.283779952362956 9.671842793140543 6.813656652662394
Pt 11.689221057119838 10.661875119163865 9.023666497194931
Pt 10.435378729461794 13.48646634951426 10.415950551029425
Pt 10.641087470845658 9.022469224180384 10.7362905163867
Pt 11.358068861079232 11.784035793917056 6.64610005613002
Pt 11.6820452578345 6.275031321436207 10.46577487914114
Pt 11.707519160471179 12.221737510814918 12.479709382302023
Pt 11.581069447164642 7.0413627423405245 12.981078660848308
Pt 9.343875045529137 6.9357549339047955 11.599050473316977
Pt 9.586619664111094 8.449606075435344 13.891857938805249
Pt 9.336286783306614 13.087948963603246 7.954832790619374
Pt 8.795060522669402 10.48884708572655 12.101540994206612
Pt 10.664920771844924 9.232704544224244 7.100271782658822
Pt 9.355939366861893 11.197170759525225 9.700580975948018
Pt 9.177770133492531 12.974922181368424 12.619533231074122
Pt 7.7409874852129805 13.162173141344017 10.321000944508663
Pt 7.413191618495474 7.692560932082568 9.90990946557938
Pt 7.541723178039342 10.122197997249446 14.372489504720502
Pt 8.828105548692392 11.07728611568864 6.305455620040043
Pt 9.81319857671841 7.427481369244883 8.865698641589143
Pt 7.267846517529405 8.432069707389374 12.353161167084206
Pt 7.016349310695714 11.804346542227334 8.118154507545963
Pt 6.672720744835664 11.948254116981328 12.47562079512986
Pt 8.199095988672099 9.397928710156743 8.15767194751919
Pt 6.7831509564634995 10.277696559321415 10.37642283664057
