39
Energy = -194.06544951 eV
Pt 15.138783674463014 13.559158715590733 12.403547769581722
Pt 13.850249594126739 12.925849900468869 14.676665848999479
Pt 14.861569920905671 11.015315413261957 13.309769410663884
Pt 12.817437723161309 14.613888498699554 12.905455340542511
Pt 16.001097490896605 9.282499775799796 11.756978456856356
Pt 10.392216872900335 15.54817313773637 13.51859405376025
Pt 11.304807985672094 13.217293026330568 14.618790797272142
Pt 15.092553760652718 11.541582477985402 10.66765265174991
Pt 12.210150224167055 10.683476448333254 14.012942931596635
Pt 13.539286865793676 8.833396794410163 12.608981638598662
Pt 13.622902268271073 13.659396330422512 10.139094683841055
Pt 12.63192937357437 12.091108384457545 11.89054134917552
Pt 11.645883873653831 15.29664623602222 10.59688938754595
Pt 14.80334864597389 7.068906901366396 11.05264965450202
Pt 9.926155505644166 11.712115717755724 16.15748624956404
Pt 14.685947966892162 9.249130389439852 9.46858891648725
Pt 12.328303262993437 9.964743264173038 10.408069122737926
Pt 8.717911571340636 13.260393084594918 14.435738835169964
Pt 9.498933316603672 16.682174411390022 11.374176045751092
Pt 9.515436169647106 10.660488223399518 13.883627169316611
Pt 13.49280478549734 6.907163693037372 8.776696624464257
Pt 10.34489155148274 13.40344111652517 12.083717789361845
Pt 8.028776973783533 14.715415381123316 12.389080324890768
Pt 13.001636124259958 9.16637650456969 7.470286629469838
Pt 10.933319434768213 8.847729616323532 12.624866222414148
Pt 13.490871277891317 11.552613467755076 8.53818752822705
Pt 10.088875947389699 11.055908283718255 11.109446150664851
Pt 11.33405383448267 13.167017423025962 8.94151862510969
Pt 9.256406164844256 14.501997451888137 9.880041992123857
Pt 12.198128570274857 7.022113517123669 11.145303474486342
Pt 7.788792214802717 11.94504617022292 12.333679595585446
Pt 11.12320293538142 8.067906225994431 8.908711240791986
Pt 10.953874909954123 10.687151556823702 8.121699829657965
Pt 8.213663064431886 9.245276871008143 12.042617483131488
Pt 8.90831950084204 12.065049074946867 8.984265547348228
Pt 6.938605423441589 13.394820530622962 10.342130876518011
Pt 9.630011730238639 7.341864163821226 10.920139742229402
Pt 8.944795004854612 9.397168415766442 9.387480584217952
Pt 6.869052510762368 10.775191430782247 10.238877452312074
