30
Energy = -145.59594407 eV
Pt 7.571544871003032 11.641230145888457 9.45274353701726
Pt 8.25815148859174 14.229453036641713 9.403735792504717
Pt 7.881619546433519 13.074398110286834 11.63784409339526
Pt 7.394770687118672 10.490512279742147 11.815305617642144
Pt 7.888587830064521 10.260364239450759 7.305948278025226
Pt 7.93137641462807 9.111457929266257 9.715889463209626
Pt 7.477800362243439 12.022737614053742 13.95710497758146
Pt 9.402852805489651 12.297957941082059 7.800395110396562
Pt 8.655507720405511 8.221187602327273 12.001988243658035
Pt 9.962852315911388 12.10553926290143 13.108716116447017
Pt 10.333960985898836 13.484012351274474 10.89285378348477
Pt 10.73776040902651 14.39870425387774 8.452601321015027
Pt 8.878112419119846 9.85017167862177 13.980088785754415
Pt 8.861808017173203 7.799785664160252 7.617320936797332
Pt 8.844776868555298 6.607900903464649 10.011458983272899
Pt 11.234089270804644 13.23418433401182 6.227269720094486
Pt 10.467622846394779 9.871825714493406 7.753536678900412
Pt 10.175758873892017 7.675049243631314 14.12891698055807
Pt 11.01553371319295 7.61898995823212 9.04211853694209
Pt 10.852982300541463 6.901977086078834 11.64699960932787
Pt 12.143839375603106 11.82495401859289 8.118462540081547
Pt 11.471237600640416 10.000977090921996 13.382328600407472
Pt 12.773181844051301 13.668578227673105 9.983095096697568
Pt 12.095213493836955 11.852321943601181 11.758408887387466
Pt 12.84516035739176 9.374869244000816 8.552555844548298
Pt 12.68961242071302 7.71020950186589 13.270617266196554
Pt 12.97653089357868 7.933646565822207 10.681318526534003
Pt 13.962183293011735 11.415697016185636 9.937253219295451
Pt 13.78274824566961 9.878428656404498 12.135435452052208
Pt 15.129255120061364 9.139310776491774 9.924120391821958
