38
Energy = -188.40689979 eV
Pt 10.684239789579957 15.298456257493322 9.728497241608492
Pt 12.20503768708212 14.663759174257644 11.800628685825867
Pt 9.660022138431568 13.917651572660533 11.745403863240329
Pt 14.805025955589034 14.572780729557884 11.145435697940718
Pt 11.345297878801157 13.014711900476556 13.687072445045136
Pt 8.87263198620306 13.537696495868241 9.2372192169462
Pt 13.109590193480864 14.431517151171763 9.274242612223395
Pt 11.151446942152315 13.53537841724824 7.798451434400605
Pt 8.612844307263158 12.549348516512481 13.709193200985613
Pt 8.998500031979326 12.288027256613807 6.919907913863699
Pt 11.94458704214789 12.122569164606443 11.034504884077823
Pt 10.429294838180509 10.87661587732792 15.065059629686488
Pt 13.84612082517421 12.744353822710309 12.739992702584509
Pt 7.528048102464475 12.390188818413177 11.285964651400837
Pt 16.09395932492151 12.36256722593473 11.467177838778513
Pt 13.049190878104223 11.953652275723877 8.678089506471542
Pt 10.058381981098238 10.755400460683953 12.453771889874664
Pt 12.56597298726283 10.653645625019431 13.685873382108543
Pt 7.8860904044062865 10.542538735388666 15.319512423994404
Pt 14.910407678699649 10.757794656121863 9.924825007809162
Pt 14.826545136551879 10.201305682085255 12.44253458656395
Pt 9.843672132775355 11.14512563956759 9.881016920429596
Pt 7.414552161409972 10.17556995305179 12.763937179010304
Pt 13.041947069125357 8.299654978698062 12.685109147037622
Pt 11.007050260430113 10.711074989431184 7.576840442312352
Pt 11.70495473937723 9.585703368727371 10.871129883424354
Pt 9.289100371617955 8.653721558876445 14.103735768588477
Pt 13.042332848414986 9.32941909354062 8.649287036746275
Pt 6.9432100666291285 11.977694854869386 8.628464156795822
Pt 14.630870318185663 8.240747677186624 10.554848862839298
Pt 10.489530669696132 8.340419157832537 8.717135610878197
Pt 8.467860529249178 9.860969147239857 7.745310755438176
Pt 7.392665490964856 9.974388376669676 10.200076734925567
Pt 8.790291716268664 8.240995192492313 11.549545421932107
Pt 12.311959067972229 7.0917106179694835 10.33483638118155
Pt 10.813440407904297 7.050202071791444 12.774065652613581
Pt 9.878579586899685 6.266322612128379 10.32057649918404
Pt 7.976326831211137 7.671091165217009 9.101412983272542
