32
Energy = -155.93648373 eV
Pt 10.472051745690441 11.500727355476611 6.185377624984751
Pt 10.276038072688339 13.85323038295946 7.337671142337148
Pt 8.137289937798046 12.123791673563295 7.239266314452356
Pt 12.522342534673891 12.45404747644434 7.770199991749081
Pt 9.216165161581266 9.597293980913024 7.583995250634741
Pt 11.986579104808417 9.62886154856376 7.113106438380843
Pt 11.387526026811594 13.847829360144198 9.717253444837647
Pt 8.674963681967922 13.537720880473623 9.473205484976408
Pt 10.39865924038893 11.479413714099529 8.967971165274173
Pt 14.211518066739787 10.547231316357703 8.278139773958426
Pt 7.842281047113946 10.899572760855564 9.553168721063644
Pt 13.470396714373164 12.043609255134808 10.336651006076892
Pt 12.256432888696612 9.79386172314839 9.792611457013418
Pt 8.38613779173828 8.32047513403718 9.766612683162057
Pt 10.928224217308566 7.867186986946283 8.672189896295347
Pt 7.743789597804253 12.471769570563826 11.713748957235847
Pt 9.851499199874176 14.047278664478476 11.848630836720071
Pt 12.538926670234323 13.973505641844753 12.001790152762554
Pt 10.100828854382787 6.3076915700443195 10.544246480102743
Pt 10.329750926263113 8.947173914156132 11.34646565066381
Pt 7.774770660337329 9.851361625062067 11.962552128971437
Pt 14.041857984291635 9.62989695803682 11.630175252557065
Pt 12.503881719518688 7.391540324735746 11.129577363155628
Pt 8.287290410992975 7.287790279504889 12.249779442803286
Pt 10.271967038509171 11.509063462785644 11.566418243306504
Pt 8.986558842298525 11.404571377306052 13.812654733373261
Pt 12.626596474502453 11.463653286623009 12.830659289981075
Pt 11.023114199177693 13.103357186583656 14.031344771487166
Pt 10.709170968799905 6.56128329798015 13.142719748090625
Pt 9.548246722623874 8.843449852204596 13.9715916157953
Pt 12.118175583276992 8.887329548000704 13.243800160758797
Pt 11.192394465492654 10.630223753287128 14.998336546480392
