32
Energy = -153.32586397 eV
Pt 9.594645067703674 15.447315176522073 12.794376386970729
Pt 9.890333778181736 10.7704465406363 14.722347291334723
Pt 13.712899391932535 7.556006765818302 13.098747238125688
Pt 9.097193026965932 8.152980840600252 12.72664033118184
Pt 12.760053626700357 14.271380872226892 9.484998378945823
Pt 14.113135440450995 10.541491336034401 14.22660121050576
Pt 13.614247616956913 7.499703526495776 10.493102843182387
Pt 10.781033610360087 10.224866101640236 10.512110976951186
Pt 7.972326760593826 9.653349134446655 7.876899911367176
Pt 12.942518397954496 9.772949584532698 9.18242561804758
Pt 11.394737746065255 7.868083993356503 11.63403717407952
Pt 9.273719254608896 11.86438970254155 8.060506879865926
Pt 9.72415467424061 12.989017913103883 13.397100064875731
Pt 12.027308919174773 12.005678206912359 14.05172820790661
Pt 9.858735396115472 12.805513630328575 10.71129745762529
Pt 11.88754094014809 11.908289116052686 8.268306461469715
Pt 8.503497949343824 8.948059771672112 10.271715373171299
Pt 7.725514638567933 11.437255156035615 10.12177679553364
Pt 14.183755102589023 12.68365039866683 12.790131141874065
Pt 13.48945036847895 9.800988511949843 11.87013029597302
Pt 11.89923966325824 14.050297607998592 12.34742359955143
Pt 13.712439990652236 7.716077618825936 8.037270781882363
Pt 14.211486552848227 14.845620648672675 11.454671102540125
Pt 9.764971521089088 8.282648908071447 15.165630669828888
Pt 10.55982492680122 15.296941993018272 10.457588245077785
Pt 8.925618717095375 10.744526280423566 12.313375278292208
Pt 10.509247472161864 14.174507236816371 8.148788585906045
Pt 10.695219372608678 12.622780142515243 6.1103328032917
Pt 9.406030457497874 6.613863451092567 10.688866167154066
Pt 12.74978277337083 11.933625973298591 10.707605439710044
Pt 11.850280012448938 9.17929448626866 13.981660411164315
Pt 6.6987808051226425 11.868123345512219 7.821530848701222
