34
Energy = -167.44474997 eV
Pt 9.17476526536062 10.998353688822869 8.21862656736601
Pt 7.122219953683513 9.367021232087245 8.415383034910596
Pt 6.954120153521725 11.859596368941402 9.322846322483441
Pt 11.122155032124212 12.638148218861364 7.808377325775165
Pt 13.691437569816653 11.678290635960764 7.608237769311827
Pt 10.154300545373852 11.985404825889399 10.552303485963371
Pt 9.627322950086585 8.433908179714907 8.79538940197538
Pt 13.211845482708796 14.240351600173707 7.9078428619341326
Pt 7.0893359713833215 9.864937212435608 11.06860994115383
Pt 11.581193927439896 9.911606840654795 7.908359458592808
Pt 7.561388805114413 7.3971432992895645 10.045401514452072
Pt 9.701174427025146 9.529202708614493 11.1296092052681
Pt 11.324427608868499 14.513566865957175 9.74104570100537
Pt 8.88489382388609 13.609752249026927 9.000308534156513
Pt 7.888925257539634 12.311982651365122 11.772247091336606
Pt 15.184590500107463 11.303716158829442 10.064399986676568
Pt 12.584606529954678 11.424563916399556 9.85669686738205
Pt 7.627850707946272 7.748420038366544 12.625084775288768
Pt 14.062991141838179 9.257431278123702 8.713550908346383
Pt 8.509491706305884 10.232693225518803 13.321441143457463
Pt 13.874811064494493 13.604710823750025 10.35112899667664
Pt 9.925779028537852 7.004141558307081 11.41932364225508
Pt 9.48673468241389 14.46068541576431 11.607979786453743
Pt 11.919142727131542 8.271011431403412 10.036128341923652
Pt 11.979376866053737 13.725289288963598 12.187686717558963
Pt 11.7316725767284 10.758586584916758 12.198405736931553
Pt 9.927384807114604 12.501608961583504 13.419112745251857
Pt 9.817824863407322 8.032175503636102 13.989257397079196
Pt 13.99170693291717 9.318791128690874 11.384343800713598
Pt 12.041765461267671 8.044575816279886 12.656594526179177
Pt 14.0913583371736 12.018469847952872 12.443674066120508
Pt 12.42818383972248 12.414801170930675 14.45803526756899
Pt 10.861539106813554 10.302403348288106 14.658649479828888
Pt 13.472629257160055 9.873135748138397 13.974645693681659
