39
Energy = -194.39244317 eV
Pt 12.320400138834342 15.296494560966199 13.120537520130316
Pt 8.40056065767396 14.122665777508994 14.67828664188212
Pt 9.746889067780813 14.972348174998036 12.480623776065379
Pt 14.209133594588344 14.580265898226612 11.550787854707696
Pt 10.89115814293732 13.389302179259287 14.25386994807048
Pt 11.665052725006724 14.770127028461436 10.68779942977896
Pt 15.975489519753955 13.8352746468244 9.874498590093804
Pt 9.332434145105154 13.589557132601545 10.218382951355323
Pt 7.858884863635297 13.111870506706426 12.37144111465011
Pt 13.162187920241468 12.783195158722757 13.196509071482756
Pt 13.548712930154151 14.125807864378926 8.897030297896377
Pt 9.067253198034294 11.531139486549788 14.695977432632297
Pt 10.182034663991779 11.805877918686658 12.247886396640013
Pt 11.031290630619868 13.948312238940332 8.260541880387104
Pt 15.33454555821412 12.12202639232604 11.780940899669154
Pt 11.76851684702314 10.890809388869828 14.471129890537142
Pt 9.695704610054522 11.634729410250056 8.40685659626561
Pt 11.782206883914906 12.054178528935184 10.153964855747258
Pt 7.768614385768733 11.50637733446556 10.302959498208764
Pt 14.063354452826838 10.374386120518222 13.23683740952308
Pt 14.405357583645618 11.737280575865912 9.439215229115522
Pt 7.811259559715798 9.90672827842037 8.27889426202001
Pt 11.947763499031485 10.014831331241524 11.741366367018328
Pt 7.582370216199056 10.440921354545043 12.746406273751935
Pt 9.46381444201082 9.533271690066693 10.960932090563018
Pt 12.268540987819792 8.303523002344765 13.747408688445052
Pt 12.50855186925149 11.808791308965926 7.582363107918003
Pt 9.796090464604601 9.203007739846324 13.697864280097011
Pt 14.91477773161087 9.60047385541283 10.870221851551381
Pt 6.812794444976267 9.05370702807627 10.702012529134164
Pt 10.976439071300165 9.635698784990197 7.354398356863247
Pt 12.924945536667131 9.652528323808642 9.073843294436791
Pt 10.498462654998981 7.2812053727110655 11.949956426137827
Pt 8.553825486352233 7.090871620261645 10.225315778919482
Pt 14.738044826911764 7.850077997566296 12.904641128603112
Pt 9.095084446470276 7.85233710447952 7.589627914159399
Pt 6.6186496685014875 7.576122147504924 8.536970586067838
Pt 13.002427208817918 7.742976079509607 10.985741294608607
Pt 10.955456095522422 7.949843604815264 9.398631510653207
