34
Energy = -164.27750742 eV
Pt 7.525408706025084 14.114744228270578 12.861584911899245
Pt 13.577080005460202 11.374504594067814 8.123070622978487
Pt 10.625180261507467 9.388315795862363 8.979140337883136
Pt 11.179088269017468 9.398302822689548 11.51947073686482
Pt 8.768730106976657 12.766309039966966 14.740340695093858
Pt 11.906092204805432 9.904081438011065 13.9742373660999
Pt 14.362284293861718 9.15337284127076 14.548512122185171
Pt 12.494514055108715 14.907944771904209 12.83038356491283
Pt 14.00139226886959 13.648378493522806 11.23663079148964
Pt 15.172358830259142 10.27398566371566 12.235742115786763
Pt 8.585958392712316 11.710767733522205 16.977074494405294
Pt 7.648942010841647 11.4200525125402 12.758283324480193
Pt 15.745333497379805 11.373241384222489 14.696089575859235
Pt 13.853555401505481 9.63582454727457 10.04303620175954
Pt 9.828468325303557 13.03622470650801 6.54252065923183
Pt 15.348959054046523 11.765872291556573 10.069013128518318
Pt 10.05475845955816 14.364952184785333 12.794065916667224
Pt 8.908120272209727 10.295702735192007 10.752206846289921
Pt 16.301351221469762 12.592180266089395 12.401182741344734
Pt 13.422550397464594 8.296761923445622 12.31789086202584
Pt 14.11602129819261 13.127007107541944 13.813770479112232
Pt 10.293115459629323 11.648954100192302 12.618262428542481
Pt 12.838303039828533 11.482835357077535 12.153578023216372
Pt 10.712413670786685 11.130725076825755 15.87535771894189
Pt 13.30036394228002 11.36075623591797 15.749101724394677
Pt 11.629594487276908 12.952522228050961 8.351372165476027
Pt 13.962682014728248 13.835739565990412 8.71429799650652
Pt 9.372134328859602 14.256970303744904 8.740177908252553
Pt 12.301592448462472 7.573988894666511 10.00060020875063
Pt 11.578025404758213 13.107732735581996 14.491478708153098
Pt 8.708945129339542 15.444223158187809 10.886058569881003
Pt 9.403257649562715 11.570476383579278 8.565897935642312
Pt 8.470275625532027 12.847119041522461 10.71711507451918
Pt 12.779068848638657 9.015349218960901 7.6983734250933225
