31
Energy = -146.85472036 eV
Pt 7.227532521148614 7.61822773670488 9.481196932208455
Pt 8.666741397068725 8.844017838402996 7.710681353954904
Pt 12.629649146010028 10.623359138006224 12.426153314303672
Pt 12.511958190635024 11.69178815422134 8.259838529575847
Pt 14.358853765820935 14.748396204335497 14.531824596096383
Pt 12.223355295083676 11.047122867040283 15.999232777107345
Pt 10.614660357569859 13.474612441227213 8.621548926657823
Pt 12.143233126344679 13.326072450667645 14.642335732387044
Pt 11.717931566413643 9.099942356006629 14.314187444237179
Pt 10.486153416752423 11.425742349694456 13.951374348908221
Pt 13.367724116004133 13.745093987400306 11.138635239960408
Pt 8.407180419335985 12.603205973011521 9.653582132861533
Pt 11.55479577451119 8.794367546397524 16.771291074349044
Pt 10.039923745325513 10.913798734118945 8.22143222487293
Pt 10.559304773856526 13.642717167677276 12.600302737840515
Pt 11.38644423005369 12.003186038239408 10.678296817869786
Pt 11.165048097670118 15.075763337581881 10.547475766930091
Pt 9.798696205733954 7.827481570254013 9.785474307138143
Pt 12.459798263079042 15.402382041100376 12.84112393198617
Pt 14.294441900198462 12.467832596644469 15.817302202374611
Pt 14.494430535013024 13.07917680778234 9.010247656092487
Pt 16.24140888230725 11.293677880562779 8.857211575816942
Pt 6.393186812545066 11.855428550362475 11.043303957286028
Pt 11.802859811843872 9.417543878697836 9.575236998918387
Pt 14.614710072799088 11.179801171679289 10.964562169316203
Pt 14.238261660419903 12.476315799284382 13.19118971891344
Pt 9.369739536197523 9.967425570285458 11.052979537732657
Pt 11.194196138947614 8.463944009531406 11.956692082221531
Pt 14.181622224012392 9.808045557856842 8.814496165145695
Pt 8.627060017336857 12.066026014166239 12.258614320575035
Pt 7.397246560040089 10.185652791135993 9.450323986440228
