39
Energy = -194.52860708 eV
Pt 13.48182721873106 8.426213159524803 15.74648721447003
Pt 14.74782726519427 10.210485400519044 14.419152694413167
Pt 16.022992147765958 11.98838823432311 13.071845235033072
Pt 13.836694674924317 12.714818319483951 14.326789038027782
Pt 12.225912265391054 10.769245544331387 15.38680156399031
Pt 12.837482811403051 14.90664958787152 13.268121708697787
Pt 11.164070642922326 12.861528403869203 14.065092374809616
Pt 14.960122611157791 9.965242556215188 11.770783845855984
Pt 13.744170467731289 7.892964556756606 13.19652449031988
Pt 11.279738244015823 8.29478455969254 14.377193982226087
Pt 15.0399668779073 12.392165665188358 10.706834701862006
Pt 14.479845980671028 10.276253461923913 9.159973606847956
Pt 12.289150752507846 10.278690627528524 12.854052158735053
Pt 10.353239567232851 14.741586662308528 12.350430228888484
Pt 9.798084036246127 10.60905934551224 14.306257728659395
Pt 13.752960967642963 14.65698776439727 10.622569857943315
Pt 12.051468804617011 16.496815552816 11.331147381334416
Pt 13.965823372415981 7.950733236663327 10.593313792323784
Pt 12.756724959362671 12.613165455186875 11.932838617252692
Pt 9.681867243148933 16.31055955979498 10.220459309251016
Pt 10.569425707292913 12.757723440273379 10.525456197387202
Pt 11.571202696458613 7.7574223415019645 11.687828886484368
Pt 8.184167116415232 14.324531915486858 10.876397424507577
Pt 7.529823622832 10.290792116014666 12.876179642433225
Pt 11.560942918738007 14.78205327158488 9.178209817961914
Pt 9.198758667879474 8.24932579621603 12.883803971348271
Pt 12.219950130315148 10.555998476626822 10.297718576001003
Pt 8.790902820207162 12.687800249732174 12.891127706096178
Pt 13.259294140028898 12.770714050391405 8.815074864895774
Pt 9.953718278851616 10.439705009862168 11.58829941224734
Pt 12.332192125832258 10.52721291053705 7.562825297673005
Pt 9.090783295346137 14.616137667677025 8.272763969727407
Pt 11.860253732260952 8.334534549490327 9.060388577752649
Pt 10.710922906021107 12.554053712109088 7.8296602297961115
Pt 9.455317415443211 7.998210208922742 10.181002275543756
Pt 6.776980976815865 12.196083061284016 11.207435181597319
Pt 9.87732184832345 10.098432507062189 8.613682269348404
Pt 8.351228739822028 12.269906561117246 9.080803369044592
Pt 7.775656076759722 9.977193329815659 10.249163093629635
