38
Energy = -188.0142771 eV
Pt 13.105656669589727 14.989616967437104 10.736161064070277
Pt 9.706611670387966 14.60998824235448 7.836184602906117
Pt 12.300413770422342 14.125221807044493 8.36785168881717
Pt 14.475845695153152 13.072059126740935 9.454387981373712
Pt 10.537905944685006 15.185259298151212 10.223900483220591
Pt 12.582725697331446 13.217952922513959 12.692145253682577
Pt 10.43236702388875 12.153499207950906 7.689995737631419
Pt 8.54569764137226 13.471229303603618 9.842580394730417
Pt 7.73640372364717 12.358243485133931 7.712994896672859
Pt 15.066779612326568 13.78570598159666 11.924415815193615
Pt 12.983089883124434 11.612240574739698 7.933274671875535
Pt 9.481744753323373 13.692213661345544 12.227839324713505
Pt 11.342225885946979 12.488039896993993 10.233499137907009
Pt 14.787922080018992 10.337913089226184 9.265461059652235
Pt 10.839715606529216 13.530529478418675 14.497356778234142
Pt 14.046137493569727 11.412508076523848 11.478523068669741
Pt 6.62986780495252 10.865070604974136 9.563984340112428
Pt 11.349293477075387 15.518137279178372 12.66583634318811
Pt 11.28003475331558 9.682379413230505 7.646779206702697
Pt 8.920331831141151 10.19644971661338 8.604561404697376
Pt 12.216660690461568 9.94081314781331 10.23985498791104
Pt 14.299357174036585 6.333870495103457 12.183750668526596
Pt 7.652337215026573 11.904403220747328 11.6960845343045
Pt 10.23764690048113 8.119919833097084 9.488938186059533
Pt 13.955768897289273 9.031339482333374 12.583511022428599
Pt 9.840247594692165 10.592351666845957 11.109925557485717
Pt 11.857312456693247 10.661620898083505 12.923499868794645
Pt 11.309421705700528 11.175431771355852 15.443226882301325
Pt 7.9415192197164615 8.631469711537003 10.596406427954433
Pt 6.0105546009797335 9.834539534896317 11.879559366586076
Pt 12.244238343267593 7.281516352049646 10.786961927751682
Pt 14.700240810719674 8.063555226360327 10.327461668665682
Pt 9.321557812010036 11.524773256080438 13.725835438069167
Pt 9.929092120157323 7.574145864939378 12.027496528760102
Pt 12.956239911531 9.173081844204418 15.021208332998773
Pt 8.190440268959525 9.265038196261902 13.173643859811364
Pt 12.221222219333399 7.201632864880009 13.411666321782391
Pt 10.46543811227933 8.886305570776095 14.28330223689405
