34
Energy = -167.26115477 eV
Pt 13.334135106863748 6.878948215773207 13.184193859022303
Pt 13.460017993690359 9.485995735494866 13.001480053646727
Pt 11.590080010040891 8.340286541041948 14.541683118770079
Pt 13.150469865131296 7.891997715202215 10.737933632284953
Pt 10.918947720655163 7.180267214571294 12.239236229185398
Pt 13.842996034225035 10.4881817981797 10.58890854862867
Pt 13.103134833463885 12.028303491278674 12.61390542731561
Pt 11.188010096783142 10.92070453031292 14.124438609160974
Pt 12.766236949263591 9.06229965018393 8.488660686669446
Pt 11.230032382275157 9.70932132435145 11.628965041925028
Pt 11.665635763043428 13.46215972701673 14.293711891030624
Pt 9.274337885992496 9.258631686900594 13.53120437819351
Pt 10.707558397642158 7.655460614471269 9.646498126855278
Pt 13.766494748945124 11.45766455556009 8.151890343619572
Pt 13.820490463451776 13.106618938566232 10.245357167905038
Pt 8.645824645045225 7.943304101389276 11.273376263562671
Pt 11.478486318405189 11.889375175169713 10.241764623699169
Pt 8.340438953682813 8.16115252805328 8.610813699415147
Pt 9.592032167612143 10.21930958110858 9.66786261226768
Pt 10.016641970074465 12.685092022237011 12.437663140263549
Pt 12.398633889683856 14.553072983561092 12.102769332142302
Pt 12.807325818031057 15.499448865914186 9.74137104427473
Pt 8.154622359493974 11.004571532775996 11.84664362813895
Pt 6.803406075239174 8.959239581422603 12.854353856505815
Pt 12.028313495497821 13.518031441488624 8.165531702825193
Pt 6.280228507819809 9.59831480585895 7.796990403019944
Pt 11.214930627070425 11.09300575313002 7.584527812520328
Pt 10.549525973984665 8.581441517299707 7.187580744574068
Pt 8.206766131090404 13.376292649288898 10.680352931866981
Pt 10.498598465625577 14.43050571513797 10.293946044706477
Pt 6.489158161602907 9.242745932455204 10.341305691759787
Pt 8.692885074708206 10.528806822985121 7.147361051438162
Pt 9.393243799835982 12.895426534011138 8.38581710668819
Pt 7.231319050192497 11.54883147814171 9.21799837574921
