30
Energy = -146.0523993 eV
Pt 14.664586645232859 8.18987195875618 12.389899701036544
Pt 13.948574295034032 9.236652412690123 10.13848322401441
Pt 14.147634683715793 10.790317523672861 12.311008573353634
Pt 12.575656317961396 7.1232357819834435 11.209854550355738
Pt 12.383479064785977 8.990714927367634 13.292297642438038
Pt 14.562530695092935 13.172909276974147 11.68729271829403
Pt 13.072963406491425 10.247085756021288 7.907839359913469
Pt 13.073227471941232 11.902020992272833 9.933746061917876
Pt 11.399636449678605 10.02892627242647 10.767250200774498
Pt 12.115245514266359 13.767024381503273 11.657379838833467
Pt 11.756070500113537 8.26960913546051 8.909297607466534
Pt 10.30468345767536 6.5186787828835975 10.140251908717461
Pt 10.179396525934362 8.080509430860728 12.164271245046306
Pt 11.62038735511146 11.587995832722562 12.84574599049891
Pt 10.070902458642292 9.876212939966894 14.031855178997233
Pt 11.677860192749616 12.475132869503659 7.84456949464916
Pt 9.360525475247345 11.50983917567864 10.293601392500415
Pt 6.53011796007798 11.685542220979713 11.547327305462808
Pt 7.913144622619798 7.448818350421904 10.89404738202357
Pt 9.05700895898586 12.083063685469401 12.784261932387922
Pt 10.455234957400203 13.76556621796477 9.677873483980324
Pt 10.49966959186914 10.129391157179867 7.492247250201591
Pt 9.649887425390475 14.48516499445017 12.098585572599811
Pt 9.04995931984769 12.373827495919592 7.89413528522956
Pt 9.070187874427214 8.205985052916105 8.593680758575541
Pt 8.105899318312238 9.689438053684261 12.316287864649375
Pt 7.869124712957707 13.592659498236626 10.356174488798116
Pt 7.392075540911884 9.768378488179486 9.85024094482265
Pt 7.893705368591084 10.072058840512328 7.23016272277177
Pt 6.618378985856757 11.951123640263257 8.758085466611258
