33
Energy = -157.70336104 eV
Pt 8.698733726569886 11.82788553729137 11.239246883115287
Pt 11.953407956554049 11.973367726077687 9.761018936759212
Pt 10.44717437019797 9.962583778934084 10.3446418119243
Pt 12.640873497407531 8.192568115725804 10.20836700710459
Pt 10.2281161836891 13.920078021551566 9.894428533111078
Pt 10.918567552274405 8.249324237240712 12.208224036002134
Pt 13.68433309747198 13.329736602957812 11.666139859099076
Pt 13.771131725731403 14.25354591101309 7.121858433546222
Pt 8.592561114773947 8.1803773355476 11.09477255643303
Pt 9.549677531558753 11.829467702802159 8.496819424914964
Pt 8.1135360245417 11.651360236676274 14.74516833382436
Pt 13.870318569570397 11.836014073967128 13.919568392614806
Pt 12.958669931998287 14.444278900968293 9.461541552438527
Pt 13.395654702738073 8.30311313450859 12.822517666197594
Pt 12.317117294346293 12.29642680944201 15.876875611730227
Pt 11.399710318967111 13.243238492249889 7.506089583385683
Pt 7.270469282374606 13.209475865745176 12.936150904149894
Pt 7.286538233987686 11.437098115866606 7.573168703960332
Pt 11.820299929119066 15.083981340550315 11.663249652603138
Pt 8.450048634894292 9.789182220749932 13.063013614207673
Pt 10.284415445528293 11.592192593365146 13.345266685155128
Pt 13.919942035793579 9.455066558675904 6.326358515842826
Pt 9.577397854959193 14.109337028206333 12.413425238383198
Pt 15.614779070738749 11.75634373703604 12.084038126204074
Pt 10.02164231177486 8.519246963393806 14.670947680705419
Pt 13.390386491858141 10.088495644295518 8.684939234642727
Pt 7.822006509015675 10.086176246222392 9.569379767740259
Pt 12.339118884210254 10.796868751299476 12.056714232033642
Pt 11.839211589181138 13.614538430734575 13.772242520797159
Pt 10.335663932898413 10.727671514663237 15.73008120739969
Pt 11.834146076807682 6.839869244173332 14.197147369109425
Pt 14.477718292808866 9.8177878819127 11.008816675028774
Pt 13.392873673970987 11.799543094467651 6.754023098148439
