37
Energy = -183.23511941 eV
Pt 13.659973391768313 11.36358311872539 7.043881434222341
Pt 11.548568457521613 13.05505050532792 6.77707091657062
Pt 13.056572705076935 13.230473038953944 8.892526617390693
Pt 14.53327696030271 13.153249162057444 11.105906035057338
Pt 14.337241368359726 11.075767603252787 9.567661381543864
Pt 10.576312102579305 14.470741724653688 8.81428252550846
Pt 11.236944211741486 10.523239235722054 6.99329733484899
Pt 12.23645782268049 14.36439446081096 11.046717457532356
Pt 8.972646017938121 12.832383819159654 7.4269205865767445
Pt 12.973057488607672 9.154975114022799 8.398436714777683
Pt 10.708304637764119 11.953259818465712 9.372458166942234
Pt 14.510007894702788 8.623392762326905 10.538964350523042
Pt 14.036784227589846 10.73593581371168 12.182362897251593
Pt 9.805390559019427 15.085155152976377 11.193013530046517
Pt 12.884234521413378 12.882032528354815 13.094300683834804
Pt 8.750906061924413 10.222694889000131 6.922329389517804
Pt 11.289551096719329 14.956525237107737 13.426980645368012
Pt 11.877213073455952 10.18963038275665 10.79211379099817
Pt 12.213734562551585 7.4289801167388525 10.176757781569908
Pt 12.83590194370756 8.401968605004791 12.604158182957828
Pt 8.71500657027869 14.140841703463124 13.442820468892839
Pt 12.250886580097301 10.555421843924298 14.152316000119857
Pt 10.330905232294434 9.078668949572242 9.044703632352421
Pt 8.60814254733553 7.675008928220016 7.615576165935303
Pt 8.949003289904343 12.684255584040823 11.298101577264374
Pt 8.213607130919717 11.152248990162906 9.303354035389955
Pt 10.66209436720004 12.67036832739632 14.454066227195403
Pt 10.170813420169988 10.66695962637635 12.608778621485643
Pt 9.719371598237208 6.658241497596587 9.91410787163358
Pt 10.993821974504478 6.412129247880989 12.2610676737655
Pt 10.659367492390318 8.338143787456907 14.020801625354014
Pt 8.101514008852373 11.699857612424191 14.045770261255205
Pt 7.80728236324065 8.627247450000413 9.818936286707226
Pt 9.913959004014691 10.380518125143094 15.504622253670066
Pt 7.739047657436836 10.352429783178287 11.760129174485774
Pt 8.95295007142374 7.980407744882717 12.052750392461066
Pt 8.026909554522081 9.081579677397931 14.189719277240252
