36
Energy = -174.93458115 eV
Pt 10.242725119020498 8.333799928703423 8.540218834768702
Pt 10.215929453502675 9.062200596361652 13.6950728124337
Pt 15.661967836883145 14.708857010036278 9.705609840212741
Pt 15.226435974131752 14.069402657085984 14.024064146648033
Pt 7.518647461448868 13.385435499170809 12.922926975044316
Pt 10.513540034263722 10.828239851706282 9.099527586532343
Pt 11.651149418424973 14.386466993277262 11.415408516867043
Pt 8.060239010255993 8.901135986572497 12.422258048193552
Pt 11.16416193709915 9.524559300040993 15.964321055470219
Pt 12.677618212824047 9.407148410777426 9.95660400387744
Pt 14.19924796196976 11.76728067326407 14.239739198789735
Pt 14.724388086475926 10.853954337585641 11.705671851211468
Pt 8.235604601546656 7.770606109525264 9.97451168903803
Pt 8.577067861582838 12.236419903486912 8.08599853029154
Pt 8.275528985875297 14.68332773350235 8.765073748976684
Pt 12.675649781798906 13.875588700083153 13.808970000846987
Pt 12.274540367640636 10.193512100099204 12.479121587762625
Pt 9.159465089392043 14.295702698574917 11.154188647727914
Pt 12.615828639699934 7.7698616624432 8.11030901273607
Pt 8.017762314865372 10.313322915307811 9.767023655372057
Pt 13.352777166486172 9.396782967206894 14.726140441316446
Pt 11.415493725579413 11.660566587474536 14.539052410061569
Pt 12.445433389800598 11.953110016103064 10.586581696338682
Pt 15.649035635639988 9.695856541151194 13.75225774049848
Pt 13.198370434382316 14.144452279458537 9.266118364833437
Pt 10.40004904168427 8.907681560736393 11.13483557208786
Pt 10.692784977925765 13.4812641196051 9.10900199302029
Pt 7.242309776866264 12.798088558869523 10.280666877469681
Pt 6.043910828959888 8.92521358007991 10.799390664555158
Pt 15.08693572696773 9.728966784695723 9.391245053240658
Pt 8.929938127815287 11.276601641313576 13.513262141664852
Pt 6.656524515825325 11.117106914063864 12.107005478055187
Pt 10.132330587001412 13.596017087413419 13.421741573661603
Pt 14.27314377838963 13.969277317314784 11.708741777618162
Pt 15.129737192297108 12.234019567444594 9.591901296224032
Pt 14.996009421967635 8.080453885755238 7.5677196528441835
