32
Energy = -153.19139887 eV
Pt 11.116135528053649 10.139913022117684 11.846439717298459
Pt 11.616131041501328 9.878498039268889 8.159635752503664
Pt 11.494896990561761 13.524239178164809 6.248144258958322
Pt 8.01861152829025 10.886193541775613 11.790039132265118
Pt 13.75093974218123 10.280970217678481 11.589619278153505
Pt 14.133046708062134 8.552738838639089 8.011935812473697
Pt 10.914575757534184 11.704950706062258 15.106527626975119
Pt 6.570778235820074 8.848751767729397 12.571537113100975
Pt 9.624794654327893 10.44168956155554 9.800120010884203
Pt 12.596941791896784 13.058265180481266 8.387621580426764
Pt 13.876608854518784 8.00221494053035 12.962750920818408
Pt 8.877836042854447 7.852571820626623 12.566933543803438
Pt 14.690086693850825 8.171057974011099 10.51954774591317
Pt 12.32643914468706 7.943029187458735 9.712927874599943
Pt 10.416306984868175 15.795495801568723 12.132228411240924
Pt 11.533714459318055 14.342387649637773 10.325592004413584
Pt 9.544577660528565 9.895985443781875 13.923233367001657
Pt 9.777094772524174 7.881707689046013 10.145328134625602
Pt 13.830658979604848 10.894812777872609 8.99606801584059
Pt 13.642413660273792 12.730638552397203 10.766067955512755
Pt 8.128746339650041 10.724879626908699 7.650146836252375
Pt 10.244097161472508 12.134206603373633 7.919351601261043
Pt 12.9201461669589 14.58603621861276 12.506241771826176
Pt 7.872066317605177 12.438020392444605 9.601331794542057
Pt 7.147574045037693 10.612400961663266 14.224238042342611
Pt 12.568480252150254 12.06734400655904 13.097158513903379
Pt 10.01307385527172 12.502320418451973 11.463536996096334
Pt 9.502880214796022 8.551442646453058 7.65736517524599
Pt 10.58664183244663 13.754480325708448 13.634982006314239
Pt 8.957944578912365 14.584206350513755 10.359592406049009
Pt 11.4724805131941 7.565559144805235 12.128622222749257
Pt 12.184981988513151 9.604693911367463 14.146836873874678
