33
Energy = -156.93705878 eV
Pt 7.859886760889594 9.83094443708537 14.728804978814312
Pt 14.30773376794706 11.81329256481422 15.059619772326169
Pt 12.776466722376988 11.448239129700456 7.917871681057366
Pt 12.568710365376225 13.67934926882858 15.166787443268612
Pt 11.276467536155803 7.562118877583011 10.340173899963691
Pt 8.076283249403385 12.135911827143435 15.729673036694788
Pt 10.388775330335422 12.415777547160612 14.725579515256308
Pt 10.147283588080887 10.00569291819948 13.690006159874507
Pt 14.35173467216663 10.26829206534435 12.043872871621003
Pt 14.461665958244554 13.188397668727877 8.307414194362408
Pt 9.343026122498477 9.248982416563623 10.539923710789623
Pt 16.097630954374313 10.421766162601667 13.92896561902617
Pt 12.398596559968828 11.374312660755374 13.441126522572468
Pt 11.982835193981323 9.814045583821427 6.23785185595938
Pt 12.122089467010213 9.007862506004084 12.341022587410345
Pt 6.093524697067093 11.930702910746593 11.936249592446556
Pt 16.461884045166475 14.66960977139236 8.886034480879314
Pt 10.64025832154092 12.600704207774319 11.859228014492375
Pt 7.333322138426796 9.686345484466926 12.185116663880875
Pt 12.831131993807858 9.925364318955186 10.017831016126605
Pt 7.596089189341665 7.579909442099194 13.597732887159435
Pt 12.38869239231644 15.1795815000909 10.557506973581924
Pt 13.023723367481333 13.894975865715187 12.65577606886983
Pt 9.869695658759337 7.67518095623358 12.551238049992127
Pt 8.294779224809375 12.293036427318892 13.188661693549946
Pt 10.86154896992388 9.063830338011586 8.29466183633897
Pt 12.724366211812445 12.638230220982575 10.270992460051685
Pt 12.042439825896746 16.91818196640407 8.829588997926285
Pt 14.962475492167894 14.111383823835313 10.856828746563858
Pt 8.30427364787008 11.64876363307883 10.683414370694768
Pt 15.274843138563364 12.564421462860478 12.776007123989906
Pt 10.578535892204242 11.315202884250048 9.575013235801768
Pt 14.165698294072184 15.696057901488858 8.685892688694192
