39
Energy = -195.62164419 eV
Pt 8.997931342055782 7.044776409670595 13.261712548800046
Pt 7.233833518881685 7.221926525685644 11.332075179305681
Pt 10.050798401312788 9.268111193262556 14.283237063121573
Pt 9.90663381207252 7.109851370811529 10.750010932248312
Pt 12.647352390500844 8.829136716769732 14.766034133423844
Pt 11.542188921411794 7.5577956167538325 12.77791236814018
Pt 7.907163235858145 9.43603009214783 12.756994640644674
Pt 6.097364601118029 9.510219406243156 10.784799729878994
Pt 9.376150655465215 11.620113788820968 13.263082948940394
Pt 10.312860160788516 9.583453300821397 11.537499082206665
Pt 13.701017454954068 8.960109133672436 12.356942469284593
Pt 14.363484976423555 10.75354521051656 14.230866440726576
Pt 8.223105429976851 8.7469073797473 9.458342841581343
Pt 11.763652211234085 11.250705411792346 14.2472061376696
Pt 10.558642720564345 8.153265351950251 8.416671361624973
Pt 7.266810327802094 11.73024005633015 11.60752271201782
Pt 11.02001755127768 13.655902088262627 13.378107918001469
Pt 12.507747247816864 7.682043007735335 10.32667054856195
Pt 6.972485409728223 11.08932792282968 8.923444140530004
Pt 11.685402713511088 10.302120582167229 9.493688893199536
Pt 8.90327698521444 10.096212933527694 7.351429156845186
Pt 9.41414035830622 11.450812979395929 10.025813271109781
Pt 13.191549642957934 8.359635398179066 7.8015213159953305
Pt 14.209663706900114 9.645837450911364 9.869572470595648
Pt 8.994240605868265 13.744889602369799 11.697192899802621
Pt 7.243094961409055 13.640027844810652 9.725104239010399
Pt 11.6132800760527 11.968497055109218 11.429330906570058
Pt 14.29845795350428 11.464335617469269 11.730559873743545
Pt 13.646952498539468 13.150222316027207 13.705901158710697
Pt 11.33286306033229 9.658343289236278 6.417392016300041
Pt 12.881933351511096 15.48081660614688 12.912401372059831
Pt 8.172261161943842 12.711255573289172 7.357896595878729
Pt 10.719504803074557 12.052421926988501 7.303497233471108
Pt 13.206231351857777 11.091185099732918 7.545926567302513
Pt 11.316782625368957 14.808236592895069 10.893107886401921
Pt 9.826866431385257 13.883330483633712 9.009467552787887
Pt 14.747626319082 12.226410711305082 9.330426200801593
Pt 13.937012701314918 14.012529477632668 11.058182131395057
Pt 12.358009594642583 13.197809747367986 9.030846333330203
