36
Energy = -173.02268483 eV
Pt 8.30199094174465 11.7947814645998 16.350455836434804
Pt 10.89045637760728 13.656297998333647 13.08860084305992
Pt 7.332863996968994 10.223334054143205 11.511989913523625
Pt 8.919500604010464 8.264537531144068 10.859712119789057
Pt 9.044042831202123 11.995903467219115 12.233968814808016
Pt 7.932628170750207 11.642343621724732 7.130643837454344
Pt 14.287005084740867 11.847620404634382 10.752890298627168
Pt 10.245038604756235 10.587318092640517 7.116698083417468
Pt 10.557805511860373 10.570744167590243 10.604021915837208
Pt 10.754968785352231 12.391980866809908 15.485058295969587
Pt 13.418352475610188 13.144358516971252 12.85751650161439
Pt 12.036387155491147 9.871732309876505 14.726014373371013
Pt 14.454305812689942 9.917645744648603 15.481179611400846
Pt 15.50747462225436 12.993331932932543 14.372997236298687
Pt 16.398802811309732 12.558333553915327 9.377007690620113
Pt 10.58809547015096 8.560777836527599 8.962105445305683
Pt 8.008173180625672 8.55229737477991 13.359629005203438
Pt 9.877399159868286 12.965270765345629 8.07414399263779
Pt 8.639708240285373 13.438704203645726 14.370497537490706
Pt 14.631914709109083 11.080052142071382 8.280833213401394
Pt 10.572589838433966 8.960642571361564 12.780620395398959
Pt 9.48728460584421 10.215468476457637 14.729527083596244
Pt 10.394550257113602 13.302196954054459 10.55959877378161
Pt 11.773404401205784 14.611259192339485 8.684081919375128
Pt 16.75081338661495 10.840691801382588 14.905235825464327
Pt 7.190390873642538 11.158172206688528 13.97042633010256
Pt 10.928178561414814 8.192020952198567 6.446904816021045
Pt 12.41040733013125 14.85316022105884 11.306538939160315
Pt 12.133503161286425 11.867842501830847 9.080107980563767
Pt 12.579345843037325 9.718261024168664 7.647547113937774
Pt 13.237148094474016 12.153662733227554 15.258669919147135
Pt 12.530322508650702 10.581413023000284 12.277325603828348
Pt 14.949031178611119 10.78827468599836 13.012960479213
Pt 8.333010258790996 10.198502494871493 9.17087546750998
Pt 13.813648202249771 15.978620176375374 9.537669215610949
Pt 14.195477544357948 13.628465527678623 8.741966163271067
