35
Energy = -170.22351005 eV
Pt 11.465822218580122 15.803009625218792 10.991059312610515
Pt 13.93495743495907 9.115915819067771 9.219048654385796
Pt 9.487066346073714 7.391398330447276 9.133645140787259
Pt 9.943035978241824 14.267944154843802 12.305434816285436
Pt 11.577049024252208 9.822669483421205 10.235755406779242
Pt 11.925287622773448 7.3043422524966966 9.677364168222105
Pt 7.665504709753667 14.781153028704798 8.495397269415927
Pt 12.101572394344057 7.298474025400337 12.233242808007617
Pt 9.407457416374166 9.90471294903182 8.71572038868017
Pt 16.000153503706574 10.573394137066579 8.869034244030793
Pt 8.10621361989116 12.523308095326465 13.048433399323923
Pt 15.776631076716999 10.81354218448955 13.88770251360116
Pt 9.128952240114886 16.61035281877039 9.928897614872609
Pt 15.855784054478017 10.719660050020114 11.379817712300943
Pt 11.470805099339016 9.670473268470456 14.304478718047188
Pt 8.504636054726989 12.27128505187876 8.581880456753021
Pt 11.157904654949487 11.989277940736503 8.720279477672463
Pt 6.796893949389714 14.47351581036127 13.811769415667506
Pt 9.277569439136574 8.85141695685986 11.19754132212385
Pt 7.616400765379537 13.488201847596066 10.682027836713065
Pt 9.90653027284548 7.682724738114359 13.428007286433033
Pt 9.040671191781787 10.13301842547504 13.377608810997375
Pt 13.686217809802942 11.634697022061577 8.60157084948932
Pt 7.882048390723596 15.66405989916994 11.91724846111641
Pt 14.208168010183076 7.019328406949311 10.781235302462253
Pt 13.903111548429859 12.254946048676022 11.06331621281844
Pt 14.016857549167606 9.076232685029336 14.445377365432872
Pt 10.819598095591124 11.983929967738558 13.356811162999499
Pt 9.70637078449913 11.662365573677222 10.995769361718857
Pt 13.713729322313519 9.349355902032714 11.883864168752787
Pt 10.095091202606532 14.32400001950646 9.28337063532297
Pt 12.48308312160293 13.809013458864776 12.510150418183276
Pt 12.275028044621749 7.228820527745743 14.777538648402787
Pt 12.67154715326288 13.919184380175464 9.584689562947098
Pt 13.319391525948104 11.5114167411355 13.50205270320266
