33
Energy = -157.75600822 eV
Pt 9.337990676839754 12.35940613181324 9.054561518012306
Pt 10.61340852077606 12.273530694018413 14.841245060365539
Pt 9.802366211417949 16.462032175530982 13.043347480423382
Pt 10.721781162649302 12.487322850586768 6.8837018653165245
Pt 12.65189632373815 10.28080003624578 17.679578270658446
Pt 8.459706242717612 9.530165257175748 12.584081630435826
Pt 10.180655541359231 10.704372648517536 16.813902857438517
Pt 9.959671094156489 11.702107186983728 12.375952712387528
Pt 7.832611553961362 11.728552587203906 10.97990413951522
Pt 15.054500108663596 12.799573175920553 12.587219869062373
Pt 11.903681312051456 9.491261548000772 15.333495234551586
Pt 15.03578480457437 14.402968889417915 8.392685475764916
Pt 10.925282766761264 9.279816690907818 13.036291813494797
Pt 12.467965874138942 12.314981019391945 12.945237352364087
Pt 12.095861172886952 8.75866186227632 10.851885751930903
Pt 12.992875539719435 15.105951805447045 9.855542343823448
Pt 10.606401375147863 7.915610031791556 9.011463922970183
Pt 12.58128925340554 10.852894461982162 9.405156412887953
Pt 10.635736104759983 14.592324507152288 8.643979117377036
Pt 9.42629256276573 9.840906705116746 10.269966581986003
Pt 10.579284173116385 10.177485657952621 7.950202532286627
Pt 10.790317681965599 15.716690488833907 10.921107182557657
Pt 12.864780801560691 13.07987701640891 7.99550960197184
Pt 15.244240524988747 14.737270656240275 11.00555642704867
Pt 15.056490396360307 10.427699407101422 13.945813588083748
Pt 10.591463636425239 14.127522865504787 13.014562745375258
Pt 13.356398254616499 8.553865425908487 13.374087902669098
Pt 13.900102649211389 10.482703524354134 11.622627581097191
Pt 13.400467964492227 11.578796125577117 15.413817687666995
Pt 15.66518310496459 12.69022725997707 15.032489769831349
Pt 11.827313560691586 12.724593420298588 17.07685066283857
Pt 11.537395182196835 13.03023666194822 10.642711715520386
Pt 14.529135228407219 12.418122585902104 10.04379455377557
