36
Energy = -175.29794313 eV
Pt 10.35096020766626 14.416340886581107 10.684805064841692
Pt 7.236601555882541 12.004449597409936 7.835389113680571
Pt 15.166172991805608 8.302259380632643 9.871947956756241
Pt 10.541474556129018 11.189000949416503 16.51221966585305
Pt 8.242507856778538 12.080403493196112 16.70690032662163
Pt 7.783706668565625 10.380753756738002 9.857978831958048
Pt 12.03375037608719 11.08498042624836 11.67171433872288
Pt 12.714884596063088 8.767380822842519 10.468735660983386
Pt 13.381949350912853 8.706364160104963 13.175272233082929
Pt 9.899239124940758 9.620866624519193 14.594334263449932
Pt 8.577174778313266 9.986846577394456 12.282966736180615
Pt 13.071691544330612 14.766186176876728 10.63930602322522
Pt 11.493962139932481 14.698656020865009 8.360958127892824
Pt 15.096217841331946 10.008569001085254 11.761051231760456
Pt 14.354155651924879 13.168766755794516 15.132586339875994
Pt 9.345037006807722 13.541504427459406 7.518328228801996
Pt 12.121955948206399 10.333121570558598 8.46965277356077
Pt 13.217420543641817 11.814843037588318 17.110295211817714
Pt 14.29043324778641 12.55445394385519 11.286203057288544
Pt 10.884519936199334 8.69978863451827 12.403497485390675
Pt 11.445988848247385 16.652260132750943 9.96897652966677
Pt 13.745184377782852 11.232447738368355 13.633163005218808
Pt 12.664863441688864 9.84822337228472 15.633288400138184
Pt 13.984723266859442 11.388479535399597 6.911687451835808
Pt 11.591382085120308 7.688909435590383 14.748177847306916
Pt 14.600976084964582 10.754434998466802 9.331169896332321
Pt 8.670595009310752 12.772792419821279 9.848604459144362
Pt 13.624217456762755 13.110146085357883 8.770002280549093
Pt 14.261405837689733 14.488722677311314 12.975031211590816
Pt 9.544223692359472 12.46619793709033 12.212077777943463
Pt 8.412433275598048 11.626503032533186 14.291575362902954
Pt 11.612886001227613 12.45297330589439 7.057535357386729
Pt 11.812461097110898 13.601572470162882 12.728138957795066
Pt 10.308537083328828 9.79344994768311 10.163898754524164
Pt 11.890835927138927 12.737911492933833 15.088736942101521
Pt 9.621796014249265 10.855764597412959 7.89011851656425
