31
Energy = -150.50158716 eV
Pt 10.938780186368719 9.533115109502058 13.44438679016207
Pt 11.92896443890023 11.861254992659884 13.96251747930843
Pt 13.266244929035539 10.315544057451442 12.317767415488568
Pt 12.208432143071446 12.957145060533694 11.697767179025103
Pt 9.807007277099132 13.930277990946005 11.847109281039138
Pt 14.029042788196396 12.278076723635998 9.951600853162324
Pt 12.415041340825235 7.723582141410043 12.187478814558418
Pt 12.174881250053652 14.181688186690579 9.450020814155033
Pt 9.98213354745125 7.124917436682267 13.173254333471728
Pt 9.401109084638096 11.69692041594844 13.508609930038418
Pt 8.292603387541378 9.17853204879706 13.110779008648976
Pt 14.432354835250848 8.638987011890999 10.787387700752868
Pt 11.860934643340979 10.722297449473393 10.190164523982174
Pt 7.4193651580470865 13.191441052960876 10.798342257863306
Pt 9.507580000392062 11.491292741856753 10.989789346188639
Pt 6.991844287618509 11.38857712508749 12.607364241263715
Pt 9.67922038778132 13.561614616858058 9.249698591358248
Pt 10.093991181088953 8.963932983617836 10.911370262657423
Pt 8.179041333130558 7.202856047870812 11.19568950424567
Pt 13.750239283980804 9.948074434401038 8.609033476151433
Pt 12.282765310263018 12.080193914155682 7.91672841460001
Pt 10.919930775962369 14.213149664181646 7.075922746221545
Pt 7.9975334003537935 11.522541590690984 8.871190198286145
Pt 10.696537911962812 6.287879723351702 10.752549769758222
Pt 12.283317867695098 7.906019095216561 9.410659990802124
Pt 9.827116190232923 11.842641671113858 6.978251840780468
Pt 7.142890267895697 7.943640747772404 8.863415092282183
Pt 11.196246933184376 9.690375590693261 7.752416356780977
Pt 9.762222229112592 7.65763310196645 8.691477335475579
Pt 8.61088503025616 9.576874201709376 7.3954073165193375
Pt 7.261384185654623 9.728564657258989 10.641490721356924
