36
Energy = -172.7858573 eV
Pt 10.789369242362067 12.68313573809581 7.196574100006002
Pt 16.902489605554027 14.31800868181451 8.725058242399014
Pt 13.689286881491787 11.590511071638769 11.300124318594122
Pt 14.721982102671177 13.367049268584616 9.495025579716769
Pt 9.672162456324749 10.034407224194664 14.49015056325325
Pt 11.819461084933254 15.925248926665773 10.409160508837786
Pt 13.637603207884204 9.358284038254135 14.842092859485248
Pt 12.80557235035855 14.605769369232947 8.413123433663925
Pt 7.902604422915008 11.761911827481365 15.194427099103939
Pt 13.27116784078846 15.244034528510376 12.392097868472524
Pt 9.243309967304365 7.666841875076314 15.113744064387355
Pt 10.379415274452755 12.316827894664035 15.512100933799305
Pt 12.591281581310966 16.07817759042689 14.942122587354188
Pt 12.89404664006317 11.688642254015436 15.331846858229751
Pt 15.197707371095559 13.598348436770248 12.156813518041277
Pt 12.163279877003957 14.025042642494924 16.31555764097548
Pt 14.118759473412215 13.895881493507888 14.475192754034577
Pt 9.816935841812287 14.710602424340648 11.811258863726284
Pt 10.411138032337755 14.048349054541175 9.309172062516414
Pt 11.999236075054897 18.40270935902643 14.378955872821198
Pt 12.984272757518015 8.356345434600177 12.090996466901618
Pt 11.446534645356348 8.168854228783804 14.156414222013954
Pt 16.02239036181735 10.51272986226348 11.351490233513543
Pt 11.182724957982321 12.422815614589814 11.321414838402989
Pt 14.96514061735526 11.405350030991418 13.655380168226644
Pt 11.506444704730711 13.811255936341523 13.624068978202443
Pt 9.224429981014866 12.298875268162037 13.090259662361884
Pt 12.537593481524187 12.01946520496901 8.98962682841198
Pt 8.591394134443718 12.616248587145504 10.5799747973536
Pt 9.981787281357375 11.062699390396556 9.048867515108467
Pt 11.9067844141805 10.711316187099627 13.085566454825896
Pt 13.920834691556319 6.898691067584422 14.015381301931995
Pt 11.118745150223587 16.718743712214987 12.75866325206126
Pt 16.97970837992455 12.649968958444664 10.546074613558277
Pt 15.431903303762745 8.748596614429458 13.011024821443497
Pt 11.795513419947717 9.90127181447423 10.493207728089953
