36
Energy = -172.21074437 eV
Pt 12.293971475313068 14.622424763391816 7.360233853554638
Pt 13.5715025054713 11.128920802983759 11.965610445018456
Pt 13.601873399513881 9.452361514233223 8.870776610645889
Pt 12.624037018319314 15.527154033651493 10.00350156846791
Pt 14.989707282495994 12.68166162313205 13.547639078499351
Pt 11.172959900734156 10.28427853661762 15.15958344867386
Pt 12.633813564697206 11.932924712108155 9.638926135508864
Pt 10.506278889204484 14.08504539835567 9.076190964554252
Pt 14.030778137701748 13.846724809015525 11.466450684723014
Pt 8.05143375024899 10.9125803615852 11.271070695431566
Pt 8.286814513255354 12.901837532755327 8.542915859663488
Pt 14.351362805378036 8.79097652582248 11.246249661778823
Pt 13.687663882059743 10.707082341294935 14.569677218918262
Pt 12.993158478367768 8.497783337470208 15.548267513809055
Pt 9.909102600412279 13.359660158868252 6.661097151837625
Pt 13.970086702731727 7.001905853536442 9.43083245077772
Pt 8.297117719976905 10.274185154123634 13.769479505928357
Pt 7.047727879804077 8.716636148115118 12.120213447481737
Pt 12.080124225258565 12.111071091391937 7.007577830239826
Pt 9.86594350961118 14.017572078185129 13.469736212638102
Pt 8.912239543949987 14.512239062383635 15.672981038425702
Pt 10.505993819289253 11.449747666719395 12.445893665336207
Pt 9.885759168037186 6.510640757432048 11.307978707318842
Pt 12.927441924910053 9.798506887128811 6.466709272621629
Pt 14.498593071853735 11.57118305988321 7.614272117362557
Pt 12.19833570263522 7.26426600108014 11.207406040056155
Pt 9.584043066710246 8.869751053520845 11.975145257738339
Pt 12.350478075697202 12.922187999819421 13.722340144048944
Pt 9.393478494508194 12.113882096617424 15.121016270981041
Pt 12.088283115531267 8.898218499801143 13.169054472488218
Pt 8.875575440944408 13.39863300117995 11.07691554771156
Pt 6.514652226218901 12.653270091964536 10.285417629119666
Pt 11.3988064299714 13.676093910275517 11.388276964473008
Pt 14.237421557494708 13.785457600527613 8.866143706139106
Pt 8.909816794090672 9.832950393896525 16.190572497599277
Pt 11.66347028327327 9.80003209680376 10.67369328610124
