31
Energy = -148.4244889 eV
Pt 14.97480115166767 11.060884104409805 15.49021890950504
Pt 15.373884057643286 13.611964884007326 15.011548141647573
Pt 15.03081013327821 14.447432882151942 12.67053282937002
Pt 15.182755678077736 11.875984323350835 12.980386011129776
Pt 15.425607026964222 16.51858868037096 11.351329780654705
Pt 15.256414308586127 9.211436806376497 13.501826479540822
Pt 14.010196353017692 12.70436736199128 10.762049081234224
Pt 14.112502483220059 10.20716380438792 11.320930451908424
Pt 12.965586081701781 12.663062217421935 14.893998206667314
Pt 13.36347012836596 15.266815927364963 10.79779201216562
Pt 13.190015194293908 7.9640313901737185 12.523951768417785
Pt 12.667684513418205 11.059161775906672 9.357031262162094
Pt 12.932902370017633 10.124753152812254 14.072760854018865
Pt 12.312237450409674 13.560062179948282 12.493495661336745
Pt 11.416837271855849 9.455136038379369 7.7811438376508235
Pt 10.854623261524097 11.59187701786584 13.714174935941651
Pt 12.083458646961645 8.71913457606522 10.240171550134928
Pt 10.778555746394229 14.09265986798027 14.483938502247701
Pt 10.878999740441566 9.260211828835285 12.719658894917462
Pt 9.977742190070344 10.361162142104613 9.674596826680755
Pt 11.641784553435789 13.598799895445616 9.869165278739393
Pt 9.72982527679913 13.46366618173424 12.13721166962463
Pt 8.973259980544027 10.930744381333765 11.981549602628062
Pt 10.803125045040652 12.112709019326628 7.8620309715582675
Pt 11.016367463650509 6.8456683950889134 11.612217276528279
Pt 8.968173568756592 8.43133700131053 11.065399323855118
Pt 9.112212638791227 13.015555871389452 9.602373425905341
Pt 7.438711467091843 10.232969325316834 10.024622206788361
Pt 7.455983317172677 14.09461351884497 11.249055865934011
Pt 6.561334243138241 12.60793599868023 9.479961884061401
Pt 5.215221087658645 10.615191879613217 8.979958927034534
