37
Energy = -183.55210046 eV
Pt 8.184385533337863 11.602050252385409 13.737999637354898
Pt 11.765482664371376 8.595888974172208 14.124222700369938
Pt 10.410002174864353 10.008175730888533 8.433093129885807
Pt 8.904405836488065 12.123787619379186 8.052143106667717
Pt 14.877152372730226 8.944076422505368 8.677394968964892
Pt 9.14270760671628 9.305950927409897 14.636757180579314
Pt 13.118010486590293 13.122455084866564 8.464382832697392
Pt 11.187735873952363 12.05344754786429 9.76766937660008
Pt 7.300247040581518 13.672441581154352 12.362171973170005
Pt 10.573817865548705 10.050743065970945 12.381844056808534
Pt 12.60402059908034 12.717981333532638 12.898741069412301
Pt 9.109541783859601 14.504404533442647 10.588497709899336
Pt 9.97363841602313 8.39549004107878 10.47232820677632
Pt 15.929991840904847 9.451683292124144 11.082359207335083
Pt 13.32121061870227 10.708490117614181 14.51796843092978
Pt 11.712826619658617 14.270257774027964 10.900706263022196
Pt 8.086743813335588 10.147624788196463 9.756949491601542
Pt 11.239140605665495 12.09555783519794 6.836741939800991
Pt 12.028174145664526 7.247002703532634 11.789703079997032
Pt 10.640072558337579 14.296024956757144 8.383768961676124
Pt 9.711228377916889 7.300266170373265 12.947546990654807
Pt 12.717730041765366 10.626761362909766 11.178163421359619
Pt 13.040413269816588 10.507762419495666 7.775945891278993
Pt 14.397302296896285 7.307040414806073 10.765874550950157
Pt 9.953539457395353 13.67669096322908 12.935906813630702
Pt 14.920353214021633 11.502233069824767 12.501809037099235
Pt 9.193481053940356 11.852930414482206 11.277833479996573
Pt 12.411829049548848 8.565123204412322 9.51640806909134
Pt 14.188208595741964 13.522627696258548 10.914035836895911
Pt 11.557159125548639 13.84208521365635 14.956463535448416
Pt 7.052111714210691 12.813156530738514 9.783973743863083
Pt 6.442010069873211 11.16923696329297 11.710019475293606
Pt 14.767284717219155 11.344241403436751 9.680016098457324
Pt 10.75864621125392 11.423220541315724 14.526378528822514
Pt 8.034779959263025 14.590526031053106 8.195348743881485
Pt 7.9660957297542465 9.131947513858533 12.250761158602318
Pt 13.997095939350551 8.90830346108133 12.757746434354507
