30
Energy = -144.43197211 eV
Pt 9.434929003978711 11.85677730944975 6.936309026113616
Pt 11.93933677739762 12.033582002716136 7.646151577163861
Pt 13.720993709905793 10.25750591109176 7.166366696285789
Pt 10.192125087127453 13.810118076373005 8.479309924362209
Pt 10.481917814439196 10.13270149579216 8.700237384715459
Pt 8.472919392134937 11.77886825842568 9.354134580702208
Pt 14.260908388433883 12.021014559374478 8.908314410947774
Pt 10.543236783942094 7.871427768376783 10.109335302925341
Pt 11.258523111630238 11.455743885203459 10.887772422497902
Pt 10.834475581278078 15.662811844386951 10.176408162531228
Pt 12.612389354258257 8.730528688401243 8.832483932910435
Pt 14.89422642737582 13.550808301017797 10.847114419227843
Pt 9.108273978911482 9.83304131187781 10.998791010326158
Pt 12.465660693641082 13.70167411384431 9.837645439821454
Pt 9.5275158835593 13.52154555923835 11.023217191515524
Pt 12.642630359272859 8.135753105279177 11.611761479194671
Pt 13.619274889053186 10.256394414265396 10.597713809964402
Pt 10.71656815268902 15.155462495308411 12.762946039166863
Pt 7.7306510015321095 11.812511215984848 11.870577368598475
Pt 14.420891292522949 11.657856363464289 12.521835291702732
Pt 10.162739041870951 8.069190961864612 12.642669014159342
Pt 8.2562181349531 9.89737706487822 13.485270971542604
Pt 11.998924008095148 11.548248568639234 13.408846432598246
Pt 12.779743986781162 13.785350223891056 12.430976179728878
Pt 14.570797042998096 9.176406368300825 13.063194328870738
Pt 8.880546155099601 13.492680895209585 13.50670788330448
Pt 12.24229070931092 9.074526937898922 14.047312673157998
Pt 9.11737064243038 7.981835713559396 14.926880914909368
Pt 9.803269238432522 11.518998758450785 14.649780594839585
Pt 10.70726101249748 9.615865482989665 15.966543191767663
