32
Energy = -154.68237155 eV
Pt 15.546888461273355 12.015752103455904 17.34338233103692
Pt 11.264180990594008 12.230198902491265 15.701079516407207
Pt 13.568711361076513 15.735429447949564 12.824946839879342
Pt 13.467840487810673 13.477016863128764 16.355218551481816
Pt 14.150929253500282 11.121940414089329 10.858432162711615
Pt 14.037583766177166 13.2381783018018 13.693730906838475
Pt 12.531776683271037 9.5952194517977 14.906569375833717
Pt 14.989855501949084 9.832678868993826 15.806520917735002
Pt 9.237450817430654 10.780100091210045 9.427495083052436
Pt 9.909583711497639 12.96494696150849 13.51724965871424
Pt 10.645120169068194 15.040428534249608 9.429688198584806
Pt 11.843521944550792 14.553593557208702 14.567620126032985
Pt 12.987394085356275 14.062716794236145 8.732400516990078
Pt 14.539426616717467 13.85934155287482 10.924505514873777
Pt 16.13969195960983 12.233533108655264 12.205068142324903
Pt 11.834396180888534 10.565600688895287 9.827715136317865
Pt 10.814902842760361 12.582545226654352 8.438213434736102
Pt 14.599978809257003 10.381226130590976 13.288605683998993
Pt 11.036565660412482 14.932896541332251 12.09575140790271
Pt 16.212048585528038 14.570886658305666 13.45451423699063
Pt 16.562949197677593 16.484065398344114 15.143303812066923
Pt 12.122989094170173 12.878677756053513 10.987354518394028
Pt 12.880030446601179 15.997171948299052 10.443753732947822
Pt 14.080553384866807 15.829070468372862 15.2875846958262
Pt 10.025858857253173 10.264446350710642 14.407166292054201
Pt 9.577025601188371 13.021865996743513 10.87060280367496
Pt 9.91450664813328 10.529239691326493 11.87781640760301
Pt 13.095276032182856 10.994100020766233 17.09665261804615
Pt 16.05249905725517 14.26563944713839 16.28417955838434
Pt 12.481382860483375 9.342930377512836 12.073119378313512
Pt 16.099508228891757 12.027950183006746 14.801910610186336
Pt 12.089359592669595 11.617185172037317 13.25393002396569
