33
Energy = -154.73837206 eV
Pt 11.047796949096124 14.32985918704961 14.101172067227576
Pt 14.32507002053274 9.043600643728135 10.424194094122086
Pt 12.837922544096195 15.120642400616903 15.80680116225135
Pt 12.734068004089536 12.355432420876726 14.687380835080468
Pt 14.961114041554382 13.094153800363962 13.426060262668674
Pt 14.640993130340567 11.559965092444507 18.460716769946544
Pt 8.628133082473944 11.206897376527934 14.14395832030024
Pt 12.249988141904389 10.505254161327134 9.231216853734848
Pt 12.829782157344363 13.170459181025285 8.137020396746548
Pt 14.036600665604972 10.124872267510392 13.798634312229304
Pt 11.639363136323027 15.100623776521338 11.71726832632498
Pt 14.704920839228725 8.048699550944061 12.639883070915767
Pt 12.785166277618732 11.091413820725851 6.746468090909855
Pt 10.814953250599702 12.003534009667087 12.898190601634573
Pt 14.734232079979655 11.319881739403202 11.614415204590365
Pt 14.662096403853432 10.198901826108562 8.199316896652634
Pt 7.828624322265089 10.69426076969359 11.813135360915405
Pt 14.360090099130414 13.266032065170595 16.691171663103397
Pt 6.68208867775093 12.830338893495119 14.672896949414309
Pt 14.065672125328453 14.132064622313532 11.111932328073147
Pt 8.766449304413547 13.67850499495394 13.371241467579766
Pt 12.64578421390296 15.35515851014271 9.344432426134691
Pt 15.468180428805992 14.964487740052542 15.199698487543298
Pt 11.772161352543389 12.797851585399997 10.535669294448468
Pt 13.674879048813633 15.349327754182669 13.370181952614354
Pt 16.539835498799757 13.17417959802975 11.271577060699503
Pt 14.972639130983945 12.449341165167011 9.31470258851359
Pt 6.636882095070547 12.841459500012032 12.147191289463482
Pt 12.385645514494106 10.235772636593456 11.831332807044173
Pt 8.28686468215117 9.198154476755041 9.954144638775865
Pt 14.031415235758558 10.737027971110699 16.208397702084696
Pt 10.111879083276364 10.773537861923018 10.63707514106752
Pt 11.719036486842416 16.828636625135843 14.072849602160577
