30
Energy = -144.15286894 eV
Pt 9.806714378369808 8.829759094864945 5.572318795525914
Pt 11.633174394206007 10.354486676656673 6.572811015347605
Pt 8.963308954388475 10.884408855885388 6.930810994305735
Pt 10.295635293154156 13.428414261243136 7.4079580480736
Pt 10.863845554100857 8.0943342740992 7.808651287469503
Pt 8.162458245154394 8.335759365940975 7.5824342682905685
Pt 13.160352684357434 11.930278741917501 7.919441397079655
Pt 13.136877746761757 9.326625132850234 8.65540369848938
Pt 10.694469092343038 11.36700423916448 8.848496468675423
Pt 6.629991033655854 10.471532982059683 8.250218790516893
Pt 12.133383613493695 6.968706315966493 9.824352728401498
Pt 8.063744383401762 12.747366092977455 8.553853448329226
Pt 8.68402720793028 9.985646449753133 9.816889807102127
Pt 9.347751634171178 7.158267062902517 9.713528047425106
Pt 11.847753983804465 13.570874050303932 9.639596410058711
Pt 6.908003227129863 11.610563711183202 10.67160693219904
Pt 12.970203235981822 11.294774940006139 10.531480177456874
Pt 9.341316878638425 12.589872643417237 10.83576385371137
Pt 11.489388710512424 7.57865683053337 12.354395127501881
Pt 11.0346747230239 9.301738994881777 10.363652479557791
Pt 11.551615251767924 12.862269242076522 12.125423573285298
Pt 9.052761316131773 6.665142057928857 12.170092844720616
Pt 9.182116570098426 9.27058856432551 12.29291218470741
Pt 6.831708896917797 8.258714004846308 9.825303798676648
Pt 13.575863211778413 8.78995652171805 11.25105520644768
Pt 7.111552801143802 10.697633379597258 13.02332283494361
Pt 11.917034282833503 10.310550427280312 12.734655831030484
Pt 9.56678436117217 11.615280854204116 13.251170385206498
Pt 10.518307602179535 8.920835450881123 14.428993546061795
Pt 6.8240981986568 8.078876247794941 12.342323486663046
