38
Energy = -189.4830846 eV
Pt 12.09490185878266 7.46166522276093 5.730425997649021
Pt 8.014368849793556 10.540349264771924 6.144940088198535
Pt 9.511180496525723 6.815955367297916 6.012671500197656
Pt 7.918415467299077 8.35432166836376 4.6453860100136914
Pt 10.214424135637525 9.305240875403294 5.3938446578468096
Pt 5.894643682145039 8.952438016574387 6.163349238329363
Pt 11.225678241540724 6.191916808512057 7.945188934380115
Pt 5.975312272861467 10.968583574496222 8.053967152949634
Pt 7.020012597198365 6.512993949012861 6.673146867518326
Pt 10.365806167970637 11.697141376143787 6.759862597117791
Pt 12.48166446437793 10.146365523482562 6.189628917649093
Pt 12.85578938628308 8.3036903386657 8.04515638590206
Pt 10.143369205598646 8.733967216996936 8.014990914758567
Pt 8.775116253008857 10.619139374937626 9.218794936915714
Pt 7.561094446035163 8.570272103397796 8.176735266930837
Pt 8.115406802232334 12.639379688189685 7.718818718739005
Pt 8.980195879702798 4.854039272375323 7.660801875546961
Pt 4.927163769195769 8.580898442545436 8.521912773594092
Pt 12.06322254582374 10.932880457416456 8.609643075552315
Pt 9.830327115897806 11.418759664160781 11.762609951962915
Pt 7.2996145942379425 5.916397882738948 9.280211023197477
Pt 4.938826218537032 6.035372211054403 8.305255164124954
Pt 10.30520078527169 12.764224577047711 9.316818933742816
Pt 6.153878673150636 9.821071612599733 10.46962667437609
Pt 6.937192186364209 12.297111965315752 10.095626786123878
Pt 13.36717708139993 9.480941700704118 10.282428312884456
Pt 8.95331419686498 8.280376404951712 10.298927600401226
Pt 11.654816827739893 7.50468415678275 10.239453087050688
Pt 8.754163794016536 13.655686734981279 11.204372666021493
Pt 9.760286786981021 5.676422125188079 10.105644442913551
Pt 5.646021811354388 7.215094999359149 10.731784588526905
Pt 11.452176698385342 9.446511411238644 12.023005435349651
Pt 7.747146720523482 5.833838376258204 11.886640029324052
Pt 12.249936817507653 11.840743232051542 11.002872017847029
Pt 7.356646444944014 8.357862551912136 12.361002224760183
Pt 7.440537994082301 10.975478334040053 12.416092298827127
Pt 10.037156696368156 7.195857717484625 12.376867589513521
Pt 9.385080285203454 9.509594051628937 13.568763514105223
