31
Energy = -151.08295958 eV
Pt 13.462571660151085 9.641675479736008 15.094120835290784
Pt 11.091216156253157 10.728254720295086 15.152953558519314
Pt 13.281831863947362 12.143042904142492 14.248588519677059
Pt 11.845176427091483 8.62032926406718 13.204951515248753
Pt 14.14330943667112 9.970778108120518 12.628172639922878
Pt 13.818736745835134 12.548774115080754 11.617293969841853
Pt 9.326796058400753 9.637255704444971 13.460441098809321
Pt 9.49360143431421 12.402979973297859 13.943498512747638
Pt 11.57808144383747 11.118099970937509 12.621003192703636
Pt 10.183024793220348 8.08319648344332 11.277751042571648
Pt 11.633106979255631 13.67287823524106 12.793663051099347
Pt 12.739040845438469 8.708549931117329 10.634923385680038
Pt 7.650241730228604 9.051159969021354 11.48561866620146
Pt 7.555537840877139 11.575173933870573 12.586287320462937
Pt 14.846186711486732 10.40070391788409 10.233041162274379
Pt 14.010774315185348 12.546945445951154 8.982161611870621
Pt 11.69825298234231 13.742301636156867 10.171362954200106
Pt 12.026640331560841 11.2119356541518 10.024077212730251
Pt 13.416136511161321 9.545342516182567 8.196347606188246
Pt 9.721901006652969 10.562266196845172 10.893313213442585
Pt 6.5367207332184565 9.526525711668063 9.164365996540488
Pt 11.010452470150652 8.5368626030679 8.640989643031086
Pt 9.366956028374506 13.152735922717644 11.323444064128285
Pt 5.554557019835793 10.753744299478651 11.24243637870746
Pt 13.605632324023059 11.648824816520756 6.595047905514581
Pt 8.571580612595369 7.857675229465549 9.193603947259243
Pt 11.92297170787517 13.490473589570675 7.592209880255491
Pt 11.243974505311622 10.966600631994405 7.550838252641669
Pt 9.557381885373061 12.858920891185067 8.65657444670681
Pt 7.405190515920803 12.026239524743806 9.878507644689348
Pt 8.934271597445974 10.317310871894216 8.42688087992869
