33
Energy = -161.70106629 eV
Pt 9.564900946458067 11.247100171335694 6.156678479032738
Pt 12.19221205760551 11.112573225942265 6.31958852765536
Pt 9.466513846107981 7.5916565065567125 13.976263252074544
Pt 14.050261756174011 10.039651712285801 13.012106582295848
Pt 7.687359973907788 10.985710883093546 10.415022293981073
Pt 8.535752562586845 12.4970921430671 8.285500324023232
Pt 9.615791862128063 14.870868404903508 8.704948828528359
Pt 9.722244699335157 10.090888266004212 14.51278258307804
Pt 9.880370594485083 12.624744706920316 14.81416768393868
Pt 10.71577138836196 9.441101445802161 7.763093110075759
Pt 10.015046827727623 15.506623181772362 11.211404998378685
Pt 10.984920599469291 13.13552396048307 7.381187264952642
Pt 10.25731621723075 11.21529693843598 9.830431848736454
Pt 12.753759335828132 11.558333383869803 8.881963582964634
Pt 8.234429458224247 6.839352360670132 11.61915563465823
Pt 11.538993367512438 13.587037251638309 9.974592516378307
Pt 11.381226891394498 9.947257704591937 11.72865853865843
Pt 8.430275778424956 13.518835820524004 10.710854367949517
Pt 11.918932592861966 8.721742647740017 14.009302637810274
Pt 8.837516390436909 14.418794040782585 13.245790974706997
Pt 13.422612080744978 9.306385254464804 7.7915539129785545
Pt 9.318723956958479 8.65726421525137 9.921746182962616
Pt 15.769910261487647 8.555874122283875 11.815715777371093
Pt 8.118316788527414 9.971624610527133 7.943341627106806
Pt 14.172780359547625 9.818520275805989 10.286791711819538
Pt 8.302128950555842 9.307839791663472 12.316642602719215
Pt 13.011480227278506 12.016583229892522 11.444693428176812
Pt 10.785850552577083 7.341243354111742 11.784487222064731
Pt 11.251911566952241 13.57644562516442 12.601201387640026
Pt 9.231964304376172 11.73921504616917 12.420316241232749
Pt 13.33250627915846 7.69252770015495 11.969386218449554
Pt 11.982058829260218 8.264516816699821 9.696905405538974
Pt 12.075664790486023 11.455898476709233 13.904702305081711
