35
Energy = -172.56346832 eV
Pt 13.038317263738017 12.331961482634924 7.0839641830346025
Pt 11.110135437854591 10.80878646627786 7.951495682986021
Pt 11.698684992580521 6.282954419933358 10.299220186418344
Pt 8.831069412390137 12.08072840020113 8.157266889241187
Pt 13.459564462385586 9.956092196185944 8.384688061058938
Pt 11.271003945558006 8.404826403708812 8.830336045801344
Pt 9.23915783036892 9.893149817669348 9.49133719174776
Pt 11.095890254996773 13.342538559552054 8.493574778210654
Pt 15.108676772306195 12.009424509326744 8.661881431532258
Pt 13.246027095984847 8.362729770562577 10.47209945643654
Pt 7.456293259013751 11.628258543299415 10.257281031487736
Pt 13.434727153911222 13.997229021662875 9.214004886112829
Pt 14.801438852067541 10.306360544060365 10.597805760909443
Pt 11.927229267654758 7.618905407756161 12.547415307258683
Pt 9.22146845628369 13.544270710071533 10.259316759581555
Pt 9.705158103983464 7.8328819771539315 10.976765702833372
Pt 7.729569531276289 9.283113833484537 11.624522977061732
Pt 11.216431611074794 15.218639803930701 10.244086152331628
Pt 14.777034036484162 12.805218348177604 11.10687960826286
Pt 15.84587263866154 11.159986363142517 12.812559528433768
Pt 7.706863043402824 13.219687195882033 12.449059620489676
Pt 8.096845404369573 10.887145779992618 13.796058156761935
Pt 9.906522183195557 9.123843738782671 13.19608457132053
Pt 11.625861715751247 16.576969901211083 12.443694948060198
Pt 14.252287263708658 9.037433879979059 12.810861007705732
Pt 13.207318030984919 14.627111754786212 11.758887385751688
Pt 9.647399357864442 14.852840091930625 12.439552153595457
Pt 12.229866277748016 9.54763252752788 14.226831460619882
Pt 14.220304986838297 13.0920542399154 13.641978848227085
Pt 9.870229618032528 12.786187352122068 13.976643518506362
Pt 11.87384536411425 14.45074219192619 13.945527947206253
Pt 10.110677277139873 10.590210848949393 15.330153849934609
Pt 14.434338932704046 10.720458801828087 14.978059803965934
Pt 12.21316839820013 12.069337906983465 14.824378003546228
Pt 6.024455287571464 11.17903777887058 12.33062403126654
