35
Energy = -172.35235327 eV
Pt 13.754896373628199 9.35510418742215 9.625105816955193
Pt 13.954071918992163 10.682310557742678 7.381977301133742
Pt 12.653016743022988 12.907075667606888 7.859027359883266
Pt 12.878164376400449 8.293955675902497 7.404896904192809
Pt 13.958118277630463 10.753513445629904 11.826213006436282
Pt 11.34668474572812 10.490420436139724 7.618464219280004
Pt 14.558621109849767 12.040157649023552 9.652732927268586
Pt 11.104633860236477 14.917253295993621 8.51207729386278
Pt 13.081095171372567 14.229808504520754 10.241548453521872
Pt 12.410237299546994 6.944758983426089 9.610125537955149
Pt 10.404051118256142 7.990153146922462 8.269954787613422
Pt 9.935043684289168 12.594586339595718 8.183615302483862
Pt 11.004366773249053 9.432198454313367 10.34516935231819
Pt 11.971569095348022 11.834330475597529 10.134369866429347
Pt 12.817838190091264 8.26403516377802 11.913587109780101
Pt 8.947693827255298 10.202318077961058 8.660558662772704
Pt 8.324083553075516 7.8054831507132585 9.801564739061616
Pt 13.228893398065127 9.680902987312594 14.073508318193209
Pt 10.394171034273219 7.10411940935326 11.331632952294214
Pt 12.217590546221066 13.329426875531457 12.518014180876621
Pt 11.347636367705698 10.75730854808011 12.567919434119236
Pt 10.387218140758392 14.369694977923372 10.967491156344257
Pt 9.514961640751027 11.654353384680261 10.94629215661429
Pt 7.507689216968968 12.318329085890165 9.44728543925027
Pt 10.643889530363538 8.355400992325608 13.597512536674563
Pt 8.565915203763467 14.707268373408404 9.124755446124453
Pt 6.8520747499561665 10.000480453812866 10.387731472613703
Pt 8.575238281044948 9.03032032360216 12.10991841507164
Pt 13.284573502953918 11.091832199544163 16.210925804183034
Pt 11.509264539502523 12.227420290867851 14.757931120380762
Pt 11.143138741481739 9.77033926365481 15.75182443463361
Pt 9.586863992480684 13.0765057321733 13.198995492653012
Pt 7.71281215178935 13.95568508294964 11.494500305830787
Pt 9.180427604203322 10.54531059774892 14.184020548320461
Pt 7.4379206159781805 11.51582967955337 12.507806988469113
