30
Energy = -143.73610192 eV
Pt 12.052497551988251 9.765474648675124 7.2619122093664075
Pt 12.500623804851692 12.182163062661118 6.720646065573215
Pt 9.982963500866756 10.181939521785585 8.587171820555906
Pt 10.431590153968536 12.7090111396309 8.101088562418592
Pt 13.476902455120966 9.818728247226373 9.30131894423704
Pt 9.384515709101917 7.670576506292014 9.20993581679927
Pt 14.169522741708375 12.284189779583004 8.621128655711214
Pt 8.333339272321743 12.149889006320054 9.556027961336387
Pt 11.473052653958288 8.627131648015391 10.481375781150176
Pt 6.628244738627596 11.240491555508601 11.477706221411697
Pt 11.947879575288255 11.8939094166401 10.017991682967816
Pt 15.639180961734924 9.5613293927253 10.610984596755634
Pt 7.7902430958110775 9.516776687521487 9.957144757975874
Pt 10.221434213050578 13.87074232495651 10.394684220543938
Pt 16.028215069815484 11.980846301531745 10.272616855572723
Pt 9.983711455105604 10.78259795846066 11.338414319869589
Pt 13.433984528960087 9.415443930421098 11.937609730684079
Pt 8.326332095780526 12.981393223945155 12.141807317163945
Pt 12.239977388139627 11.566974824417077 12.660649982038311
Pt 9.623246266712023 7.416748810511728 11.781981526922303
Pt 13.998622062066136 13.24285683144786 11.111405987377877
Pt 9.544068614951877 15.143349176566852 12.5830100709848
Pt 12.119412891643119 14.815980561897144 11.824949354308814
Pt 8.109281409897118 9.360767801735072 12.492142294563472
Pt 11.28318549194018 9.267842996100148 13.36430517361206
Pt 9.438357113543951 11.518202897694866 13.929590027136198
Pt 11.047433458927205 13.481864390550456 13.819328073476647
Pt 13.68266758982556 13.556422021188027 13.643524585529855
Pt 10.238290404040066 7.037401203265939 14.17320282882394
Pt 9.108738783340097 9.19646918581231 14.863859628220125
