31
Energy = -151.73195738 eV
Pt 10.02603296783737 11.485488799195096 6.592082978060936
Pt 8.955667979241525 9.110133009642766 7.057997808429147
Pt 11.630654942388873 9.443574524067872 6.566986535268655
Pt 10.904846376115577 8.25582584370037 8.800914924825857
Pt 7.904874467354006 11.355963560295672 8.108132646875552
Pt 8.490187437462765 9.162098604182 9.672832791896026
Pt 12.40505897904913 11.909395684675156 7.706135895310017
Pt 8.324425998513897 11.586204194022818 10.73005594180479
Pt 10.558794283043001 10.793948681680845 9.166580350775554
Pt 14.489726820169649 11.668889823771488 9.235489972864688
Pt 7.87971341144387 13.70756170004148 9.309084338168468
Pt 13.288709447097107 9.447410765115087 8.531034660705838
Pt 10.067385490482394 7.502650844685681 11.151487606288999
Pt 8.841872526331104 9.554035840771608 12.207677599762118
Pt 10.329065515549482 13.303632718180744 8.527691143101507
Pt 7.661295382949249 13.838665073692185 11.941956953143745
Pt 10.088841913220104 13.943533095409345 11.012758378962605
Pt 12.40459049100881 13.055745651665582 10.173538711638027
Pt 11.265579250248907 10.546007259230393 11.645662606764688
Pt 12.51580890686921 8.306498077652668 10.84564051322215
Pt 8.730325135881197 11.855613865124928 13.329909849450571
Pt 14.899952350675804 9.403439328610247 10.531628802285153
Pt 9.161486063947049 7.37602638566335 13.655119058310873
Pt 13.695719772447857 11.392230785392556 11.780341929560029
Pt 11.636806538471786 7.989318807868294 13.373407323476208
Pt 9.670953604864984 14.274970977454842 13.649965622207212
Pt 9.934105348968632 9.72263799515839 14.572689893672509
Pt 11.767851613271109 12.927739072191937 12.716626896297994
Pt 14.01609738110313 8.896595112337588 12.93111325657643
Pt 12.414935243728808 10.590797310930812 14.018833451928591
Pt 10.643868673388415 12.214607147974064 15.022813621650553
