38
Energy = -188.71618535 eV
Pt 10.33868385 12.216206528087696 10.33868385
Pt 12.433759236650953 12.433759236650953 12.433759236650953
Pt 10.33868385 14.102431853171943 12.233371293683335
Pt 10.33868385 10.33868385 12.216206528087696
Pt 10.33868385 8.461161171912304 10.33868385
Pt 10.33868385 10.33868385 8.461161171912304
Pt 12.216206528087696 10.33868385 10.33868385
Pt 8.461161171912304 10.33868385 10.33868385
Pt 12.433759236650953 8.24360846334905 12.433759236650953
Pt 12.433759236650953 8.24360846334905 8.24360846334905
Pt 12.433759236650953 12.433759236650953 8.24360846334905
Pt 8.24360846334905 12.433759236650953 8.24360846334905
Pt 8.24360846334905 12.433759236650953 12.433759236650953
Pt 8.24360846334905 8.24360846334905 12.433759236650953
Pt 8.24360846334905 8.24360846334905 8.24360846334905
Pt 10.33868385 8.44399640631667 14.102431853171943
Pt 10.33868385 6.574935846828055 8.44399640631667
Pt 10.33868385 12.233371293683335 6.574935846828055
Pt 12.233371293683335 10.33868385 14.102431853171943
Pt 14.102431853171943 10.33868385 8.44399640631667
Pt 8.44399640631667 10.33868385 6.574935846828055
Pt 6.574935846828055 10.33868385 12.233371293683335
Pt 12.233371293683335 6.574935846828055 10.33868385
Pt 14.102431853171943 12.233371293683335 10.33868385
Pt 8.44399640631667 14.102431853171943 10.33868385
Pt 6.574935846828055 8.44399640631667 10.33868385
Pt 12.233371293683335 10.33868385 6.574935846828055
Pt 14.102431853171943 10.33868385 12.233371293683335
Pt 8.44399640631667 10.33868385 14.102431853171943
Pt 6.574935846828055 10.33868385 8.44399640631667
Pt 12.233371293683335 14.102431853171943 10.33868385
Pt 14.102431853171943 8.44399640631667 10.33868385
Pt 8.44399640631667 6.574935846828055 10.33868385
Pt 6.574935846828055 12.233371293683335 10.33868385
Pt 10.33868385 12.233371293683335 14.102431853171943
Pt 10.33868385 14.102431853171943 8.44399640631667
Pt 10.33868385 8.44399640631667 6.574935846828055
Pt 10.33868385 6.574935846828055 12.233371293683335
