31
Energy = -150.56795242 eV
Pt 11.148381238707636 11.781317987948444 10.06577102183797
Pt 9.812899893063983 14.487111557645008 9.753291419446644
Pt 13.237393067151773 12.135603369867708 7.886114253693142
Pt 10.512912128639353 12.658152313487545 7.7394758120188865
Pt 12.35643066595852 14.114495153297781 9.379270057118433
Pt 13.682577617440643 12.06305624432204 10.49762869725708
Pt 8.824837336951184 13.043088998645226 11.718058264758806
Pt 11.576990402217799 10.23754783227817 7.252675265646056
Pt 8.860659255463087 10.589122388628228 10.55988220171304
Pt 8.114090928677161 12.651421238656622 9.00481959632812
Pt 10.229497599438993 7.9530907322916855 7.7569283490954515
Pt 9.054386472385469 10.382356558183204 7.859437769126535
Pt 6.562042062145651 11.890467163897489 11.2259062032225
Pt 6.658150051480694 10.38455503396289 8.954770189286526
Pt 8.211107653387785 8.194280923489048 9.449605515845143
Pt 11.372916821284024 13.73120314091809 11.84259843251992
Pt 10.24894543609192 12.34604235154153 13.85615177575753
Pt 12.935913332122674 11.904967792405193 13.067275468469397
Pt 10.902678374771169 10.492996416306214 12.245062489127992
Pt 10.050781604448398 9.238665881772363 14.308135380802492
Pt 13.465870635447768 9.66840209781245 11.727589518918576
Pt 11.02512336348353 9.214717370669227 9.907641703831429
Pt 12.683162780662425 9.453213473251616 14.221576449076625
Pt 11.559241845546367 7.728325469732424 12.483059862038443
Pt 8.149272194370926 10.757166003027393 13.168651992171327
Pt 13.60591687051238 9.827783349446264 9.08958306525404
Pt 8.98893332380501 8.26565244272961 12.079018383730258
Pt 6.652958152420527 9.239826878370149 11.420320149948022
Pt 12.82121812929482 7.858085636027758 7.555525013439243
Pt 12.964213060894755 7.514131921133404 10.206851128663502
Pt 10.306864287655614 6.7695187782550486 10.293691026896274
