35
Energy = -171.99934414 eV
Pt 15.46779922590339 8.282276538202742 11.932427804047201
Pt 15.32962053716515 10.810797198073436 11.302347791973629
Pt 15.053503103455315 13.320245910658388 10.629968542876982
Pt 13.35404038263272 12.251576173027328 12.32649524077051
Pt 13.929092185063428 9.917804671438637 13.345445540589768
Pt 13.917941364468321 9.009468158108268 9.966879582511103
Pt 12.668961790141127 14.376884110876382 11.006037134208952
Pt 13.63757232633287 11.483654664656804 9.359554736756985
Pt 12.98097469616571 7.580309080999704 12.44315965543242
Pt 11.231833287129326 13.514513060378611 12.983726654884697
Pt 13.452488264950896 13.98891524773354 8.510211380761517
Pt 11.75316131443711 11.216783305111438 14.026678507878113
Pt 11.960381356066438 8.624940684205827 14.520560081560758
Pt 9.056132562220679 14.764247799441176 13.710214935973665
Pt 14.091364718059022 6.458217462067929 10.456389804444314
Pt 9.246318111045007 12.148385723047117 13.916996035781333
Pt 10.286105816428016 15.33511843260439 11.3720331081517
Pt 10.424644773701413 7.341496584488068 12.503394154806347
Pt 7.923885078195546 8.084653911255247 12.626897681911522
Pt 10.917447168207346 14.163146647900799 9.110950931937252
Pt 11.670633047418212 7.6361622887967915 10.137147204364624
Pt 11.836315530370458 12.203675766072022 7.610111856821033
Pt 7.696556647794289 15.78455398323566 11.728159701835471
Pt 12.007918961871878 9.702209048348971 8.466118870060864
Pt 7.4595540477375115 13.21165693601346 12.24558615110298
Pt 9.823657422508811 9.658756430738793 13.492293746980435
Pt 8.512383171624734 14.036721337254793 9.966629882650318
Pt 10.135864127042415 7.946269855020123 8.005932079395139
Pt 9.145326241163763 8.151976727990474 10.365222867875747
Pt 9.289441402270324 12.229434820578993 8.369269651629807
Pt 7.738762782510239 10.671156413107095 12.403514112764082
Pt 10.154643171311935 10.364775155296709 6.814863194196575
Pt 7.3756181812500845 11.754599614154978 10.044294777358363
Pt 8.286598409629768 9.808028921006871 8.530880140769264
Pt 6.693866049283652 9.245117946496809 10.488292080639608
