32
Energy = -156.43064555 eV
Pt 10.521388181086644 14.509421640224815 9.498369061302975
Pt 9.1108019565336 13.971450133855111 11.721810324674045
Pt 8.354755565538342 13.034545539528889 9.430810621636805
Pt 10.312653348581074 12.537244875048035 7.668071749200605
Pt 7.795444088690789 12.057538688429068 7.058667106452155
Pt 11.885059609354338 14.005623746480406 11.637825506187575
Pt 12.29871751261092 12.518252685669015 9.440142547140159
Pt 10.154733388606653 8.588448265678215 7.161550127935554
Pt 10.399355896566782 11.74118044183575 11.146336009100532
Pt 6.984750459808478 12.252172831567288 11.505729504835005
Pt 11.973607500444137 10.457611437942456 7.781477959048576
Pt 13.109289523098155 13.555795877403208 13.848108915409776
Pt 6.97822776807167 10.738837186623416 9.33724925828819
Pt 7.749127558009285 9.472691801087384 7.02541863256907
Pt 13.541391737546046 11.957992252901922 11.818836393669129
Pt 10.414658781224501 14.019762023544146 13.956252793955487
Pt 9.566304460655624 10.403712181373326 8.939854888681676
Pt 8.080911430918475 8.316053385714884 9.417107977270637
Pt 8.172949188767392 9.859032141240872 11.594265344417396
Pt 8.855529582307822 11.75808325675311 13.295912136515955
Pt 11.388253305730382 11.642660120477029 13.924117054476143
Pt 13.697414230936358 10.273119006384642 9.698401529014479
Pt 9.984681256331195 6.640288036389101 8.892378410312954
Pt 15.057675125375246 9.84839796535585 11.878746904582957
Pt 12.294848063232166 7.9592763404923765 8.688525093037553
Pt 11.412848359785352 9.439272935835717 10.619479232286201
Pt 9.676605524872478 7.690298301250898 11.391925963527537
Pt 10.099403032878074 9.41933275353069 13.396984131020435
Pt 12.704146262715563 9.711376816174624 12.98662926631843
Pt 11.732358273983998 6.069553449394366 10.660404939843763
Pt 13.534737557325904 7.862972625654447 11.13208849559918
Pt 11.738422992599812 7.3038181110622205 13.043937420082125
