39
Energy = -193.66728872 eV
Pt 8.362340217110384 9.762606582817009 9.132574729669678
Pt 8.006571179722137 11.493122480054677 11.082421625975114
Pt 10.642217133047316 9.865601176582128 7.936429339993162
Pt 9.443340770933982 12.19106848402946 9.064979959201034
Pt 6.700117156537125 10.490184497304847 13.092803658385481
Pt 11.741691871281803 11.656648175179784 6.20655079922135
Pt 10.183804165723526 8.066044196082924 10.083377342736517
Pt 13.209187232105425 9.706178795220344 7.170663564978945
Pt 7.905411546329658 8.68462441958389 11.443408680192565
Pt 9.487126150071793 13.766864273175429 11.300741381829214
Pt 8.49902468499217 12.614915661258754 13.50220426250587
Pt 12.801780957653445 8.684951637790443 9.426300034166026
Pt 11.049653051636353 10.409318279114334 10.67045762287558
Pt 10.830911934009533 14.437616940716852 9.157207154506292
Pt 8.095743719066173 10.597991401311893 15.327448037968598
Pt 14.278915293180926 12.091570219425133 6.897845976072265
Pt 12.081143724647744 12.053476229696821 8.794478252605101
Pt 7.89932651790224 8.241147867914906 14.089349595964547
Pt 12.471798387467386 14.088149364225679 7.119000142557764
Pt 12.384021928177097 7.482873534913923 11.596697780575626
Pt 9.493871783233315 10.29975642446248 12.896274742349346
Pt 10.125442349685601 7.777034241332542 12.762611445039798
Pt 14.4278222213622 10.85280786814148 9.289767684821221
Pt 13.043676580268038 15.80097526600719 9.052813874876783
Pt 11.873829994684105 12.784317157441242 11.258740334869826
Pt 14.369663643432043 13.517064308898822 9.084084825102263
Pt 11.888699372669318 15.330604142535398 11.54420226051882
Pt 10.271442213837144 9.006804249578474 15.14002845524578
Pt 13.765910157064729 9.794754889257998 11.708849474233773
Pt 10.900980783075019 13.84065789398907 13.582472032392314
Pt 10.36318629425899 11.82337852007475 15.280192928140252
Pt 11.932364898119816 11.032951136187704 13.163695883436112
Pt 12.601378087476302 8.64798487287508 13.918323916798052
Pt 14.451764733744644 12.332998468177081 11.463407220857716
Pt 14.49771576658858 15.068430992065602 11.149121018868154
Pt 13.563128860169941 14.064810861351017 13.323377493073119
Pt 12.439640605960916 10.330397483741008 15.928604343997213
Pt 12.684222706418954 12.933867277568972 15.441824914291173
Pt 14.286868749646663 11.43118715320803 13.972404632400252
