35
Energy = -172.74203578 eV
Pt 12.021468060059803 11.160892931339669 7.162473294058011
Pt 12.639740927590907 13.678900326633402 6.666033074575301
Pt 11.458888393050984 8.800936478057562 8.082200997448615
Pt 9.51737323905895 10.662527840560188 8.098591000287497
Pt 10.29143264944713 13.224296515129236 7.746378011481021
Pt 10.780731801150186 6.454563864603534 9.115358726847749
Pt 8.920758051081016 8.329378563034496 9.298732516288702
Pt 14.318005644390908 12.330282186360435 8.115335375121179
Pt 7.206115690957309 10.26225539287581 9.480965698078336
Pt 8.04481293722678 12.800809140319561 8.82321937936
Pt 13.749016472903854 9.918242547707782 9.082723145335967
Pt 13.046362827974733 7.639665268879614 10.10624039061069
Pt 5.729843954866755 12.388629467039136 9.980522606465142
Pt 11.701760440991228 11.519200020427105 9.717385505286611
Pt 12.480576517555013 13.974905745118624 9.282936028248225
Pt 11.979501322932132 5.530352817851821 11.239804498803478
Pt 11.024460537741682 9.196639078878526 10.678553909651896
Pt 9.224696742069339 11.06167528650281 10.911560945936289
Pt 7.720197905858363 13.088341844605784 11.561066973013833
Pt 8.02711868099737 8.861935971678658 11.828928411723595
Pt 11.375466754198252 11.4105112916771 12.25802730113773
Pt 14.11382005096776 12.12543333472515 10.727477498981317
Pt 10.214384660721633 9.07913016251625 13.414202767140186
Pt 10.042353981046233 13.758031046508387 10.391193751261705
Pt 9.877847888178808 7.0526181180592395 11.635712668813033
Pt 6.256132425494262 10.842396202926432 11.997544908847384
Pt 13.61260944332835 9.7099858164489 11.775641009588137
Pt 12.365813654463757 7.562918654178941 12.822263681259098
Pt 9.80744016963018 13.409096046825509 13.063512577845026
Pt 12.309321979036739 13.878140654764547 11.868678779617294
Pt 8.415838518436676 11.063443822787395 13.475866710373195
Pt 12.049679360839695 13.625444465800998 14.532336016109248
Pt 13.649272999211215 11.9219491892186 13.34530410887337
Pt 10.736053159471233 11.373305065145399 14.75232700679248
Pt 12.687156514304345 9.625810744864964 14.281535465670519
