32
Energy = -153.52157423 eV
Pt 10.57163503820498 7.163929619535419 12.932202537409943
Pt 13.03963364810427 7.8542041153126165 13.58704919843492
Pt 12.512203032745218 7.1348304699791685 11.109195167003966
Pt 10.94696454041243 9.241522073332291 14.535697285548538
Pt 13.295087466757696 10.516926319989183 13.817317032065294
Pt 9.047866958237101 9.382131724369364 12.619929348239467
Pt 10.067900949287866 8.190590055223057 10.499966167705928
Pt 14.045717054417386 9.376075004648623 11.56329302985391
Pt 11.522226864083441 9.810352977849028 11.948976709101347
Pt 11.676705099428135 11.607277114007385 15.546512431589548
Pt 9.392861883946523 11.34698309522621 14.323577367115016
Pt 12.434170870407971 9.188508411159184 9.530100742979522
Pt 8.546389625511356 10.290723243647685 10.198197511162745
Pt 7.58627938930013 11.432956989783717 12.400867162936517
Pt 14.34466704022286 11.891793898885101 11.878554120718915
Pt 13.561378459031616 13.004911389293996 14.413075077101855
Pt 11.38374802538355 12.646159343770565 13.069023981323381
Pt 12.6266519334242 10.629115160190144 7.592161497362872
Pt 14.476972475954135 14.486833286369874 12.392374135451803
Pt 8.915537387798492 13.648906929702054 13.226545450755781
Pt 15.072077822215439 13.525508434328424 10.048545302016933
Pt 10.097053175903177 9.491039277070488 8.219206725204222
Pt 14.722165569241808 15.180163806204572 14.75264357709338
Pt 7.693314678547189 12.789235098636043 10.142681246993073
Pt 13.329799374914305 12.89075434308201 8.3636036542416
Pt 6.591250383076026 13.828023725367178 12.209150007944896
Pt 10.764135669432575 10.285431817178832 5.8712710812741085
Pt 9.66706652614413 12.024634236593034 8.624592820815867
Pt 12.574685599095211 13.621743629172745 10.86085435195528
Pt 10.005909239200262 13.389034774370916 10.978576337195083
Pt 11.223697911503203 12.682415615089438 6.7514542168963745
Pt 11.087356252040902 14.270393964605264 8.81591466848167
