36
Energy = -178.36252326 eV
Pt 11.857840438097254 9.393479878783992 14.889611356588912
Pt 11.788007292902098 11.916255808487191 15.454287991646225
Pt 13.451169210894705 8.24359183284138 13.214003765694363
Pt 11.578250688543111 14.51512891274875 15.601683156841919
Pt 13.565886645158303 10.884150123771027 13.680077743398137
Pt 10.902282234083419 8.679812831811457 12.524179859834659
Pt 9.905255677980676 10.713773488201413 13.888351196645402
Pt 13.449914371737119 13.529860753518426 14.099709298669557
Pt 15.058011093902252 9.936793045006885 11.73826442197297
Pt 9.65782789464246 13.382112627319916 14.324762349991712
Pt 13.336464134647631 5.831509053126782 12.292178720301868
Pt 8.656614889596531 9.887137202532633 11.703899893844747
Pt 7.974630625458579 12.073738924026836 12.912463115100554
Pt 14.91368902649418 12.530839500968323 12.187462404603046
Pt 12.456942435015238 10.513078642555781 11.171098681317835
Pt 14.77173699593325 7.4860928287340975 11.017804200929387
Pt 11.332983256421466 15.150441187428717 13.043870963365666
Pt 12.178491478747151 7.359728264848585 10.538960630450076
Pt 13.957539987548124 15.13421723774403 12.1294536863521
Pt 9.635806793267234 7.78510905303133 10.41767478693489
Pt 11.566377968677482 12.592221394528748 12.440056012156413
Pt 9.113934788613356 14.109962807917857 11.82378775689352
Pt 10.185081131562228 11.606364539513743 10.497569694908877
Pt 11.906533342893422 15.607107675462027 10.611145413154068
Pt 7.721458628717783 12.270245211380365 10.32318715189975
Pt 13.80857526505999 9.206906755718423 9.279038939814216
Pt 13.203887156106896 13.355195495961565 10.366258139570702
Pt 14.952639039115466 11.56814794775244 9.67264795814384
Pt 11.18596925592102 9.31353061394966 8.997936605452416
Pt 9.453176022780873 15.613598698835755 9.857095477834001
Pt 11.03519352471765 13.614881825128748 8.99281816290893
Pt 8.518403797975639 9.616961514584128 9.040480204388903
Pt 12.54464815824486 11.490900128064503 8.523733503639415
Pt 8.477897005440932 13.779259275655045 8.381423502486083
Pt 10.03859353093464 11.479978971321193 7.751646717681263
Pt 7.409204860840797 11.505065161637228 7.753535244229863
