32
Energy = -156.65200499 eV
Pt 6.636101246904906 11.82913745938715 12.303091172822528
Pt 9.336079498414842 11.774795603749597 12.582020276518737
Pt 8.062497285462797 13.852731094140715 11.527245770849055
Pt 6.936659942673762 12.025899729664498 9.744253318585342
Pt 5.797219764768191 9.710163291076531 10.899380848007354
Pt 7.777457514246519 9.541207087055632 12.645400864224282
Pt 8.853148481056788 10.418741681097336 10.28598506567432
Pt 10.681036433046566 13.789697874921067 11.414932466664187
Pt 11.981138176026798 11.488855904095272 12.499053146096154
Pt 10.414867048361842 9.427968748946888 13.055697452442626
Pt 9.19510117676329 13.358541575465136 9.222972646937272
Pt 7.648186365010598 7.83284530837599 10.53648460406149
Pt 7.1605348704039615 9.526306879793271 8.56733371038284
Pt 8.872069886278325 7.218365702693876 12.849902791065817
Pt 11.716693125184275 14.132121107385505 8.931695962541461
Pt 13.231856205789896 13.303639558160066 10.914555696425966
Pt 8.125525581377103 11.832299807122611 7.4121783942159425
Pt 10.884000344327477 8.914316802690532 10.55372549414206
Pt 11.444507290454787 6.944823082922258 12.707338366866239
Pt 13.283541558456955 11.746062954478482 8.658407325086158
Pt 14.342987647386995 11.019126940361932 11.199879814414988
Pt 13.03528294784904 9.028108296334327 12.246657896895233
Pt 9.558236731665772 9.714528323324766 7.4410391065821795
Pt 8.830586149128536 7.340368914300163 8.234469316483509
Pt 10.810744157372836 12.006544364149029 7.57315854771735
Pt 13.040738744065493 6.881886040742628 10.64707296976147
Pt 11.189229594657073 11.447624586716294 10.073516535860055
Pt 9.955581579804134 6.547130064800583 10.510500032200495
Pt 10.65734196759201 7.712193699454602 6.275811602350633
Pt 13.451861178746151 9.256494032222829 9.505809910651218
Pt 11.645956833865629 7.429504054594709 8.584027102575615
Pt 12.200794520074416 9.734057657202516 7.201382349859452
