36
Energy = -178.07529196 eV
Pt 12.829979329051932 8.491671214503592 12.583629315742595
Pt 10.745671803898489 9.362877241862728 14.060263825576987
Pt 14.911868281115678 10.03580136398201 12.333811861335853
Pt 10.555238196991025 7.077942985272764 12.634922966698829
Pt 13.933553971036506 8.955792938294625 10.171262922483173
Pt 12.812922139802527 10.977695163627839 13.58970687797693
Pt 15.595067953610865 11.117531707973296 10.032013777327094
Pt 11.745162178625725 7.394208859198366 10.25417748767546
Pt 8.44588491638651 8.705886389469487 12.85029947266416
Pt 10.666546086357178 9.600268067959279 11.397264822891975
Pt 10.457806298449135 12.027119945541152 14.133264150153304
Pt 14.1860848740636 12.54695770827504 11.826200531704798
Pt 13.11081901954552 11.319390850834445 9.446266192670734
Pt 14.511221144901608 10.039046326197264 7.722279936481849
Pt 12.880606684823269 7.990302094189526 7.9865584619124235
Pt 9.068825881643344 7.663518273437009 10.464670607500166
Pt 12.431179919772129 13.6596148409198 13.58618279688312
Pt 8.449690833793706 10.544313396797582 14.756029187225048
Pt 11.58028113612088 11.994071539839538 11.4639932235828
Pt 9.02572132648119 11.492424246337654 11.273882188333165
Pt 6.566971731874603 10.480425977726558 12.890381045144917
Pt 10.31812807204228 8.465574056213027 8.253739069913095
Pt 6.65043071903137 8.73139456969728 10.898947585969816
Pt 12.513010321657966 14.462010367839104 11.07162406843214
Pt 7.991921251797527 12.679085643585843 13.278575741274935
Pt 12.599617470845311 13.676105630925273 8.578814025878705
Pt 10.530458139054478 10.940986864476567 9.21647673509349
Pt 10.058621532454467 14.158076149659484 12.343544969729718
Pt 11.933246570582986 10.282976366361112 7.021618161738615
Pt 8.011941495869495 9.562686498682034 8.886726608162723
Pt 7.88407501509463 13.725752306644198 10.75977092583726
Pt 6.6414941085777395 11.321193691588777 10.380001910363786
Pt 10.272939299780225 13.720522137093273 9.648613839273347
Pt 9.235742456143132 10.448320348313707 6.748553656898752
Pt 10.683589048050143 12.620011725664298 7.150559716198748
Pt 8.241677012703503 12.330973538040478 8.444859837789986
