31
Energy = -147.71446317 eV
Pt 11.220762140034207 8.075109019236816 16.15690457499002
Pt 10.025008990692404 10.285897826726682 16.358625699148778
Pt 13.012447926421912 8.973987481921995 14.650650531252749
Pt 11.881404179416283 11.29389004188502 14.913175708039914
Pt 15.116151766887363 9.378661126970648 13.347454392888702
Pt 12.674317527453981 13.761896691120564 14.256321332894546
Pt 8.438207962974618 12.132740730043496 15.746088702005032
Pt 10.27107346955985 9.286859535622682 13.996704591113112
Pt 13.733965854204298 11.687908390277139 13.175603300326683
Pt 12.18268931862035 8.72033396501383 12.212777609226883
Pt 14.411627631346464 7.957538500998842 11.267054607463873
Pt 14.484494239707683 13.938833884655233 12.305405717613176
Pt 10.181297677375522 13.097828546708442 14.194111477957478
Pt 8.530623087053819 11.079800778265584 13.399824090100982
Pt 14.610626914150195 10.421021049830603 11.044279143753732
Pt 10.142124666301372 10.189539689869614 11.59815680871229
Pt 11.023336562002648 15.045191659665296 12.716034417255441
Pt 12.191613942527118 11.83120662019236 10.939240511287647
Pt 9.442669576639036 12.796727170236082 11.685168545287176
Pt 11.765907700862096 9.41022402872504 9.69608369963853
Pt 14.353199240146495 12.690323907784908 9.777758463896896
Pt 13.577833818769983 7.821260956883501 8.882055849997162
Pt 12.517322015898008 14.391722937386438 10.76034133654544
Pt 13.935194525108136 10.40120685215084 8.627246763288191
Pt 10.25293138605045 11.437832655329535 9.287778556630919
Pt 10.018631121166816 14.91420756604183 10.253907444228709
Pt 15.488246533518382 14.959002691043773 10.200451792338196
Pt 8.448717758544024 13.197752743726937 9.310722328903505
Pt 11.359063121451669 16.914267589790864 10.973055544362174
Pt 12.524604999543207 18.79356890781312 9.871981023791372
Pt 13.737715481134348 16.667467589645035 9.948846570623605
