38
Energy = -188.34887016 eV
Pt 14.189648183260523 12.922193453490081 12.712210975174587
Pt 12.021810528606624 11.817489833121915 13.96199485681318
Pt 14.16192506626986 10.341675646756856 13.346817783562997
Pt 11.905269453664072 14.425353203101226 12.846200027462823
Pt 9.788839856637871 13.242196780345097 13.859917253232043
Pt 13.608751845701107 14.772098155815318 10.79626273192566
Pt 7.973995612936597 14.889346234837832 13.087941461019225
Pt 11.772799623171016 9.151164346277152 13.508877977382033
Pt 9.652621373442921 10.680294537437264 13.694930589496472
Pt 9.83290434735783 14.566803953306268 11.237312324574914
Pt 14.459095783224365 11.151630335499057 10.868106927020811
Pt 11.913120860710146 12.300219011465334 11.466603850186198
Pt 13.93268253917709 7.77058662631191 13.525070700961965
Pt 11.611762304915722 13.709533645215949 9.381790188893392
Pt 7.43494655245655 12.184665660312739 13.00725087497019
Pt 9.430966366394268 8.106965551509228 13.467573771523268
Pt 14.075196331279365 12.90127001382176 9.072751739082465
Pt 9.46586687403529 11.750050633747712 11.325762904539072
Pt 7.264847639972837 13.946806412403594 10.803757157281082
Pt 13.447260916188116 8.572931947741948 11.179238874245057
Pt 12.019634851416937 10.321794822662177 9.891580695212946
Pt 7.57959774524852 9.651274519722644 12.249955221132074
Pt 14.914784635595256 11.363104861045544 7.289896721500247
Pt 9.113091960471039 13.009299891155786 9.13270216002839
Pt 6.937598434633842 11.433780321090097 10.383579031820224
Pt 14.527299459747447 9.450236215420597 8.960230890156113
Pt 11.005356972593034 7.592918390085284 11.33731791166332
Pt 9.619557659309148 9.464847953094136 10.151084602905817
Pt 10.950444746199357 11.618767196426248 7.919928825208959
Pt 12.782351297148564 9.95239777460206 7.063274949723432
Pt 8.319830662282119 7.2166966385094735 11.387273850291864
Pt 12.220234387439927 7.914894885209045 8.891002062218577
Pt 6.915150683661386 8.947220267108484 9.725505621555602
Pt 8.403605204617792 10.664687880322868 8.224077521259257
Pt 10.388226725754738 9.086960526732152 7.22309968223239
Pt 9.75631596024501 7.108213087144568 8.988329623146454
Pt 7.240303473916169 6.38991573121124 9.207752744189664
Pt 7.921266489293393 8.168676464914727 7.3819983253823125
