30
Energy = -144.30913182 eV
Pt 10.845668359124536 8.936556706195764 9.04022608343894
Pt 13.20444641993971 9.639942945401286 9.404790238548193
Pt 9.489992725918189 10.027132960746915 10.837957304465153
Pt 11.671518694439532 16.55228820283107 9.624810582100466
Pt 13.76885688513677 12.148379191129937 8.850772433376333
Pt 15.652239285419245 10.364323556093531 9.528515960669006
Pt 12.039017942061445 13.954659465992943 9.50746403667549
Pt 11.209695212013102 11.52269211285765 9.562633409123539
Pt 9.79726092988191 14.859492711746952 10.316380326410112
Pt 10.609210724425052 6.572366648526566 10.01359250010174
Pt 9.321317926767478 12.568015751606948 11.271805799874182
Pt 12.633737193371616 7.715297047601209 11.083191386911858
Pt 10.26388206800982 7.972386737822519 12.135815911030878
Pt 14.423991058289497 14.336177458054667 10.521574384788325
Pt 12.498234839457941 15.528321107274904 11.866266472382765
Pt 14.447039600336689 11.82837002892704 11.302512827089467
Pt 10.321819474894518 16.880705883890652 11.944038494238303
Pt 7.977926149034511 8.263119374754133 13.191689280741214
Pt 14.551991911202862 9.3090926852558 11.76942827475444
Pt 11.884999875623778 12.565331319579945 11.899503797804256
Pt 9.395985102135997 14.690756141011395 12.930099497579425
Pt 12.47276552463028 9.06832231284293 13.32186713082851
Pt 14.116772618261058 13.801896527040237 13.007359708536017
Pt 7.9950126638920125 10.791822466747982 12.737404689792266
Pt 9.985540229981122 9.691753916763695 14.069490961862924
Pt 11.596893713687598 14.080967059714599 14.059104489068263
Pt 14.328009340230782 10.95343568070028 13.797183154590767
Pt 11.823528513720754 11.37570582973028 14.314013145558862
Pt 9.459675751743436 12.430235777453756 14.147548037742423
Pt 13.625534169941323 12.983017295277456 15.355524583488283
