31
Energy = -150.73016573 eV
Pt 11.724798879207869 6.430337434613714 8.569825375912925
Pt 9.796377134130168 6.766510453788516 12.240834564262771
Pt 7.789439106086792 6.633679437125404 7.586427852853099
Pt 12.258346638693505 7.669818997377461 13.45323650371688
Pt 12.225943710398667 6.8208072267439945 11.029027363090707
Pt 10.046857172718715 7.923878560701259 7.214619166494802
Pt 7.782765422311942 9.114700926595596 6.785655660392322
Pt 9.359077979289987 7.1575031620387835 9.648252320575654
Pt 8.173515869595622 8.845550829264656 11.646636233522196
Pt 12.149793905770784 9.002506534550282 8.414847613857962
Pt 12.732772807346993 9.967557646834674 12.338231409556883
Pt 7.057510611680288 8.51756469502582 9.328001151410572
Pt 10.88314100351177 8.965009813689187 10.693450147403567
Pt 10.135565032934988 9.142938224798709 13.329595678002807
Pt 13.840340338670897 8.785485168783747 10.361474445482504
Pt 11.151662341639604 11.402185751311414 13.951739453652282
Pt 10.584209611778109 11.473341577786943 10.572874024975679
Pt 6.081165439050766 10.697505540722457 8.056257460477035
Pt 8.854704100541099 11.272587638398132 12.481735061182519
Pt 9.05750256457468 10.255445256731695 8.896288828330192
Pt 14.025345046965834 11.389586551481344 10.422076270395289
Pt 7.187248315745736 10.981100275624486 10.486795688527499
Pt 12.243464589075574 11.593164744162637 8.63487017013842
Pt 10.630887610342313 10.541031420734333 6.853496344209796
Pt 12.376227027265832 12.661766375311776 11.967087470039578
Pt 8.131099248036298 11.630296051486363 6.5608135692577045
Pt 10.094948383944544 13.62518145503592 12.867338271526242
Pt 8.29281451659007 13.426202083069873 10.96626349136562
Pt 7.254563539789016 13.030717869930886 8.689783324597567
Pt 10.772272254336833 14.015583757714266 10.276474014416705
Pt 9.833852765315065 12.775201574603951 8.178654434573348
