38
Energy = -188.48557447 eV
Pt 8.238995405386317 14.279933565374357 8.534978745359512
Pt 9.58051939372064 12.564052412335535 15.085057478526746
Pt 9.897619826230699 13.7683902893203 12.751553606266885
Pt 7.951510415259121 12.646239602383131 6.517373824768852
Pt 7.451805614050598 12.876524425654809 13.460881950890379
Pt 10.34830035108885 14.188165765511453 10.146343369789363
Pt 7.848231769689787 13.68388822424492 11.034022890724552
Pt 10.329373297834891 12.80471451879292 7.708722802252615
Pt 7.542296069720082 11.780112243741588 9.003835059475305
Pt 12.01634025545739 13.431726886204665 14.341043120328386
Pt 12.34124278851021 13.793592026537786 11.721469947789208
Pt 11.584627558236352 10.840492719892687 14.833661790680441
Pt 8.071777237369032 10.376063703463757 14.056528464826725
Pt 12.45824462020689 12.780834772282999 9.256546134599876
Pt 10.150238813902076 11.203841113992182 12.713702904260751
Pt 9.118074118244584 10.422962472066633 7.242003095749366
Pt 9.906600267373253 11.63143655142761 10.118084802842544
Pt 7.560910301273514 11.025900751784048 11.526046267453069
Pt 14.41192580950666 13.845201343378392 13.296990235215905
Pt 12.238900620794594 11.020922104065386 11.273218796439382
Pt 8.30452013760808 9.353106303927849 9.569662160776273
Pt 11.803340589500237 10.629935874824818 7.623339759313876
Pt 16.182067483018386 11.948898261249205 12.79989786433594
Pt 10.20521830591602 8.871516327902398 13.783397510611485
Pt 13.824693318994902 11.363548582480123 13.717986509107503
Pt 14.586102620108248 12.551703742824742 10.843929989963287
Pt 11.038308207631514 9.306840547382338 9.736174428237756
Pt 8.313606559306729 8.447934892623074 12.01855754122057
Pt 10.471731977843637 8.287750650301428 7.33009038279799
Pt 12.724654349358522 9.082694737576608 12.982221921397198
Pt 13.948135104408967 10.541787751615244 9.215087855509687
Pt 8.986630180085237 6.915978954642611 9.937296676169296
Pt 10.89587852125581 7.590101175595739 11.673600767102547
Pt 14.888695559809584 9.92908770665741 11.644145533510097
Pt 13.175517198965725 8.373375442573598 7.906858985589496
Pt 13.318188629649509 8.12520466093701 10.575136053687716
Pt 9.584567002268097 5.94578347842097 7.66338792376479
Pt 11.584099799123122 6.653245494717541 9.240652927373416
