39
Energy = -194.52971399 eV
Pt 12.394195680930999 15.082718081809045 10.178238716504232
Pt 10.516325490005649 13.040360369782137 13.726624393562378
Pt 14.767815190997638 14.413849142465898 11.072743243629317
Pt 10.183233594687096 14.829533170037962 11.692686329310485
Pt 12.982996977895255 12.433224387895786 14.590190391051902
Pt 13.637756674765594 12.184186569257038 12.026139224728366
Pt 14.211973221909616 14.0615094058363 8.533167727800723
Pt 7.878608363532052 14.283346698599946 10.330521360937356
Pt 8.73924456345873 11.369339204392693 14.6074431963217
Pt 10.060453987179212 12.348544367820137 11.18382515075246
Pt 15.104557076702871 11.908630216838061 9.77208176134688
Pt 11.607063015964764 10.599180271384615 12.58269210805483
Pt 7.606624257735324 10.297766104909593 12.50881402142651
Pt 13.618592390585887 9.719520185761569 14.1786167613612
Pt 7.960271960302766 12.931346153379637 12.601822192663159
Pt 11.860003436643737 7.871609961312657 14.102804673145686
Pt 11.211530353756602 10.487094699281146 15.144109498913805
Pt 10.03625885505016 15.124751882866162 9.077941111981861
Pt 9.549382982945925 9.004463366966514 13.76165989411413
Pt 7.885187191282908 7.632675619469848 12.208483126357104
Pt 12.538645998262165 14.405242804112195 12.737426582429393
Pt 15.508394725868055 11.393420133755173 14.131090763805148
Pt 10.548304707559785 7.346560908645424 11.858412565968326
Pt 9.671686717650118 9.821462003565742 10.993397332853812
Pt 7.0942997550683655 11.786860686447639 10.279885312871958
Pt 12.96911898857178 8.43292217685549 11.726075616328563
Pt 12.150993128661428 11.348833725351836 10.134841540625143
Pt 6.703062709126225 9.16214180975301 10.35160201219497
Pt 15.020387836643627 13.990461703198418 13.692039339202845
Pt 11.737646872961228 13.264925190987277 8.3034203239059
Pt 9.236410978259036 12.600181076920853 8.741322144021941
Pt 15.085839209905219 10.072785764408962 11.839468324265777
Pt 8.897389584971608 7.634693916913256 9.742541329597023
Pt 10.94033329880818 10.692769983801796 7.930727589293562
Pt 13.53792982148117 11.45851993243585 7.695692552182964
Pt 11.410777177059542 8.554468524309764 9.516189540199724
Pt 16.45415058286412 12.523881528449282 11.945641829015743
Pt 8.508470074997918 10.09838090318574 8.718400179162233
Pt 13.912853675167355 9.52660847705576 9.519991348331594
