35
Energy = -165.2207131 eV
Pt 15.628551373563582 12.44786309425175 8.56943935676937
Pt 12.537427278712295 12.1146590677851 11.527734590713143
Pt 5.302643411240479 12.504454584155999 12.05759998550747
Pt 11.200849145743868 8.37528465478035 10.260191008858069
Pt 16.43286759188063 9.009713462855002 10.909211189211302
Pt 11.585071359408394 14.09694348010501 15.140609150531228
Pt 13.335713313040019 15.806178309413156 15.18228320770241
Pt 13.802720389038386 15.179726511079215 12.859660071861029
Pt 9.258998544083795 10.5712391933016 13.537441952517321
Pt 11.647684677615468 11.729204613154156 13.979552053774452
Pt 6.873234966690998 13.061427024006708 13.936791880747043
Pt 11.894630043760271 14.849581903171268 9.959921018906389
Pt 13.831872835260885 16.35971208164731 10.642863573660373
Pt 9.322760391447757 9.883341812837267 11.040287905653564
Pt 12.797917152696852 16.579654242510077 8.279478936883777
Pt 14.320839583836355 14.583899868723915 8.373555143558763
Pt 10.780457390851463 12.043835281199133 16.42511720448634
Pt 13.038612654540149 12.291933100897143 8.853975623016899
Pt 9.460784231219689 13.434713399535214 13.821882110763525
Pt 14.218534467853017 9.400217901885057 12.255160619760423
Pt 8.389557956006144 11.866102462767865 15.605351596409848
Pt 12.666209979988938 10.556461158250238 16.874811565457247
Pt 14.558450698261728 13.780837922862784 10.874903367059304
Pt 15.396885159670983 8.924184017397797 15.47905266269988
Pt 10.59610414589683 12.946610227202715 8.9963971576255
Pt 14.776248698237168 9.664118022315588 17.69876181441504
Pt 11.605471204687444 9.563805968258967 12.542547478739612
Pt 13.240667043618163 9.783239345261205 14.590281617327227
Pt 9.926314327126391 12.401065219643378 11.351426699526355
Pt 15.243625021109919 11.265167314451869 10.76100956953085
Pt 16.476030150692125 9.446210471759441 13.375867168970073
Pt 13.06292454333874 9.985127672753608 10.004828673817634
Pt 7.57854946587309 11.587426924269845 11.961953744294982
Pt 11.435596107223263 14.345557548890786 12.421126330906251
Pt 14.2716238932923 16.056931334125316 6.345353165843655
