37
Energy = -184.01073298 eV
Pt 11.211256388705609 6.5690204529833185 12.197264074627718
Pt 13.344899689633747 8.18417803917665 12.27224044283374
Pt 11.070129631809335 8.675584178219726 13.72583052861061
Pt 12.625552777542913 6.789941603233839 10.00831579558795
Pt 8.99754132693324 8.025850528798344 12.170633347440898
Pt 9.9168423237549 6.938880926730939 9.85288058115702
Pt 13.051699687204705 10.440256420073355 13.641655442235349
Pt 14.921373223962306 10.311294144486608 11.881434973631121
Pt 11.09153797149288 9.056494051990223 10.796146370374911
Pt 11.687045329196666 8.442330762697352 8.164164943243717
Pt 12.05552417751797 11.367015975354853 11.40595300691962
Pt 8.78713989107642 10.001309427630478 13.999133184587127
Pt 9.151397041679424 8.007634225029097 7.5691364165340165
Pt 7.788710603094132 8.53150216503444 9.784435220471849
Pt 10.991771732654755 10.734438795686719 15.24643930735457
Pt 13.973405743780878 12.90500292176623 12.307326099046794
Pt 12.425246544694406 12.804650529964102 14.506508400275457
Pt 13.618655823901628 9.226986219863917 9.77389697249942
Pt 9.482508630745553 10.919464118489607 11.683838244055938
Pt 8.255192525219927 10.40480271808954 8.065965407881464
Pt 7.076862804081613 9.758340272457424 11.984914044893273
Pt 10.409711644373202 10.157887711920191 6.634274595509733
Pt 7.56868588843253 12.273193497771304 14.159696072742852
Pt 9.98217657519744 12.796648444179006 13.713317523511334
Pt 14.283638636031739 11.782337186647027 9.87844452350496
Pt 12.774898216232307 10.809759297177594 7.8412206370378
Pt 11.716916461806587 14.36524316964904 12.565595269442277
Pt 10.556756610084987 11.11479688200396 9.319827967175241
Pt 6.283069383250888 10.775546074051315 9.711237172517848
Pt 7.209583392456298 12.376793759020252 11.641477509511601
Pt 8.896778840131898 12.496162239576957 6.648906114478009
Pt 12.352230606414828 13.774987652482631 10.18704567119067
Pt 7.965346225286701 12.762555685239034 9.183944245425273
Pt 9.612808585819508 13.547951406084449 11.122927070191876
Pt 11.502809289359746 12.603800343675312 6.432405726614065
Pt 13.514372426983908 13.32593255127401 7.940431604933502
Pt 10.375974344586384 13.583616454708872 8.546115037635834
