37
Energy = -183.70456263 eV
Pt 7.538369466146943 13.1839192245195 13.968686471443037
Pt 6.8233230400070415 10.861482285136331 12.86293690159669
Pt 7.6427614348713355 12.887751993219583 11.254682559565836
Pt 9.664195811866799 14.324943623153965 12.724230560416066
Pt 9.152321467600396 14.644181729924968 10.029095501046854
Pt 8.203983868836165 10.852633733901456 15.084828238086503
Pt 8.25164814988297 10.196425745988517 10.807244713229286
Pt 9.968233152719153 12.859969019455962 14.96230245035355
Pt 11.969164681574195 14.997113555689696 11.63559849087601
Pt 8.998467372024288 12.117718142249105 9.045079831066365
Pt 9.591111047694888 11.680947372311605 12.540965052854279
Pt 11.335682577466615 16.059416950187458 9.370357304325495
Pt 9.220829026959365 9.218197880561126 13.223294372186304
Pt 11.16107820875856 13.773496101025597 8.199630129143614
Pt 9.534416667398231 9.580873684802459 8.676564449983928
Pt 12.221803120016679 13.707590515687064 13.833087036123912
Pt 10.90383317646352 12.862360492502948 10.598690034603873
Pt 10.666925429813904 10.111865706369832 15.34359092252274
Pt 11.96779810031385 11.21828975450839 13.254248730837615
Pt 13.489679254131456 14.472800261757678 9.499183819983632
Pt 10.909237164709998 11.362116540569387 7.306024987597424
Pt 10.650277460677836 8.984171144296953 11.015779524305986
Pt 11.862752006909785 8.694266736049492 13.297034327607173
Pt 13.245296909667639 12.070342246547405 8.300999145844294
Pt 14.115473503780555 13.463695721888303 11.95868444931855
Pt 13.250491853875886 9.691635532705375 15.498407309335443
Pt 12.948343282255452 11.389138618848067 10.91354315327326
Pt 12.277328382016837 12.138822586182231 16.010277428589077
Pt 12.128736520098585 9.707832003877067 8.913676017162624
Pt 14.278576350470036 11.850332540247605 14.131634023192628
Pt 14.561842165872125 9.23677552850772 13.337157281501433
Pt 13.266058538127343 8.694587111382814 11.057158063882865
Pt 15.37722911507574 12.722521009975544 9.679693513524647
Pt 14.693942000139936 10.002532619561272 9.176373675855688
Pt 15.609593044088138 11.309170985883727 11.964248175531928
Pt 15.928398135016392 8.809400654980186 11.201336242296255
Pt 17.09278711921254 10.762669252084619 9.825663717476147
