31
Energy = -151.02412674 eV
Pt 9.445794075653728 14.592867465174242 10.913235328678544
Pt 11.165074665214123 12.944333840896176 7.0536930788306
Pt 11.432746113819546 12.625327527649834 14.391956428066367
Pt 14.53383871767462 11.029555923299757 10.437472180794897
Pt 11.284053292188435 10.325740690602789 7.198144999201564
Pt 9.162858362723844 14.113384127350429 8.380784782531022
Pt 10.97235042090938 12.019700252628263 11.964131957615646
Pt 13.210661447631331 11.974476731402298 8.42483010796875
Pt 13.843309390306764 13.51321979981654 10.527649567124785
Pt 8.355658285912835 12.028819370437539 9.726124133199342
Pt 8.890820046212886 11.666499568887986 7.181117423573686
Pt 11.574823043355726 14.087844137480536 9.421684284720062
Pt 12.905137719142738 9.40542171952828 9.206107955770165
Pt 9.056098945891952 9.566159995642765 8.855218009658724
Pt 9.729783204867259 14.496174536676822 13.555581826582118
Pt 11.087560689814756 7.910263093981849 8.179802859443578
Pt 10.863090690016163 11.48895874745367 9.492708641960549
Pt 11.927306755245311 14.361925700418297 12.079367788757596
Pt 12.099619138135063 7.313575578066642 10.630371431806923
Pt 9.447298308558999 7.396512743613405 10.103903089063198
Pt 8.48307297252025 12.589855762691007 12.273023210219169
Pt 13.306659971790449 9.325003994328357 11.875934145300926
Pt 9.445037431510631 10.843924821898828 13.947680160485943
Pt 10.619348499348886 9.548881431730075 11.304937518845184
Pt 13.404464372701243 11.877398180342452 12.6424350652545
Pt 11.99452854623081 10.018375841973269 14.123494964491622
Pt 8.10554315138321 10.122560566977755 11.549029489460006
Pt 10.264542925146895 6.131243986917612 12.266862222955785
Pt 9.926835624686762 8.399883402280938 13.527712044698278
Pt 12.338388918596213 7.429483679045356 13.307383485971288
Pt 7.896543595233393 7.607883524090654 12.121497124954217
