39
Energy = -194.04132826 eV
Pt 15.647369124072709 12.137220676047301 12.487546270443463
Pt 15.87383321634917 10.50728500968036 10.3943130086466
Pt 14.224877437267372 9.923221119721969 12.406929270074524
Pt 15.227517119251218 13.105399379224302 10.065304145684122
Pt 12.761194818668113 7.702420217162926 12.162830630911888
Pt 13.194496847556886 12.340841328494419 13.437050812133828
Pt 13.873775377273182 8.867441542337925 9.964379434840755
Pt 14.412262024763805 14.471214054263083 12.439527443836457
Pt 10.909901547029687 7.707270592000321 14.04950098501611
Pt 12.990209620109388 12.015515937115257 10.89252248153177
Pt 13.97657014612727 11.240187904899374 8.63303153944473
Pt 11.811762370197426 7.323203678930287 9.631586823346332
Pt 10.092528241913476 7.380913525014533 11.578835148335465
Pt 8.322930582629565 7.550311243830137 13.589820310478109
Pt 11.568784259499623 9.80015095760061 11.215923185512466
Pt 10.554367582339546 12.258074686148358 13.721052787687018
Pt 11.997532944498492 10.071045961146972 13.83528582611972
Pt 9.349550248221458 9.917037815716995 14.032841762977345
Pt 11.759831663503725 14.441439660609918 12.525192955705924
Pt 8.985225014910347 10.03350187822475 11.410529271142185
Pt 12.277556717420907 9.340285809232915 7.969207579695157
Pt 10.39763001789461 12.119478871462508 11.057249470541963
Pt 9.24202657992117 7.84583603802917 9.109489378604653
Pt 6.731097300104826 9.659258237271777 13.287377200161803
Pt 11.93215309016911 12.965603099595993 8.485151724760339
Pt 7.45953550795849 8.010602289870803 11.158880697637398
Pt 7.917578511689602 12.060097627101761 13.20648931255596
Pt 13.02725948799582 14.574510859961995 10.202991143116591
Pt 9.202521163065912 14.312611821014523 12.696327171543162
Pt 10.371864099768223 14.516696204879192 10.127860457471188
Pt 10.055498464365245 10.291670535438866 9.098824170208774
Pt 10.97220542565286 11.287479680786387 6.7430501272451515
Pt 10.089991588341519 8.671847558571262 6.72558626858363
Pt 6.6045552530859615 10.944712979091198 11.068414354313367
Pt 7.9947781500130315 13.223242662523587 10.684720779909336
Pt 6.984557245495982 9.34294106810411 8.98472444469982
Pt 9.326722214245892 12.801077135446308 8.353481483779712
Pt 8.351308816846206 10.588726522343071 7.151096876149456
Pt 6.808606657488774 11.992916507949834 8.715290705624577
