38
Energy = -189.79336675 eV
Pt 9.10359210319057 7.33455207084085 6.7962616440140025
Pt 11.361515526148375 8.652890190958285 7.354558525127678
Pt 9.026941068023845 9.959814362733622 6.892608781674732
Pt 11.264850098760066 11.396602563984956 7.314412034509304
Pt 13.405175358575152 9.980454538269537 8.095734518715428
Pt 7.728607459978285 8.455688384904457 8.761758068402589
Pt 10.055347719578192 6.9222386111459455 9.155033149546659
Pt 8.796206436996979 12.427370160197894 7.361149735883675
Pt 15.367299167482757 11.460811645937673 8.99935757222397
Pt 13.123296522956979 12.804570151308154 8.65660276861886
Pt 12.514220456724837 7.88717044100205 9.656706082093033
Pt 9.986065230103808 9.579266204897156 9.397930700986924
Pt 7.666527950893418 10.383868203626164 10.548373969575744
Pt 10.853550112899917 13.92295743511287 8.314880864476963
Pt 8.321954730277412 14.847379246844373 8.233182563293168
Pt 14.14907593482847 12.414826304913273 11.126837351970947
Pt 14.431009408175647 9.640007040817302 10.577323324300377
Pt 8.494784420796481 7.902403328276133 11.259711439502759
Pt 10.976669664590755 6.62189989513655 11.538793602479956
Pt 9.798091347726103 12.097009665824627 9.884394870655068
Pt 13.34842010374974 7.928144078455392 12.175870792557058
Pt 12.092950092621168 10.924351168441861 10.233060639119422
Pt 9.372567875953491 14.602462771016686 10.616287088110212
Pt 8.536385063450911 10.033346760277764 13.02286845516117
Pt 11.967950290404183 13.994325162218757 10.790505910779121
Pt 10.943981830674817 9.199360511714618 11.83836543787273
Pt 7.325066742443183 12.808051210363793 9.571959923757706
Pt 13.529907222812326 10.498738471161845 12.94482620170878
Pt 8.140940359212456 12.501362213290093 12.095376508666329
Pt 9.585308766340898 7.633347216384658 13.636332468720289
Pt 12.91124395847093 13.124695598613942 13.240244283686977
Pt 10.794528801650914 11.727949489356904 12.351404627107534
Pt 11.932167297469471 8.755458915554438 14.207099559986618
Pt 9.780266770657674 9.689325444463902 15.31119234303297
Pt 11.85926123958875 11.26822006950841 14.8853313223507
Pt 10.35168639389152 14.280546212921541 12.945993705697735
Pt 9.334378934414465 12.205379190068502 14.470625963920245
Pt 11.352560660593527 13.755134164598644 15.303745868395081
