36
Energy = -177.11121823 eV
Pt 10.971775514509543 17.45552595857262 10.933060208754194
Pt 12.90423749197421 15.813972062728567 10.514296231336619
Pt 13.78599920877881 13.419046130576799 9.7834478043966
Pt 11.153294695254889 14.080135795692897 9.92818200510991
Pt 13.48841158121908 14.244603028383848 12.523853935939673
Pt 12.039600234217193 11.408747822112197 10.273454077101809
Pt 11.034026391563902 15.454456317322665 12.562317347503072
Pt 14.408611546400456 11.926630542777675 11.867575407487015
Pt 11.253830434248126 12.771516060705693 12.374031238648708
Pt 11.973767493306424 12.703177739815715 7.924598714100957
Pt 15.012057344444788 10.93791687014368 9.55952222770329
Pt 15.905904754520815 10.943122266481215 13.77944307856609
Pt 9.235925350610673 15.645252914788175 10.354671984681389
Pt 13.319040188478942 10.49797194500682 7.720129799700014
Pt 13.862312486279517 12.446418447270643 14.398240107543005
Pt 11.760053243312822 14.050140437274882 14.639720549112944
Pt 11.282445818637491 10.81461324284673 6.159191468315831
Pt 14.91149386058467 9.41824321554623 11.842273553237405
Pt 8.676736725806673 14.290271216708414 12.486394255038125
Pt 11.012721934782027 9.232537936006233 8.263717438100073
Pt 13.60767820148483 9.734186980906042 14.173441497453714
Pt 8.800004009195042 13.019221441526 10.040673978568696
Pt 13.19293874463397 9.006192051204707 9.881589519752326
Pt 9.606280868657146 11.74545572924411 7.940391224014433
Pt 11.521968877544452 11.418589896852385 14.97125941274426
Pt 12.842176657324188 7.84279755393323 12.252947078312662
Pt 11.678481637090883 10.15069791237968 12.488274496526987
Pt 9.312180387041684 13.001117490386243 14.661314372487775
Pt 10.804203811142884 7.97663308430018 10.513744205225445
Pt 11.259814563543221 8.77350381306897 14.668829949963708
Pt 8.807540017371489 11.680076269753862 12.333381514972386
Pt 9.610586974352202 10.404506885978158 10.162388599120261
Pt 10.515284687557838 6.884237654358626 12.932251140288349
Pt 9.065389362215187 10.46096340580938 14.680342480651976
Pt 9.179044761753389 9.090014919465757 12.347367202585506
Pt 8.776950917860313 7.8857680822899905 14.647155302767908
