34
Energy = -166.23326775 eV
Pt 7.854766822615031 6.4914133357633546 11.263234498426785
Pt 10.177219040897786 6.381840771815165 9.954237966128112
Pt 9.991434134733076 7.5114977049736025 12.37503807372869
Pt 9.201084659752329 7.762393199083029 7.64673885066414
Pt 7.573354334027913 8.947943437516868 12.255554436519919
Pt 6.988874026370048 8.315897563188868 9.579082329005056
Pt 7.119511488353115 10.913303512820516 10.375896103682704
Pt 9.64517280764503 9.436114353952792 14.175894788808002
Pt 9.411659630282395 8.818363218252838 9.917776384795047
Pt 12.373441358882342 7.516682555560687 11.062946670337855
Pt 12.042156956214962 8.53021758991431 13.49631404020036
Pt 10.603940801545718 9.944632905311051 7.199090403794435
Pt 7.526402405213394 11.467260786097096 12.963507400404856
Pt 9.750123304327472 10.5069527809645 11.856557659987812
Pt 11.847819769106014 7.805701368617936 8.37222326799152
Pt 7.842156506312993 10.213175568263095 7.814640456072314
Pt 9.66943732347903 11.373532302664106 9.362856097321417
Pt 7.598079493402773 12.875481003599438 8.56581790741546
Pt 11.71091101078861 9.900986658330185 10.0798800413515
Pt 9.466858634812617 12.313565230758238 6.804679240798457
Pt 11.920749363339446 11.081525050621533 13.608290643595124
Pt 9.716271566706238 12.791132306891738 13.405087832528071
Pt 13.688446342784989 9.743164266386314 11.850738673537435
Pt 14.188146566553177 8.645254677242866 9.448829865656478
Pt 8.443431611179658 13.169152070592357 11.080811121476597
Pt 13.223492890966684 9.928104460630777 7.386563157935433
Pt 11.475266815593821 12.239386365807677 11.060485531526657
Pt 10.125736331436379 13.96448787348805 9.00366032434298
Pt 12.131492674488923 13.718368944310761 13.691596047200715
Pt 13.785348703079208 12.409276393012151 12.091933431155699
Pt 13.954841644656163 11.332514421908193 9.602306800194814
Pt 10.766782246509475 14.585519057693078 11.564559151041088
Pt 11.918760307010393 12.136589621371293 7.934335741087587
Pt 12.835990899401223 13.860160812911527 9.71982887065938
