35
Energy = -172.64796382 eV
Pt 10.594924559090588 10.581361735363611 9.236606968517032
Pt 7.583227936171532 11.286948587551056 12.110617186433064
Pt 10.461747331050743 10.653062671362006 14.445867058778237
Pt 13.069226283995615 8.157650247260918 11.74335170027214
Pt 10.692401265255217 7.427415275957067 10.870498444498757
Pt 8.049147066861172 7.710965497517855 10.30024870271898
Pt 8.356699939795867 9.270614426256014 13.742521204702822
Pt 11.251257068112116 11.946396429627393 6.967452570177728
Pt 9.170921456475467 12.85764781309348 8.371460562955722
Pt 12.369416319838212 13.331848656425617 9.896315408964888
Pt 13.22075849827227 11.287083676167082 8.525689784952357
Pt 11.497470510662211 9.369752565798914 6.791434295914622
Pt 9.06022392352558 10.453302470797734 7.076003233887623
Pt 7.689809324736348 10.989805256606456 9.452976344270178
Pt 10.145718060967395 12.305276234473723 11.204257081930146
Pt 11.935471989369217 10.461865595875322 11.440664682370306
Pt 12.321352631824306 8.264253421728318 9.100627571067779
Pt 9.802645047866456 8.070653557279629 8.376266746092629
Pt 9.43114497844566 9.667448720417493 11.341018864504264
Pt 12.917175001418848 9.974449052623644 13.752320751115391
Pt 12.495053075670839 13.071488189412712 12.466826409113084
Pt 14.629560562031557 9.358026907406622 9.802260324088131
Pt 14.132793515517653 11.706003403673543 10.995200680394014
Pt 7.820436473603682 13.341691397665837 10.64179682749986
Pt 10.084945973044956 14.763247385283941 10.016809259088209
Pt 10.136362456632101 13.207737897138584 13.652701901020485
Pt 8.077006904881737 11.695971567630629 14.5950418175033
Pt 12.323686505197038 12.320728892915275 14.905505680536871
Pt 10.937808481076981 8.24262471506135 13.366315769248514
Pt 8.979120964650896 14.997536831393813 12.298277796438805
Pt 8.687428262030457 6.965471911020636 12.660205453333708
Pt 15.16012966957228 9.67263192054454 12.317128623489772
Pt 11.278125310030488 14.377181049950973 7.78844989177153
Pt 7.282341483447085 8.766543406395574 8.123760290023377
Pt 14.033745044000517 9.12459650719892 7.302803987202395
