36
Energy = -178.81590811 eV
Pt 11.465334639544757 15.211109977433766 14.050496431851034
Pt 9.340894274656227 14.597360668661661 9.400560645498851
Pt 10.280728405997483 14.966493331982859 11.794374624713097
Pt 9.685703573298984 13.280654185108084 13.78145013729479
Pt 7.8119258844914015 12.587106114020902 8.819715091924179
Pt 12.76147319582112 13.093776313555466 13.386736332923789
Pt 13.03580318956928 15.157613194437856 11.835400762185396
Pt 8.434770346341601 13.116248664399077 11.37887215067192
Pt 11.843454709977836 13.951849636611582 9.834472569632876
Pt 10.458402812302623 12.707192540489988 8.006534584270256
Pt 11.066218614834359 12.108760476111744 11.649153726891026
Pt 8.076352905434378 11.255071951520941 13.176655530317538
Pt 9.176922580418518 11.410962444139349 15.532265036531422
Pt 6.547350359338522 10.436219425487899 8.22199057656588
Pt 7.10435044911108 10.858866177283778 10.831173066505457
Pt 9.698906306035083 10.959214930211779 9.815403739876535
Pt 8.957122427901593 10.549816945568248 7.2138980664709385
Pt 11.33402153327283 11.029504463049072 14.086206449355807
Pt 12.836017236717138 11.730376138819336 8.78100530745366
Pt 8.770237032193165 9.089010439591139 11.746350091773309
Pt 13.981873484695297 12.829806921607242 10.868249672571526
Pt 8.267156283823013 8.696138379708074 9.21301602196929
Pt 9.440228719986624 9.159232858420186 14.271329459001338
Pt 11.52101347414314 10.743244206237108 6.710840352024349
Pt 11.85065169570023 8.675180811277617 13.06545725742775
Pt 13.349393751715738 9.317809960060268 7.818898664719639
Pt 13.362351274357083 10.744691934723052 12.460784422211017
Pt 9.82470831022356 6.976553488915962 12.952708271594087
Pt 11.835086027148366 9.725715277322402 10.47460034488579
Pt 14.770586596060967 10.484644399351726 10.119545515771403
Pt 10.15058711598245 7.307771373299941 10.302714050430952
Pt 10.70918698080322 8.706471975288107 8.152488504605879
Pt 13.939466245943313 8.333030512836862 11.493240092364855
Pt 12.117729159896893 6.391767855562592 11.79223094618021
Pt 15.1541268782778 8.077624977281985 9.176887079346876
Pt 12.620788077623232 7.315666363509495 9.380729730124607
