44
Energy = -220.53734573 eV
Pt 7.666916070322562 10.6269309124516 7.593078846332487
Pt 7.785627102590866 12.053881227616019 11.868065616612055
Pt 10.075039885374027 9.742061196919648 8.262814883371044
Pt 8.078602662868152 10.065764462550252 10.133358333853478
Pt 8.005769382263432 14.206844505489913 13.500635706025104
Pt 9.716518533476764 11.189377365715067 6.122237153741281
Pt 7.841051086845942 12.617355435423965 9.202833510934346
Pt 8.915413849414696 11.78540369607896 14.23364482338023
Pt 10.256501961987881 8.545085161944955 10.559719530951767
Pt 10.376378941401445 11.824486224142708 9.81743831049643
Pt 7.976716703392261 14.559139821164642 10.901105801607848
Pt 8.72526860633689 9.68103525327791 12.612252525630714
Pt 12.415613504639365 9.676625606971436 9.422937563758392
Pt 10.203411489596727 14.19515306192149 14.833188011312737
Pt 10.735081596681948 11.912995409478023 16.134848389463016
Pt 12.083214794373088 11.387160864548418 7.3665242567878995
Pt 9.981893659588252 13.20877446235632 7.684078342303605
Pt 10.414284997303106 7.648030188664431 13.074162371284546
Pt 10.334427551161037 12.964076857545628 12.253585084456107
Pt 10.235921547741487 15.535030948428695 12.417396229721021
Pt 11.18076257565359 10.58272839721911 12.005566155755412
Pt 10.617899006068253 9.816003591530208 14.591845093162744
Pt 10.311789825180382 14.577902650465349 9.884476059831359
Pt 12.414227695172055 13.734379014104197 8.558881986873985
Pt 12.224337302068799 12.073178674579708 13.933272416760511
Pt 12.679979383824746 8.446738123697827 11.790678955646236
Pt 12.51646737095036 8.131176510061342 14.479480261938994
Pt 12.409744395233822 13.961880919301265 16.261638425958214
Pt 12.832220954746903 12.263457324111856 10.844910553695216
Pt 12.559431869876029 14.80364154999253 13.748027423594067
Pt 14.539137578438957 9.433918543876175 13.423753278010706
Pt 13.346007136649698 11.503958585591253 16.214430913648417
Pt 12.576045984075973 14.915735639618486 11.164519436727216
Pt 14.365924751563453 11.4940000774002 8.668756565021301
Pt 14.532520128442826 11.949058445405294 12.753948349055001
Pt 14.642626477523974 13.975694960793222 9.820065894150263
Pt 14.567742302213354 10.065392223751966 10.921686924072603
Pt 14.311439401348867 9.170512023556457 16.02139009112729
Pt 14.647840828808913 13.565124332812452 14.92011293299729
Pt 15.798296611809022 11.103239856016833 15.027505069819144
Pt 18.34727482653262 12.635084963932675 11.648887471177016
Pt 14.888459687752906 14.470685124107556 12.409077384769612
Pt 16.84266174106489 13.000066682441547 13.581991008299942
Pt 16.218428129376985 12.096149014679892 10.526111947620503
