46
Energy = -232.42352263 eV
Pt 15.742497629753396 13.020420967897667 11.006188010739455
Pt 14.430759874342339 13.769104289868134 8.878105379773835
Pt 15.086271968028868 10.458234420440986 11.053138808831532
Pt 13.860894628580835 11.129243524622403 7.534715499727283
Pt 15.03752413543164 9.176969644825967 8.746377125576274
Pt 13.759279290132158 8.110926374308562 10.79236313004368
Pt 13.87129849168612 14.977475929184052 11.185880137366082
Pt 14.680031844231298 11.860994442600122 13.232609393077967
Pt 15.365518127045142 14.395640197270907 13.263807729569907
Pt 12.598572735091238 13.382513575435686 7.070729831218213
Pt 13.518355094658881 9.494322339637943 13.059832211420082
Pt 13.199576290038769 11.764246573876118 9.903350806804674
Pt 11.812596367150524 9.797511231042147 10.613695884146564
Pt 11.181958570146739 11.249203069259336 7.706154558640537
Pt 12.435536026261989 8.90308201366938 8.281616372064631
Pt 12.734133479671842 14.876177775981997 13.759314750948644
Pt 14.057103401686602 13.373164831404624 15.367907416654889
Pt 11.15687406612986 15.245321362618663 11.709086621757338
Pt 12.09655168542921 15.003627891269584 9.180032414899186
Pt 12.145212089088746 7.221755715849827 12.707238415993107
Pt 12.60089923955693 12.904853450469501 12.077979910604716
Pt 12.753528865028624 11.208853379288506 14.982547289890777
Pt 10.865065937538155 12.894625556928608 10.029472107646871
Pt 9.541284784860267 15.59354982996683 9.612762126867603
Pt 11.181713046257489 10.945000248940962 12.850742820266209
Pt 11.395796695340938 8.988233129647448 14.700991383971097
Pt 11.20642576488017 7.269354256951617 10.027412738770924
Pt 9.891049830255199 5.856556918122569 11.873467039250203
Pt 10.034449856048576 13.691204154160994 7.689509042807186
Pt 10.447075377542225 13.532352385389236 13.73499169952845
Pt 8.633134398773935 11.43740325248229 8.12208586842775
Pt 10.087937489611011 11.319147553437949 15.30527419341289
Pt 9.981687006647569 8.62597002562626 12.201813920875628
Pt 10.022317799646837 6.827527857308568 14.358700116228958
Pt 9.442834373830397 10.867770015440854 10.72779768442359
Pt 8.881980552662247 13.868201926367513 11.593857527405296
Pt 7.7856582902491285 13.76432029270558 9.149827540162972
Pt 9.804622781390448 9.107373082098576 8.558747459367899
Pt 8.628573483401482 9.289407171990101 14.36566972941574
Pt 8.496182267676703 7.537252530926054 10.31930759476652
Pt 8.530221423432058 11.754471656977476 13.190879947211567
Pt 6.104334074519502 11.869867098264365 8.670331781525974
Pt 7.213912052932191 9.573051689378188 9.329758680916866
Pt 7.78973969516666 7.1239017153689295 12.989104254436368
Pt 7.353416629407207 9.529674575560776 11.974348721933229
Pt 7.055902023951619 11.989803273010587 11.080462390224925
