47
Energy = -238.74450686 eV
Pt 10.070076246946755 8.663600435821948 13.804385400061046
Pt 11.172023631087743 7.738741746293189 11.42509410723129
Pt 8.504854410646534 7.7742309677337005 11.858550183338668
Pt 13.732472921721463 8.256657207908823 11.279468521227171
Pt 15.203200985334812 7.8541579701436035 13.559583490998657
Pt 13.89904434835823 8.967737608643986 15.593015316790432
Pt 11.373393885291389 9.74465088966963 15.982792386036712
Pt 12.56788413788107 7.856031111569408 13.615263762324082
Pt 7.653416685778245 9.68043173328987 13.471913811138132
Pt 9.525419062548343 8.701553598925516 9.599649519531033
Pt 9.24487603534166 11.093825738422918 14.948483683245248
Pt 12.165175325337692 8.939762550379841 9.261805325209112
Pt 10.430754661418248 10.350508363426133 11.570321616157743
Pt 14.668490707371049 9.931317741865554 9.31699884287933
Pt 7.728548928890357 10.224540255092863 10.94489222534849
Pt 16.118654171528302 9.243635076472337 11.44012659877221
Pt 10.979497984413623 12.28626979259408 16.39541498390831
Pt 15.012398034235842 10.45176590002299 13.538371585149937
Pt 13.036410914967583 10.870424666467258 11.287635008400587
Pt 13.530630113283554 11.578207361058498 15.448910238155058
Pt 12.105200468495974 10.469796560512085 13.63204657182298
Pt 8.042811330031482 12.188454275056465 12.702751639788925
Pt 10.475743895100493 9.947581311941823 7.531528675185554
Pt 14.272091517927933 12.937558016097068 13.304086207376018
Pt 10.685333580363958 12.499081021302912 13.098913512206957
Pt 8.069687775962683 10.617715467900096 8.431775439765719
Pt 8.88250831143747 13.846833949486333 14.535025666231059
Pt 13.017260381616534 10.79467299978104 7.505552482122364
Pt 10.450707256316532 14.826134688533655 16.343329538921218
Pt 11.185716990844595 11.74429371082516 9.510406307041352
Pt 15.538167123617153 11.795216469498936 11.25072683285627
Pt 8.567884459576648 12.616099579695467 10.106727791293869
Pt 8.643749494990825 11.016696169514969 5.903501615953499
Pt 12.373320039503016 13.826018926560662 14.829251878084419
Pt 12.307669628466058 13.384489312404126 11.344537744432905
Pt 9.304275706831497 14.427857464004093 11.906970223103706
Pt 14.130305639114715 12.584127942269795 9.125652195389875
Pt 11.166570119928071 11.775616815725082 5.800717158503029
Pt 10.753094885898395 15.639092645722911 13.824628209460853
Pt 13.334570433095763 15.445689849447026 13.070862464315653
Pt 9.465879120395563 12.819541951930487 7.6221336106672775
Pt 12.113446076796022 13.397464864436355 7.596073048483587
Pt 10.423216408252639 14.407593757214585 9.46765534201333
Pt 14.917623625182385 14.307260679129406 11.069063048388918
Pt 11.4411196742322 15.955687936580622 11.30557484764145
Pt 13.070656986534596 15.08938376065146 9.232365537263732
Pt 13.991354852426818 16.778463147379977 10.952339567114722
