43
Energy = -215.23803355 eV
Pt 13.172050564190783 6.760926369043553 9.364678022939614
Pt 14.96286523635948 8.509768385972164 9.971927620947815
Pt 14.574251177936818 11.091238259194695 9.313725420705557
Pt 16.43321652005238 10.336267975687804 11.004112570391218
Pt 12.417300945638193 11.723394117077575 8.037092156335975
Pt 12.635184438090613 9.24039342291004 8.846938600704133
Pt 12.060040165893753 6.650984019808386 11.642765086564943
Pt 12.953377578962789 9.043616163519488 11.497005457516668
Pt 15.551789549318686 12.884563922102931 11.050755708818883
Pt 13.580814788782055 9.226126838993075 13.945700830093243
Pt 13.993393393250281 13.620411437521316 8.982961239431765
Pt 10.485039794111382 8.076211579488689 9.951777322906526
Pt 13.18782768924262 11.588879242594151 11.540349553935624
Pt 10.216252125976396 10.28901204864577 8.693209934132591
Pt 14.242866062044714 15.125940008883555 11.20013364068675
Pt 11.07849316182685 12.357814520145531 10.24076667692502
Pt 11.430299520715424 14.253667909577263 8.33573371641586
Pt 15.224570756221189 11.073297678763284 13.132752796522931
Pt 9.85898240086815 7.874820052200301 12.440385826921966
Pt 10.633221643101948 10.229462355976054 11.611619827092662
Pt 11.79740241031757 7.382730179919316 14.13653028062757
Pt 13.088532531302384 16.078624198241112 9.00757660519635
Pt 9.746829444748316 12.484914001181723 7.506661574813945
Pt 11.39565678215004 9.869382572376903 15.208768383397551
Pt 14.470686738781573 13.597372533488047 13.380284433003803
Pt 8.542803190717525 9.991821175130577 13.281584430819988
Pt 9.364100416618957 8.179919405544604 14.990683539260095
Pt 11.971699089611596 14.060721997129056 12.013060271684411
Pt 12.669004899836285 17.275665980638138 11.3036396507065
Pt 13.48523378486711 11.680149986481556 15.038236298177349
Pt 11.452864568389039 11.884893336403248 13.469050286155928
Pt 9.046158190333664 13.876748441064196 9.640046770419657
Pt 8.609901336502706 11.986944147271007 11.505510590757941
Pt 8.965839816677015 10.63517843914561 15.872378180129036
Pt 10.72852859288925 15.806443988555547 10.439720588730227
Pt 13.303315184496682 15.953127176218324 13.50301079004317
Pt 9.337998500800001 14.402207207240624 12.242355721625401
Pt 12.759881569681605 14.203830825332815 15.369451932473009
Pt 8.95559077257505 12.519446360772104 14.041532658894035
Pt 10.968191955800803 12.383147596372075 16.03659538911348
Pt 10.715895007426397 16.568963976942737 13.006513693882326
Pt 10.224821917811688 14.650371282648752 14.779355005707316
Pt 11.744322788151432 16.638049048967826 15.461354435137915
