45
Energy = -226.50141845 eV
Pt 12.47796762631903 13.262707526310006 14.585443199447937
Pt 14.070285475752033 11.252745981731373 13.94821597044462
Pt 11.773745457266791 10.794471830947975 15.377726826971477
Pt 15.140716784324107 11.174186605925248 11.44489859900141
Pt 10.22506705009939 12.78171829646352 16.075162850457254
Pt 15.223579005791132 8.971855425666764 12.93830598867237
Pt 14.059922599302267 13.427674593856873 12.33479698754884
Pt 12.354328947705534 15.358464253082191 12.969508763132922
Pt 15.425654412090099 8.7420513901587 10.341457583501708
Pt 10.110027553489216 14.350585659286935 13.919233423142403
Pt 11.747780971494286 12.814056372581 11.386590118117843
Pt 10.46758426914999 11.750845409036307 13.310197028982222
Pt 12.988512316434946 8.852511479288255 14.192043885789621
Pt 13.29010052959298 7.702883218574118 11.459186533700786
Pt 8.884049504155364 10.616930158119802 14.973204522724497
Pt 15.075017980404667 10.642017725209428 8.686888649420426
Pt 14.35056719349488 12.980799499149528 9.715181277729735
Pt 12.09841780193178 6.570729969738378 13.440863359085512
Pt 7.939218801274399 13.128004763188876 14.80114026148741
Pt 12.678084965119657 10.31145283263026 11.9399281114317
Pt 12.795706171337125 15.062998924292915 10.375053337683354
Pt 10.233611005370511 15.078586247531488 11.41379825221791
Pt 14.434876857608804 12.507902840479657 7.032145382330057
Pt 10.405679480875435 8.560098632907394 14.48934402957238
Pt 7.9833164716795615 13.936220016532207 12.285055678682843
Pt 12.458067617709489 10.871370914800659 9.488405403274609
Pt 9.891368864138508 6.9584961803719 12.313094354851422
Pt 13.254353778436894 8.505456238578244 8.880736352487292
Pt 12.688110410126377 14.11256674627055 7.9377588279583335
Pt 10.236910538708635 9.565833611251273 12.028022616868176
Pt 11.03114760432396 7.623135501476186 10.029309531510128
Pt 10.771565604494375 12.67625144972779 8.922381215766004
Pt 10.598133972261225 15.321567076321099 8.76885742828827
Pt 7.311958257656708 11.443108440321724 12.920995893682186
Pt 12.710386146223517 10.588884750667148 6.965134709271114
Pt 9.931607199320176 9.972011439922465 9.406333545592581
Pt 9.242315606708353 11.907307702843104 11.051370039166581
Pt 10.103143329988264 11.106385867953598 6.917222388299961
Pt 7.968474103849668 8.894582760381565 13.005445977886946
Pt 11.054531248224503 8.646589136485773 7.475484853332844
Pt 8.386092006176316 14.160383472967297 9.747174780251529
Pt 8.412394439162112 7.885644464037314 10.427824929362368
Pt 9.033637173620807 13.604393734092318 7.2035303631069985
Pt 7.203191844760973 10.19036087128086 10.650903421893904
Pt 7.94406206675543 11.707239158228097 8.673126538074243
