45
Energy = -226.98359405 eV
Pt 11.777105029196132 14.09184952512587 8.916649014827263
Pt 14.10416797159134 14.858000337539965 9.850718841743644
Pt 13.96523917491236 12.399270897670252 8.873290620823044
Pt 9.953404028712297 16.21142297483248 12.560046549838185
Pt 12.066068148619188 15.686230814218613 11.171629262150203
Pt 9.574085422682886 14.989092435958137 10.203123769507194
Pt 11.537693018005259 11.622476826830736 7.972093380071938
Pt 9.39336101343924 13.431439823364338 8.004618984622395
Pt 15.79870691394293 13.118650774614046 10.657432277697838
Pt 15.54579373622577 10.529527685674843 9.890795279353696
Pt 9.452587090759891 14.962603009031096 14.840195926109459
Pt 12.354914521872594 11.539139262164374 10.681498116383223
Pt 13.25751070790472 9.823258076550424 8.869581528643916
Pt 14.021059439206264 14.25634176600709 12.374904958006743
Pt 10.929714746304784 13.365545770389291 11.936303046628376
Pt 8.376138832861571 14.181001790902144 12.541430056917484
Pt 8.962733098923353 10.584316569415689 8.015337677524043
Pt 9.793533348973536 11.985825649300804 10.062955004849933
Pt 7.500176385852925 13.281069006810466 10.302385773674187
Pt 11.93621267893529 14.939377737389322 13.839329849213348
Pt 6.977209022247878 12.194836083164203 7.996083516496002
Pt 17.390682217635945 11.28942982425128 11.621826496676611
Pt 10.946342512023293 8.965893293058802 8.016153205276538
Pt 16.968028301347335 8.671979093480642 11.19038097617169
Pt 15.704211424176954 12.455296698434069 13.251844520126067
Pt 13.85677629999203 13.414011311349014 14.864666820746187
Pt 7.235627536087431 10.634580687017724 10.166059086463491
Pt 14.529337674022207 8.142501050469377 10.450020889031537
Pt 6.953033608209352 11.987978825531577 12.483201596629579
Pt 9.466738770597471 9.074924983332345 10.22986806352356
Pt 10.419242717404279 10.835718501112138 12.260921762819404
Pt 12.391444310468547 11.811717317845293 13.503958158867608
Pt 14.22609492942673 10.550169392467382 12.183700821507205
Pt 8.488070057793015 12.589427625006008 14.69778143594605
Pt 11.870172150576956 8.04631499753107 10.36463915712058
Pt 11.01768695986333 12.864382139292484 15.33531297573085
Pt 16.287936839665935 9.719105752017475 13.442057508749615
Pt 14.498429329519203 10.84231545410785 15.088364036026112
Pt 13.11797505317448 8.221867355276853 12.588968902798353
Pt 12.172191238081203 9.43726371347573 14.723133323165158
Pt 7.093262633680007 10.497041352096508 14.63115122275244
Pt 8.117708248493024 9.598897479744496 12.397902186422703
Pt 9.73890992004418 10.190463088722924 14.699223405498936
Pt 10.471068364487751 8.32689290950306 12.675487929333244
Pt 14.565423085994604 8.28043014505234 14.72167062060588
