41
Energy = -204.77243201 eV
Pt 13.861381134821352 8.60578160352468 12.68295993903092
Pt 14.551886015250592 8.294117779522306 10.057104029131333
Pt 12.449841100872392 6.73171014939617 10.639629789852417
Pt 15.404189804526212 10.404930292759444 11.375187921067967
Pt 14.100931520839186 11.088677649496843 13.58088619345172
Pt 11.999629966927012 9.647889462702619 14.406101508985861
Pt 11.38742195271032 7.597286521435153 12.852311479558159
Pt 15.646917832868697 12.868267864001385 12.290019724132165
Pt 12.40028353928303 12.416980428922995 15.06559776122414
Pt 12.523234315840615 8.657107887562699 8.278957684718387
Pt 12.231757665115223 9.40062299811709 10.795056436181195
Pt 14.536008618549516 10.441284169194923 8.520981950950189
Pt 10.33943057926406 7.645624316514545 9.448081267356201
Pt 13.176449348787983 13.569059114632418 12.752654723057823
Pt 15.920396699830247 12.425105507901634 9.697080269265934
Pt 9.097806370315341 7.102020048791539 11.68360443975445
Pt 9.345548072798364 8.91462277009009 13.945503790200194
Pt 13.298748723304373 11.645142531130164 10.468562701735767
Pt 10.027819841216392 11.370048259710828 14.781198603925796
Pt 11.559531085696124 11.384390599735047 12.462778200036597
Pt 9.755234849805046 9.687130081683632 11.502999785679911
Pt 7.6440198904665895 11.024128662620829 13.729028492276006
Pt 13.951517740753342 14.130106242684548 10.302575386915358
Pt 14.25691323075741 12.932283056189481 7.703246489069287
Pt 8.327451655370059 13.4422175330392 14.513005032413735
Pt 10.025489796220187 9.731639543235746 7.872860470328939
Pt 12.240482527612603 11.164648317079074 7.434894034208863
Pt 7.202793824020113 8.89083180684962 12.267377163197121
Pt 10.699408041180591 13.767458720526228 13.485648903158163
Pt 10.748966428576445 11.422426650522048 9.761937200637396
Pt 8.053568106232479 8.975614958048313 9.672426268040747
Pt 11.427576863861514 14.70945945639067 11.084743363838038
Pt 9.045245403550805 12.093030246985906 11.755021329248878
Pt 11.941143654326707 13.631176921528173 8.689937543791185
Pt 6.633534686658765 13.176537784791922 12.50054945913019
Pt 10.023990828768833 12.529076977981225 7.161400677990921
Pt 8.195659029673084 11.46138395650898 8.688506851338014
Pt 8.813119978627187 14.652623851866908 11.881702530472728
Pt 6.781926277654685 11.056786058523587 10.876381998557223
Pt 9.474426931847267 13.836148790234843 9.461721629427796
Pt 6.927084286955522 13.493340585030127 9.891539898576058
