46
Energy = -233.07100914 eV
Pt 10.769230584126527 6.494420888827116 9.908316779714346
Pt 12.39458671999535 7.555680328454097 8.076237799358562
Pt 10.036545016457625 8.533489687937731 8.337055785262114
Pt 13.365811816771336 7.525522529690183 13.074084241471596
Pt 8.85219066441624 8.191647704508274 10.764777685985054
Pt 12.079545340729311 9.948135407724006 7.129337365618643
Pt 10.913484640876135 7.616139450175357 12.215200051497764
Pt 7.6807365364309 9.62154336978413 8.823587113315728
Pt 12.945882701988493 7.907576199437428 10.517535237809167
Pt 14.269288047954515 11.42541350487003 7.817278914142287
Pt 9.009230251187812 9.05294429075709 13.288948116616844
Pt 15.752920307518114 11.436161189298515 12.912107768139482
Pt 14.855513815343008 9.217646968971899 11.66238292855544
Pt 14.306719936367733 12.346948668797822 14.990631527983611
Pt 12.572728985495717 10.36602384501823 9.594177457584316
Pt 9.696608303301732 11.033678418014196 7.804275196568005
Pt 10.163591880706269 10.451093978273478 10.493922635122118
Pt 7.648460679544903 10.428102738221172 11.42631436661176
Pt 11.487880156648858 8.799813662474122 14.469417145370233
Pt 9.53104528898753 10.28854334265548 15.58260508782854
Pt 13.91968575433713 9.881292582825573 14.143021868217785
Pt 15.171108840422313 11.459840835496044 10.292229663455661
Pt 11.922595905950507 12.465264472471938 8.04095775901512
Pt 14.021845104964846 13.701663098435397 9.235526301618803
Pt 15.107658457270988 13.69280308911799 11.596238381290208
Pt 13.113804609354174 11.16253580442004 11.966303197883144
Pt 8.26795381772002 11.651408802113208 13.752074566873652
Pt 12.35062241912667 13.185172276016544 13.354724443630158
Pt 11.179824296916772 12.75763808379284 11.017940450190139
Pt 16.224395461882207 13.805774997862189 13.911210218048604
Pt 12.008294237851281 11.145707418788186 15.476755524698309
Pt 12.345576550425427 13.594191819750879 16.36344538281392
Pt 8.056677729321958 12.177357639424141 9.479530426738357
Pt 9.605277608335147 13.669461304985507 7.981878661882156
Pt 10.749547121147362 11.079497779372364 12.953533180388652
Pt 13.46047057270278 15.617391558073363 10.893796378801534
Pt 9.962925218136808 12.912215089830477 15.368500329867961
Pt 13.85325043148212 14.940728347274 14.705779107227817
Pt 11.052931118814765 15.40548501418637 11.937507196960887
Pt 15.252461182759951 16.00659813206652 12.809436330699908
Pt 11.531923967786959 14.773435848278359 9.363416890446732
Pt 7.222667402389603 13.007434367572888 11.808379041001954
Pt 11.130450194570795 15.159937837389451 14.561393600532089
Pt 9.116717622774155 14.348228297810332 10.545113301989852
Pt 9.084034876236192 14.161762224613263 13.208776935284355
Pt 12.7937768056251 16.835126087295908 13.18281663904126
