48
Energy = -242.61209612 eV
Pt 17.140202045264914 11.305825860564994 9.175267596695317
Pt 14.85022437855382 12.527303660477656 9.019335083428427
Pt 16.250200841340533 11.323187300223474 11.593518873130096
Pt 14.9578520008719 9.846500206573737 8.913165670404013
Pt 13.359534447504496 14.539330281648759 9.514595275911928
Pt 16.840026960807432 8.954521966509764 10.471131715028099
Pt 14.423878724344377 13.210627049735173 11.623335144564079
Pt 12.850386485005021 11.026604724927575 7.935870224330448
Pt 11.8721558677876 16.69016658287223 9.985007539523354
Pt 13.801162364363279 10.426814457209789 11.241416424097242
Pt 15.447037544259492 8.963749019069478 12.675143737033698
Pt 14.610548243679949 7.556172314779034 10.377059700988628
Pt 10.297137846023967 12.093795409588003 8.336143657339818
Pt 12.869573039659974 15.294294090917166 12.00911954661279
Pt 10.89901760510577 14.63027752749482 8.577291410209256
Pt 12.690625004545927 8.567392364412209 8.877172187530165
Pt 12.217936716724106 12.190905343579102 10.17530051045729
Pt 13.327589353157691 7.352722676222805 12.578820401575904
Pt 14.667777714959168 11.392996984295586 13.69131476508752
Pt 9.255237802215602 16.25394677421736 9.951753951201301
Pt 10.40150610554431 16.47788428899365 12.31820106301225
Pt 10.68302814006948 9.637511051122319 7.62086651074343
Pt 11.944618699806519 15.839034295603433 14.38066121866905
Pt 10.711724927629147 14.052421119118607 11.165362292831178
Pt 13.177896227171637 13.547962648056643 13.94248315029774
Pt 9.527665907822337 11.708926363595895 11.082526997495243
Pt 6.8489612732778316 11.84894304736331 9.189165248802675
Pt 10.535109230906366 12.771933630572361 13.348143889029517
Pt 11.349195887731856 9.791718550899546 11.066591975659273
Pt 8.484444682035853 13.78365052102026 9.458929336757691
Pt 10.102862886651772 7.938620704616502 9.576297751939915
Pt 9.44732801327285 15.047535057400673 14.318521346467278
Pt 8.182099462318062 14.997955920373279 11.969210336390383
Pt 12.8869625971526 11.482390920100828 15.695456249575548
Pt 12.293135380194176 6.410624655227789 10.26498247011487
Pt 12.013368358134947 10.66173367982957 13.37623609603848
Pt 11.287859726155595 13.66674080531759 15.773227432444795
Pt 10.711479141393461 7.444071729980642 12.096312434269258
Pt 8.353658248492886 11.116173607897272 13.473388807024653
Pt 13.638799024755306 9.082768804502642 14.567377838194572
Pt 11.711355800031386 7.332386969079033 14.592495734690713
Pt 8.599187540711513 10.087444774478387 9.085296368653518
Pt 7.067781250147173 12.651073892091793 11.595460978869607
Pt 8.730217317054704 9.20537358847364 11.615329424195782
Pt 7.4224933999849 13.480837651403377 13.995235622555063
Pt 10.146546723833445 11.268556207580877 15.494693965546334
Pt 8.698002319298253 13.304122318324803 16.24816214547856
Pt 9.952814031030357 9.124632306394643 13.99029451711254
