46
Energy = -233.02504372 eV
Pt 6.699009989443578 11.078536357114821 9.090624831728308
Pt 10.604281206574495 9.878359308935188 5.850791620848761
Pt 9.440130671828507 7.969028179684113 7.187449976519613
Pt 8.674060250722258 10.522229187922262 7.502973879305812
Pt 6.838958701839554 9.797410344420925 11.346861313031491
Pt 7.746737838364775 8.462425766265856 9.148104922924412
Pt 7.829635266926505 12.349184132729901 11.188408860504977
Pt 10.563830201256874 12.332188061733346 6.8685529112113155
Pt 8.622789399282283 12.926527534588919 8.60563793718193
Pt 10.423504452148824 7.827246430917516 9.608762597211253
Pt 12.063311196472853 8.351058380992502 7.541814377964361
Pt 12.932249519779624 10.85339498453857 6.708443426791555
Pt 9.272516798403268 10.252269446155836 10.259785012620442
Pt 13.002675796061995 8.10296161675089 10.085770495877817
Pt 10.9580573113049 14.310212260346805 8.588119303943868
Pt 11.319398015666415 10.593934421526392 8.719406741418602
Pt 7.214309764563125 8.456309780878874 13.548574548174022
Pt 7.620829971626658 11.096458517954247 13.488593745389759
Pt 8.660314494547446 7.66971193392216 11.524830337738345
Pt 9.12930555870567 14.583987108736496 10.569768346673612
Pt 10.696088513651125 12.446251956116779 10.452286087409423
Pt 12.990907775352206 13.442855639516052 7.182668106096473
Pt 11.641418242716934 15.057460728057803 11.106214983890837
Pt 11.350563660717212 7.481091178524385 12.028501590290853
Pt 9.163910412877675 9.475804780469229 14.955414501998476
Pt 9.829176201704438 15.14277769424251 13.031782609409426
Pt 13.596952423489377 14.281610806264366 9.531138802773667
Pt 14.456792468184812 9.259099955435206 8.2233935527295
Pt 9.866801425772326 12.512781965064967 12.977318186312397
Pt 10.369401768180762 9.94696297304422 12.574513946395099
Pt 12.432483578948164 12.664131216066208 12.363854934818859
Pt 9.506633095459119 7.108109162241084 13.92498573706201
Pt 9.173785849244291 12.055187339362961 15.439727989162972
Pt 14.16634786862846 11.80073949935341 8.859759845638267
Pt 12.41370036643973 10.469102776856186 11.089621530556819
Pt 12.326893545447478 14.949454376534916 13.775385201097848
Pt 11.231524272916184 10.538114606761468 16.141154679327308
Pt 14.18441589242206 15.09817525941035 11.91017892131415
Pt 11.69456611349636 8.604031982439105 14.422912205148807
Pt 13.25150516119375 10.692403674947835 14.542662888374387
Pt 13.6496913532377 8.786576633606208 12.644067054841505
Pt 11.688945207117813 12.826293995828856 15.057555595798867
Pt 14.839456564587477 12.646345777730911 11.276154383273903
Pt 15.034644421006705 10.041071756961854 10.629104233623272
Pt 14.294017815641922 13.142980155417042 14.05063518992032
Pt 15.33141785067147 10.828576297017806 13.088257016635716
