47
Energy = -237.64648116 eV
Pt 6.796322948427399 12.04104676751807 11.967407008279235
Pt 8.276703575641214 10.006613585112557 12.920874021294967
Pt 8.023020939346043 12.354843594230898 14.176239528387095
Pt 8.246058664063394 10.61227083870674 10.321905744303509
Pt 9.48430571141807 12.764204018877374 16.332219573481677
Pt 8.08941943540726 14.369440252181057 12.267396198284635
Pt 9.702017741200164 10.454427509336977 15.054330080062254
Pt 8.192827637315553 13.181555070147436 9.943394075143258
Pt 9.081504872101952 8.23431228135446 11.08902795215588
Pt 10.581759051870435 10.802439985578733 11.758432457820781
Pt 9.51985419591053 14.561458195345834 14.389440915142501
Pt 11.721089527124668 8.784678600459465 15.561832935402688
Pt 8.875611209940578 11.541533069542968 7.990747061917491
Pt 11.24429108825718 10.916110826626689 17.074242123752843
Pt 10.32554462845898 9.58239807771034 9.15500846519131
Pt 9.772162709043721 15.718916819244326 10.52858361729736
Pt 11.669035998416206 14.241975107471973 15.806654492060245
Pt 10.346351698873388 8.381506823927745 13.374603860840253
Pt 11.751500831152953 8.386599699639223 11.028996951791509
Pt 10.347444679192758 13.380023833777562 11.385421502701147
Pt 10.374184412358362 13.900119109799112 8.669969268847991
Pt 11.05017229304102 12.47249960904597 13.791872199669092
Pt 9.932365922752165 13.07603789415052 6.205410270621686
Pt 13.1056876771837 7.906234098754004 13.335548161257258
Pt 12.4439203644693 10.354752655357077 13.565914970798763
Pt 11.455208043409284 11.342575038997055 7.599510549956976
Pt 12.15941898548636 12.06794720426854 10.119820175248638
Pt 12.284820607231891 16.05289327964438 11.009933610738369
Pt 12.989928455729409 9.73485405438433 9.03921622880961
Pt 14.184115704954367 9.682235455480903 15.437309133942462
Pt 12.930284787073747 13.4639552251475 12.215385568279451
Pt 13.952446383672308 11.107534941321116 11.688560504878907
Pt 11.782631493286823 15.527600240167017 13.43912236074198
Pt 13.069848975400081 12.065360776708074 15.794311108449618
Pt 12.365179470313251 13.711103296546023 6.838933580591626
Pt 14.330190520207967 8.563073471037569 11.027123334081509
Pt 13.919173974609219 14.205190970510337 14.506656615006529
Pt 15.549293514477425 9.365553915035923 13.300563913556877
Pt 15.151878927947909 11.906963964440058 14.200161425950759
Pt 13.145489439893696 14.45500027442633 9.158104917141568
Pt 14.023000242035495 11.991338524255127 7.974291435849537
Pt 14.823968263036777 15.590576339838083 10.748866421826746
Pt 15.25678209981467 13.071027675792234 10.06504877714832
Pt 15.52458287421883 10.520046435301063 9.47967457050849
Pt 15.599678404539096 13.883077967143523 12.547419633113536
Pt 16.933421696692715 9.075157322361429 11.142670694168878
Pt 16.599888599373784 11.532507367902618 11.928835590991762
