46
Energy = -232.92933365 eV
Pt 12.1403126628831 12.37004179821049 7.718966260024487
Pt 9.736627519380926 11.806495358683607 6.851221511709366
Pt 8.244893505969195 13.870485975637317 7.5188301775313695
Pt 11.372862728311226 9.871023485440462 7.798823388540475
Pt 8.826205007378883 9.356074020027162 7.494578580975161
Pt 12.35690777207469 14.84027443596733 8.645550041154268
Pt 13.816888646385292 10.473512314913506 8.700399485236602
Pt 7.931017207944958 11.468234208705166 8.71891925502187
Pt 14.227567876725168 13.083974440423077 9.156479883412775
Pt 9.779090394242237 15.140649337625455 9.139190062997622
Pt 10.077928789943233 7.628286853910681 8.965030449515528
Pt 14.715124298124868 9.178914521255273 10.895737014631502
Pt 12.095535861390497 13.640238921710369 10.973793335992477
Pt 15.922027714979139 11.44108990075811 10.282793952412057
Pt 12.61778127284608 8.26361126151613 9.523690758090744
Pt 11.55011206792706 16.18134858901098 10.826278536692422
Pt 8.182986060430903 9.22719370360328 10.080612485720977
Pt 10.708389161393148 10.1772895211595 10.32977894915748
Pt 7.69844912177352 13.708161943874961 10.067263791288259
Pt 10.24444037933788 12.598618834425945 9.528142033913939
Pt 14.353492880522927 15.608200141824298 10.151258973332023
Pt 11.405064156488727 6.135455501481245 10.597910805074644
Pt 14.990420713344774 13.480257737837567 11.686254260887274
Pt 13.011832491174257 11.177395554890262 11.064239299338654
Pt 7.012858016897109 11.411747995836146 11.206628694380294
Pt 9.462666323472813 11.770857796765666 12.065962849356518
Pt 7.162617729783288 13.706261361745208 12.57026678514942
Pt 9.686264421703484 14.437977024251511 11.881723885425858
Pt 13.387648937171294 15.312808824412675 12.591237628608068
Pt 14.89402339811842 8.714841194255374 13.51459497015747
Pt 9.618726745160705 7.656134731556763 11.663510455272954
Pt 13.186057975878251 7.397469910998744 12.027831408741566
Pt 11.789438631185206 12.15553649088724 13.080772995375376
Pt 15.080465111521226 11.208826233001172 12.873447205260687
Pt 11.203454211208072 6.192248659643336 13.25190538013158
Pt 13.853340094990761 13.222666991226236 14.208641238453103
Pt 8.211531749329076 9.593803363541973 12.685430490473866
Pt 9.061005573803518 13.316954652812509 14.289592479762605
Pt 13.447042388496364 10.59358903287929 14.813236741203042
Pt 11.407567128675664 14.532404699840802 14.057123501558442
Pt 11.689630014552908 9.589726441418442 12.640201131330398
Pt 12.610393646726465 8.045848307837549 14.625605189132832
Pt 9.972966432189251 8.349984155402877 14.19406219875634
Pt 11.43793803565405 12.321801937867976 15.602301047695311
Pt 11.286432840192164 9.736140720106 16.128901955571155
Pt 9.3871415958567 10.830294024382727 14.730095814335868
