44
Energy = -221.47987967 eV
Pt 12.980003336179431 11.12438822071541 16.3505032530487
Pt 10.451672023036485 11.513489344572953 15.87572197455567
Pt 11.604670618494369 9.260580604316054 14.957711236615472
Pt 12.173490258299383 13.62094436985016 15.854324699102845
Pt 8.059258524780741 12.082287210263893 15.034302296784
Pt 10.062458615372478 13.731534666549823 14.321765463826235
Pt 14.060029263867936 10.07325430119934 14.181518934883565
Pt 14.274631549864905 12.696300151977901 14.531905905035682
Pt 9.231748770603279 9.935104467801057 14.013981416721688
Pt 11.89438368110082 11.692231201196579 13.674663967458866
Pt 7.954856921275498 13.546515062132872 12.891736888517874
Pt 13.16647901499752 7.7319436628631255 13.510036019408133
Pt 12.39045239867383 14.467961312348159 13.306128073853394
Pt 10.622797517830781 7.970898321866011 12.776755290352828
Pt 7.040043314774512 11.023304775595241 12.88749307983262
Pt 15.78567049080891 11.417166927366031 12.697481855692281
Pt 10.024709908117273 15.077685761758312 11.96949850517327
Pt 8.479828759274046 9.142769389876086 11.54613195116306
Pt 14.691436441987374 9.117980206732526 11.836817724196411
Pt 10.939988670360878 10.271169996209558 11.752723219234836
Pt 13.310625414978626 11.498469219311753 11.478235037254946
Pt 12.75486524127778 7.445692535382611 11.026958242867346
Pt 6.584597765940376 10.730316982333731 10.30101657802865
Pt 8.768598729185058 11.870782960573816 11.011101370446255
Pt 12.325059628071728 10.137305402572078 9.480078374089846
Pt 15.697085088153134 10.751422091697194 10.02718187887459
Pt 11.133279961772901 12.842057247288581 11.335103292644801
Pt 14.628776482674152 13.736081754135093 12.137403704667344
Pt 7.9796573716328405 14.250755098223994 10.362104882397801
Pt 12.679279156164007 14.776231446271925 10.605964919570265
Pt 10.374812285301566 8.087491167654242 10.056654687118645
Pt 10.325931727835883 14.648930886234178 9.32228242946753
Pt 12.353414511169687 7.204632510063496 8.470489385632362
Pt 7.882394375668125 12.461254194546008 8.435374409674752
Pt 14.483570723485883 13.052476540347575 9.670588454570092
Pt 14.375481813711005 8.657372184524966 9.199827440843897
Pt 8.616803982500976 9.75447684076635 8.939277936978467
Pt 10.44848085149484 11.786738949766955 9.000980567058631
Pt 14.033860901950169 11.187295461412624 7.912895002747464
Pt 12.382327969336998 13.453903459586114 8.188697080239166
Pt 10.823825024748107 9.081235684276269 7.5846303753834095
Pt 9.95896277655933 13.514050767262011 6.948393335736277
Pt 9.171291689568264 10.939859142726803 6.653466762181636
Pt 11.77053368465408 11.38578475538686 6.632219333604422
