40
Energy = -198.53764351 eV
Pt 12.580138568475482 9.33788459653464 6.9761462614874
Pt 12.980743517919832 11.86316300145839 7.607976346190351
Pt 10.638811143828946 10.817473498042151 6.056686491606854
Pt 14.736381652277004 9.737249241503086 8.350762307776048
Pt 10.414977525156377 12.821817326087999 7.659798449560963
Pt 12.328837818098064 14.459363569530728 8.40892203045766
Pt 14.702510468434534 11.761461083852497 10.007436473109209
Pt 12.992066813074779 7.806990368430543 9.223722635415607
Pt 10.089939251316794 8.696461999366385 7.527499490803063
Pt 11.462655931518112 9.886783609652671 9.382752228031226
Pt 8.565898851909733 10.878656726869051 7.7549769579567105
Pt 10.030249818743195 14.44366056003461 9.750724471017678
Pt 14.396996683672825 9.220049788257818 10.916886636286092
Pt 7.9117370044704005 13.297847285674797 8.705369063685396
Pt 12.200248047894123 12.396982819209066 9.989756325971609
Pt 13.732339970542425 13.418308374378698 11.886432732859829
Pt 12.194624718998565 15.273774967106 10.94776663964831
Pt 9.685063511152672 11.614662872527886 10.080072829056778
Pt 10.40197272808311 7.548075568970787 9.954047708380322
Pt 8.05449434974962 8.674468910404936 9.117191289869988
Pt 10.377565472529874 6.178990553929448 12.185362348631552
Pt 14.74781928492002 11.12293166149636 12.653263900558402
Pt 12.486595529271485 7.721303339654725 11.883279605803887
Pt 10.849849688239834 12.758323466036027 12.189444268292313
Pt 8.117472573321427 6.522897170262272 10.778323949005689
Pt 9.80617828307324 9.628270414560662 11.704174890319768
Pt 7.141889531184263 11.080610083568367 10.094214135137157
Pt 8.042815729788165 13.342909193383985 11.37058601250542
Pt 9.839638839389263 15.117518415538726 12.354896695004896
Pt 12.943333657987251 9.55125031534971 14.043016190528903
Pt 12.151388599082269 14.712569635139518 13.590729925737213
Pt 12.789332914964026 12.197543969927505 14.13854859929105
Pt 12.249553835013291 10.538291447668163 11.780918989052557
Pt 10.685340135000427 8.245792558214427 13.772678702090914
Pt 8.274758420583803 7.374408462456115 13.30683120925689
Pt 8.956385358311563 13.071759960495747 13.935554807151423
Pt 7.775251100177066 11.084264413221744 12.782072675836575
Pt 7.272650033603402 8.899245233811111 11.542912584095737
Pt 10.547975522030626 10.919434798581785 14.259821131687653
Pt 8.420932739163232 9.530958352320788 14.725685950096922
