46
Energy = -233.62881945 eV
Pt 8.906011135465768 11.480081072288586 4.947715114579438
Pt 9.354973862922357 8.827930221680207 5.286336275800114
Pt 11.27379930804842 10.573463591308634 5.743278855511199
Pt 12.869052526022688 12.35172940462972 6.799959711272177
Pt 7.671620085967556 12.537412746383332 7.0173527164974505
Pt 11.771991616515336 8.009443716477538 6.190932054888455
Pt 5.242853220461731 8.608787646477849 7.527274627176549
Pt 7.566166300911052 7.537525622501512 6.954898415942379
Pt 9.232044323255753 10.351341749594622 7.618516851109224
Pt 13.296201028997478 9.82146388656379 7.330401872872878
Pt 9.745456011002345 6.28996667080432 6.242149719222552
Pt 14.141878506530198 11.738850983605534 9.01631179427511
Pt 6.179634377460243 6.602218008257304 8.948873799311846
Pt 7.032712189799167 10.01143771006905 6.07092692106021
Pt 9.144624934074626 13.477807434026227 9.150081789366077
Pt 6.513950395355108 13.339048569752821 9.194896480997887
Pt 10.224924624994744 8.054951601436589 8.236297720175433
Pt 13.396018786905527 7.315385944552218 8.16030499277581
Pt 10.277520800172375 12.829816707024753 6.850650935807551
Pt 11.250207172926928 5.737175875656609 8.506608796266628
Pt 7.2779808507750365 9.421893694309452 9.046246853774335
Pt 8.599565139923273 5.429897446616523 8.487508666073282
Pt 11.313057434591544 10.227011802525224 9.135296698663074
Pt 11.739183365047062 12.894980847355885 9.101497738658988
Pt 4.821103548960289 6.1636425761507665 11.078865599125017
Pt 8.592199145299915 7.555585372446247 10.147920223032587
Pt 7.292043222244241 5.12341450836137 10.821786296968742
Pt 13.645155869910171 9.278719543827593 9.93759404967824
Pt 5.314585935860421 8.797165968559174 10.610648172799863
Pt 9.02766857319231 11.00284223726543 10.13762032455199
Pt 5.610940343816515 11.183081996810397 8.072659635772762
Pt 10.021569738482977 5.4789294711145535 10.846300997942409
Pt 12.280324434603683 7.0563153245375245 10.513568935682766
Pt 6.346481903578914 11.30443209557626 10.808408757027754
Pt 7.833017131803172 13.428758910810881 11.498023535731372
Pt 11.015206214882582 7.058150351450838 12.825091180365998
Pt 12.738934686966294 11.440925323546185 11.233300673215073
Pt 10.435647216662904 12.788899678374827 11.424564521458317
Pt 6.435292392812237 9.746553786189867 12.855885658422999
Pt 10.272005610631966 9.055194099307913 11.268929639730954
Pt 6.819180832834843 7.303995157472444 12.225043734943124
Pt 12.83165124184569 8.908532279822907 12.402907577778969
Pt 8.543483446922533 11.225818358366375 12.736293572820648
Pt 8.755205153681377 5.833049030837787 13.107051698732162
Pt 8.81697393876275 8.587891166337405 13.34010814239979
Pt 11.091852070228436 10.770430461045697 13.10505832185146
