42
Energy = -210.07982399 eV
Pt 14.016975833733921 11.47554278903284 9.196625027215283
Pt 14.814338533686707 13.598710839418883 10.448073853041295
Pt 15.177352886019955 11.235439905693253 11.54917745937158
Pt 14.12515572007654 9.063092288006631 10.362362920940107
Pt 15.368624305570885 8.817917251991245 12.615537103053073
Pt 13.43102313946544 13.915754709646693 8.24057777284415
Pt 12.892484613813375 9.269335531934248 8.150439317975609
Pt 15.201491349903652 13.409855155493954 13.124619148163438
Pt 15.94363422720791 11.103562037535587 14.08261351902597
Pt 12.26971623824685 11.571543233242254 7.148290160332211
Pt 11.514201334485891 11.938895570694443 9.96759288417097
Pt 13.703226802263957 9.853687135510011 14.256304601065008
Pt 14.692900604435057 15.709372996648964 12.13829449043914
Pt 12.711910336640404 15.341715269560135 10.456870307272117
Pt 11.608214360785023 13.943388780056754 6.344027272910624
Pt 12.92502322884798 7.645664561723482 12.354159805204361
Pt 15.419023759921256 13.12937008930755 15.643977091968
Pt 12.750370586547923 12.978376695457284 11.995730232457285
Pt 11.42277841225511 8.445270089931741 10.347343426906907
Pt 12.372434138012283 10.398773615316438 11.909975439256513
Pt 10.465053451756654 10.041941390490685 8.371353176110286
Pt 13.132615847631094 12.322189374437492 14.830429397107395
Pt 10.912205576770852 14.327133657645401 8.86553335079367
Pt 9.701537044150333 12.475659502412368 7.304156779404499
Pt 14.251648519127713 14.780035455156138 17.06999038056292
Pt 8.027198321226354 10.82172957230697 8.385009718081378
Pt 8.887882399547577 8.63871844105953 9.871172909499617
Pt 11.374784535392239 8.708456562243763 14.091038342733862
Pt 12.294950558459632 15.354701274487223 13.096659136952608
Pt 10.914446233883838 11.92323273586569 13.425508975806135
Pt 11.942100428849818 10.296939654038173 16.105970103622465
Pt 8.995143533803333 12.838401179622535 9.897699017386199
Pt 10.37939047013474 14.407372701862935 11.434941429138615
Pt 12.300276531296204 14.641675084477676 15.582382258010249
Pt 9.740462974200382 9.495457822094801 12.253083816287175
Pt 7.811921746688482 10.748660831671943 10.95409115994227
Pt 10.098732652156018 14.399116341434162 14.110854281810264
Pt 8.556888111187876 12.832933787309203 12.467178967473622
Pt 9.564985691114588 10.348863338040944 15.061198073453784
Pt 10.656513944648994 12.645306858563028 16.089691369038285
Pt 7.546529272410193 10.622354983310771 13.47018998809525
Pt 8.22624781577997 12.626246977403838 15.07167160721382
