45
Energy = -227.31035797 eV
Pt 9.251295212757556 7.573884448914727 11.239922856886684
Pt 10.542432011447154 8.341875162064673 9.106909574810954
Pt 10.261070004067728 7.929062400328813 13.606917915878496
Pt 11.897394865591014 7.862152309152518 11.340697350314842
Pt 8.399420665198377 9.680533733154212 9.87834742881415
Pt 11.147525467832253 10.3901255205978 7.584114576049623
Pt 12.759359271055732 9.689008819715706 9.5271365745443
Pt 9.57148219689039 11.801191252934297 6.182671511353045
Pt 8.61639322338065 9.81583290956701 12.565710023415665
Pt 8.436715998200174 11.939963544974663 8.476636326188926
Pt 10.45731388703127 11.239251886219677 10.002792389051772
Pt 8.032911826405844 12.052365959111876 11.10890699115125
Pt 11.36854030506558 8.286303683627612 15.894146085000944
Pt 13.266794773509138 11.865789774599198 8.106947959725444
Pt 12.268026274580953 12.982332377561692 10.27784785328357
Pt 14.290858330587984 8.982471154083317 11.636132075469787
Pt 12.509492267578501 10.542527491452969 14.444053107673271
Pt 8.470515773830668 12.13192351316603 13.74349371935782
Pt 11.184225549895764 10.243957502582143 12.226976762931288
Pt 8.942111466269504 14.152434737814339 9.744395382068591
Pt 10.813541930282945 13.287891438726875 7.873941412934804
Pt 9.408677426749271 16.480859922478984 10.67068373939691
Pt 12.966335676515701 8.103033822476885 13.761911593628968
Pt 15.184328340290211 13.43681436686825 9.025593842778258
Pt 13.47345693501705 11.470209566578966 12.06956608875007
Pt 10.566093572896031 12.711906698789587 12.254097370909497
Pt 15.042929153849542 10.849734106075235 9.811242845821903
Pt 11.33342551951085 15.471627773843153 9.242132948005338
Pt 10.081909424997482 12.626858068745472 15.97547611507742
Pt 13.751543588055611 15.059797093753858 10.596576441429802
Pt 8.494627372384642 14.450332856424085 14.976781991554917
Pt 9.815719998493964 10.205055119663962 14.93594111470847
Pt 15.008030752989148 9.796504382348381 14.093671275318775
Pt 17.223974902854216 12.264778879880701 10.123358615878644
Pt 8.617553521879346 14.518471417952222 12.349431623569263
Pt 13.209662957013869 14.520369641821702 7.780994512987238
Pt 11.666002620654584 10.77886939652252 16.903265764279787
Pt 10.982828141793659 14.394145206754738 14.245527244952989
Pt 11.401475666165972 15.37089291392648 11.864314591342676
Pt 15.471086497596914 13.361541038436773 11.733514870301377
Pt 13.282945841484763 14.00978301627408 13.004592859866916
Pt 16.3205172647784 10.869295939542031 12.140649714808651
Pt 15.138056256235442 12.449877487551921 14.203043670161964
Pt 14.329583117159777 11.075404170592133 16.343533490688504
Pt 12.751122521300214 12.917035410339775 15.386837431767136
