43
Energy = -216.5468203 eV
Pt 13.1008922774851 8.566990326134428 15.083084772825403
Pt 13.167373223340142 6.26532468868283 13.840795798033994
Pt 14.969385026310007 10.12144099965413 14.063958825525981
Pt 12.830303654768 11.23028670262943 14.957198842644281
Pt 14.639172615608176 12.656007924718141 13.460809880529142
Pt 10.689614898913247 9.622633660192458 15.623567815998191
Pt 13.736711341942417 8.497001957518764 12.43126170420259
Pt 12.317056000223625 13.840489050446914 14.418513772151254
Pt 13.98283109675237 15.100598077956468 12.7497150826611
Pt 11.381624523799037 9.786498215441794 13.09129453921547
Pt 10.644451215254136 12.302595833305105 15.777928599070641
Pt 11.969598573529352 6.763158650882992 11.609219648943416
Pt 14.654676770909346 10.795162017047009 11.555005296108641
Pt 8.607686259221628 8.665253852246957 14.04629710525049
Pt 13.16863073230502 8.207388786214194 9.714757079302874
Pt 15.381490946743714 9.376617859579966 9.55518146315042
Pt 14.437318195256799 13.364409870386353 10.851781632968425
Pt 12.23126397069434 12.173139692782918 12.326854507829042
Pt 9.188493233581097 11.177391693758217 13.932387658584458
Pt 11.42776186515345 14.908264056575149 12.136425601196615
Pt 10.83686140259795 7.361190371796451 14.07551099516979
Pt 9.661970967914117 8.085035225377522 11.733314376859523
Pt 10.729385437538987 7.437155722447885 9.418446279603788
Pt 13.26005483825279 15.714464107071231 10.332626224319757
Pt 11.797978879477657 10.25436223282057 10.59348160050314
Pt 13.80853653610655 11.381948871671772 9.113360655221012
Pt 13.699312927045911 13.880358594421754 8.277028034287117
Pt 9.69126176479373 13.723447435143969 13.758963375653247
Pt 11.759629885083578 13.10021824163393 9.839361137133963
Pt 11.53283059452948 9.626054595473017 8.071760223345384
Pt 9.008513087781278 14.53067828672174 11.358029441610112
Pt 7.96950170586179 10.077994904291403 11.847275923185261
Pt 9.913097446966773 11.954363900355144 11.220765902299906
Pt 9.223434688793743 9.568872407185971 9.530848223112608
Pt 10.622501717319452 15.70835806694364 9.707436246721155
Pt 12.514770892965943 16.21690154522003 7.924956746661257
Pt 12.282633197150036 11.914113296680226 7.054186075504912
Pt 9.902514235663569 11.770314891442297 8.13600359436367
Pt 7.5121255923622785 12.662279368082958 12.520833290738201
Pt 6.613797261195651 13.93673974955816 10.40845816055076
Pt 7.770726132694973 11.697598857071789 9.739796283969586
Pt 10.944953542185946 14.13855691407117 7.564114199716989
Pt 8.647447343644892 14.068514998079753 8.77757988299371
