40
Energy = -200.287727 eV
Pt 9.911930436134062 12.1368057275793 14.515419474641288
Pt 7.455465626320627 11.023643750290773 14.074630502341725
Pt 7.898607833138716 13.481292001482174 13.28344221997866
Pt 11.994261363675205 10.390234770674779 14.643580609698802
Pt 12.4743427342328 12.906125296750153 13.931224530952194
Pt 9.58200839852367 9.47985733790275 14.166019268039644
Pt 10.402411763024462 13.98508139002084 12.70485390080342
Pt 6.887699453031678 11.6883752251347 11.522669614336017
Pt 9.456639508231387 11.316569368728956 12.011942154759089
Pt 11.73639311868387 7.91624225969663 13.584595318401515
Pt 7.518927899083169 9.134140225122827 12.31070455905707
Pt 13.87423672512535 9.400523179501576 12.994273203767696
Pt 10.572306657853424 15.354375782084356 10.499261196539276
Pt 12.816144885350306 14.099827271992536 11.48116685779822
Pt 12.053368097622304 11.100265209153806 12.111433170460197
Pt 8.38892759750969 13.79722437863024 10.73145011987762
Pt 14.47645350696993 12.038442924735238 12.305027848024457
Pt 9.226406436456518 7.189786703469587 12.891377834269512
Pt 10.950682482195354 12.537127878850445 10.221658903519083
Pt 10.638172635061203 8.988199263183457 11.497097129384324
Pt 7.6641400234216555 7.153521992222917 10.711418304291843
Pt 7.048709832374067 9.638435496006236 9.771743348261595
Pt 9.587925190310969 10.382201735550744 9.581739243049192
Pt 12.287604644354772 14.256422681192044 8.752067316242869
Pt 7.65583705963742 12.072907037238917 8.893024330581092
Pt 9.600492219181403 13.924857826535886 8.439348389797562
Pt 13.998292287040446 12.509720461861606 9.75246338916331
Pt 14.649677260942672 10.027746988598125 10.591266747054469
Pt 7.792397029929756 9.912291734618627 7.195551076911002
Pt 12.88306668131693 7.6446821148721344 11.129353781720509
Pt 10.281913903525162 6.649107015721092 10.502552966428063
Pt 8.98606869611595 7.9787789016102275 8.62613368222644
Pt 12.451482152400782 11.896616894203598 7.591699068250523
Pt 12.153338699118935 10.188618236212484 9.667284654412168
Pt 9.900249218911313 11.63057499549416 7.25892948147184
Pt 10.291138895707853 9.146393281339638 6.728463736049584
Pt 14.860363731991244 10.719402775491812 8.042994471477474
Pt 14.254467427600991 8.174009747916822 8.872416585524643
Pt 11.69397210092366 7.730833037273449 8.613703053488273
Pt 12.830256821557898 9.438066476142238 6.949438843477789
