42
Energy = -211.15395519 eV
Pt 7.168387723288617 13.403248648342293 9.770272743776603
Pt 6.821090036945174 10.84955571399321 10.454296568482848
Pt 6.9349726657273765 12.866677305866395 12.382456270446564
Pt 8.34962280861084 11.521769473103799 8.34168978263874
Pt 9.066193334245138 14.16683288292796 11.456098704181246
Pt 9.571166415209747 14.023219026682545 8.80290828458188
Pt 7.6448990779749755 10.542182072163262 13.28683847574359
Pt 7.319987285107312 8.505064362187039 11.591620732754668
Pt 8.363897671950292 9.019357519357081 9.142273037869563
Pt 9.185281484454258 11.552765881560019 11.279750594868702
Pt 9.133930642106227 12.815723328531877 13.892158087592644
Pt 10.406015406663785 9.919525052984273 7.484467312379136
Pt 11.443398369901633 14.847248239387804 10.485099565085756
Pt 10.184787136089556 12.490677226012046 6.674807648153279
Pt 8.695506080354853 6.581710690157335 10.168982591321859
Pt 11.507211254269922 12.462704922770076 15.094963405493402
Pt 8.32840622363337 8.435751898581854 14.559389982652354
Pt 8.775340994347308 6.637489389842279 12.788641757391302
Pt 9.811391915872699 9.090024307137433 11.303872314689793
Pt 11.249605450112677 14.053138348888954 12.986493459486462
Pt 10.84473753118945 11.746366465382987 9.37118411617978
Pt 9.897809151133625 10.426143989644103 14.883049770786059
Pt 11.235481298412294 11.129133607691386 12.695080460172575
Pt 10.729737603806054 7.761869507051851 8.926987269801835
Pt 12.001439907616012 14.058830308939928 7.875343600995819
Pt 13.590728141256296 14.934881768802509 12.164099285365971
Pt 12.598195877079197 12.54207053238362 11.00367420632075
Pt 12.552760661979452 11.45277501588058 7.356572292562935
Pt 11.011620489249864 6.652881269530521 11.457244247846596
Pt 13.990829764812485 14.308617051529078 9.645684106752297
Pt 12.120857438469026 9.896020297758382 10.574392375902132
Pt 13.6631144506829 12.60397863985603 13.618391930618468
Pt 10.857135601541845 8.28237738255705 13.617036554443253
Pt 12.865806775073754 9.978325254338383 14.282012404949011
Pt 12.942625649577602 9.046444678306978 8.271985381775995
Pt 14.497171221207598 13.128925038007885 7.454793468219306
Pt 13.055902768018111 6.972965318234881 9.933796123388232
Pt 14.449526812017947 11.300909113002795 9.368579261846406
Pt 15.280951101090924 12.929679966685034 11.509958549855133
Pt 13.146692217009269 8.178806365982174 12.290600820767212
Pt 14.38382441035645 10.552431013002515 12.130110990238652
Pt 14.869356657725454 8.850728685060293 10.197176893884427
