49
Energy = -248.90457184 eV
Pt 10.933086344930745 11.435085077766253 5.912741483937626
Pt 8.54903555234812 10.426473723842696 5.263834818478766
Pt 10.435515384232827 8.67580163293871 5.6536430749812965
Pt 7.952271767461867 8.459831980654169 6.880352075846203
Pt 9.678234439734448 6.44546620932047 6.80544244879568
Pt 8.713194922851915 12.574925654078658 6.751376850148742
Pt 12.775570093488886 9.550051812719795 6.726540434724373
Pt 6.662647795419938 10.732548340677894 7.149282659236207
Pt 12.306605697929156 6.9975184790391145 6.433121527085923
Pt 11.10844317659891 13.441141377037056 7.638974876349051
Pt 10.502854786496128 9.960774960723793 8.009247436206916
Pt 6.482681802288269 8.776362219686566 9.079182871086426
Pt 10.995822138683701 7.475936964999851 8.748994926623997
Pt 7.966956689749057 6.627353144737009 8.792996077426084
Pt 6.532018260104436 13.288353868588231 8.015599461497617
Pt 14.000783378344606 10.425548950982286 8.941713776800562
Pt 12.306761620142586 5.334093520692798 8.70464895345843
Pt 8.861611518205768 14.1574138436715 8.91950931501795
Pt 8.36669822108821 11.22084864383869 9.074015036653895
Pt 13.25324043229024 12.049112330987864 7.07479143597677
Pt 13.690710989519328 7.785286570204979 8.555379405496803
Pt 11.280282510194793 14.766799299182232 9.908405655489563
Pt 10.739496947125957 11.906289465120079 9.699231063363385
Pt 9.102678313151877 8.852784037419584 9.947211948859845
Pt 10.959432084232262 10.10255896930973 11.455925319069285
Pt 12.610157166617553 6.909811720870234 10.806541030473934
Pt 13.142050345860477 12.837921165935715 9.622084719989994
Pt 5.622394441158983 11.269472004455478 9.540622056917936
Pt 9.795923752111248 6.228637661188813 10.83014981400845
Pt 9.436061113454073 13.861090987095055 11.503292606330474
Pt 7.033471825757456 13.299570537730036 10.606856696823654
Pt 6.001965816383961 9.678199238745911 11.592116592364162
Pt 9.762330807477127 4.625714312109604 8.733153477036108
Pt 8.40845277293287 10.692478125858393 11.622307698404928
Pt 14.55205453104835 8.714228461648286 10.808930552945968
Pt 7.223503354140288 7.379663565009904 11.251442606256326
Pt 9.52676295967861 8.299260218278754 12.616542425706063
Pt 12.803193902475208 8.68797686207238 12.779558089118778
Pt 11.960155894926437 13.136989868972389 11.973954541987318
Pt 13.445343302015369 10.968590601386058 11.496093176212462
Pt 5.339661973880117 12.08329473660237 12.132920484872178
Pt 11.291949282002546 6.522625936183282 13.04786848769516
Pt 8.528202854019064 6.00741006223435 13.162082925152493
Pt 7.695168960785884 12.657981940879937 13.114260335173526
Pt 7.207939664460829 8.693880811721435 13.684609618195022
Pt 10.111191786642676 13.0415825689962 13.890618147150914
Pt 11.815144329176128 11.091726757676248 13.67928881530717
Pt 9.054649987937534 10.599305265485466 14.210635232810686
Pt 11.0107958580393 8.779387060240206 14.687068486051306
