45
Energy = -225.95382564 eV
Pt 11.369965102857 7.80305930841816 12.353433558641346
Pt 14.094590595172562 8.411716374928343 8.844686857886387
Pt 11.61945628586838 8.590449373606933 9.810787905649688
Pt 13.801855054103097 8.411999114202315 11.584760810397981
Pt 8.80991870168121 7.540479596676434 12.906595525605445
Pt 15.244646099090225 10.611732620398895 7.618911553390319
Pt 9.435555458121675 9.263373997567019 11.020055481426366
Pt 12.692681350243566 10.455497964446034 8.143653277887179
Pt 12.868846904698733 9.360613730124646 13.94725560253541
Pt 10.352602650781426 10.8935296244974 9.240432134788836
Pt 15.267276958564569 10.261282678096697 10.192561265256732
Pt 12.62880085154453 10.676906001501967 11.06794516037365
Pt 7.805976388587009 9.940454414422366 12.986978123221757
Pt 14.973257192894664 10.515984814156631 12.768393381099589
Pt 10.248135676338773 9.014351265385404 14.50986918066038
Pt 13.86651591625467 12.88473285893403 8.273975000645919
Pt 8.485778495704322 11.723391213440793 11.010060277359612
Pt 16.34769601278205 12.631599122115073 8.771733867099357
Pt 11.406322834922353 12.67332644794535 7.628503463534026
Pt 10.625725473801182 10.89589107551655 12.74902691265532
Pt 9.666274313356148 13.528172504055236 9.333171108092051
Pt 13.952254562108642 12.928370779919716 11.039015803154667
Pt 16.432109044467584 12.274427997515158 11.370556027403545
Pt 15.766765487350568 12.865853702886495 13.778739124462478
Pt 14.215192085428013 11.188506116674402 15.305843947438746
Pt 8.982312732433309 11.439472342964871 14.753343590892563
Pt 7.075755701837019 12.45185482341546 13.14328011666102
Pt 17.362728998591635 14.5091142196711 10.224869572824984
Pt 11.528697167288938 11.142196910317764 15.424481303793993
Pt 12.193218101300596 14.629702905308978 9.427899127405166
Pt 14.815512835170964 14.991559717781605 9.682414441631455
Pt 7.9999058432475465 14.264248348286216 11.16312117450705
Pt 9.117400140571736 14.124557508378814 13.448197220481113
Pt 12.824716282371838 12.342255002603144 13.343344910608563
Pt 15.770119066070434 15.00880663796485 12.192583201894905
Pt 11.292328522871653 12.88005038238283 11.265746227433551
Pt 15.241434872333558 13.427087498015943 16.261097012511414
Pt 13.132269737686224 15.441023905523693 11.82974725504614
Pt 7.530329313274276 13.55218185569043 15.45078377690038
Pt 12.68357520551837 13.503803246047514 15.989204220869054
Pt 10.153459879477182 13.528429262600074 15.767128509348767
Pt 10.48446141584576 15.328310406452214 11.493163301029744
Pt 14.20792131588848 14.912582963321682 14.2380381170369
Pt 11.609279953100017 14.73796228559396 13.839877289779349
Pt 6.261472292483647 14.684195954333964 17.049833152764446
