44
Energy = -221.24296883 eV
Pt 14.68498125680944 13.35974045330589 14.332854883008112
Pt 16.22369700127464 12.33809751621124 12.506191391213566
Pt 12.361906647893102 14.239023783521512 13.533855726735844
Pt 14.410461888352184 14.035704684359686 11.776784780890878
Pt 14.80425193251376 10.689186549763429 14.025753302254172
Pt 12.539706539352116 12.004080946786889 14.92786081093915
Pt 10.162388550819625 13.237552903115642 14.566360805695297
Pt 15.154448859344548 12.136615033592136 9.984194732015723
Pt 10.116646767197375 15.127513829951617 12.551357455806876
Pt 12.432387833517888 15.67786113554402 11.334648281463833
Pt 16.072177223314014 9.924887826066865 11.432805219803598
Pt 13.621770143235928 10.854608957073507 11.757355884983303
Pt 11.370218569284363 10.702178459062726 12.960424660946329
Pt 14.740957432592564 9.578851285822626 9.267206986490766
Pt 12.614720040630246 9.24984718841711 14.702848218120419
Pt 14.087158248342387 8.488560480395149 12.574958565317857
Pt 10.365916153741138 10.60466849553745 15.447014974019545
Pt 11.903301417045622 12.729435717120925 11.295277328059035
Pt 12.867100712596192 7.989230587910595 10.227035586815298
Pt 13.184664141632457 13.909722608018923 9.371250562686708
Pt 12.188707681754572 10.596051641183688 9.661747162446696
Pt 11.57038460763079 7.802747817739379 12.74002004847018
Pt 8.884006204583757 7.511061016026271 12.350993729984083
Pt 10.524147007966198 14.62302964622215 9.921443131061197
Pt 13.548423625178156 11.773942230781893 7.862280808715243
Pt 7.848107431641022 14.171768313935395 13.647838322170353
Pt 8.757460962739787 9.796836505705878 13.50570588926183
Pt 9.823530855648368 11.65721161070694 9.744100973464619
Pt 13.02248400874197 8.725127864907197 7.594527854661883
Pt 7.998250410965997 11.80802646918564 14.96289972830475
Pt 10.695059133265927 6.535834901365743 10.623822156114738
Pt 10.284142661446356 9.403992667851583 10.98399970226279
Pt 9.53953336336858 12.305870561470941 12.183896112126225
Pt 11.200006479106982 13.092844233193771 7.750474636708237
Pt 7.538015522884814 9.572725218843825 11.148208333085005
Pt 8.424381605638075 7.580270336467479 9.685283697112402
Pt 8.598908552832343 13.668891097224396 8.467785758929153
Pt 8.077619080148486 14.130051433093962 10.996837205051937
Pt 11.138156287538528 10.43239100434665 7.2090912574086
Pt 7.064228364931883 11.83794199928803 12.457523737853702
Pt 10.624549630763662 8.18427353043998 8.510578210929518
Pt 8.437911060460834 9.886857905917859 8.417219111345878
Pt 8.994898167876995 11.782654556377631 6.7539233962266305
Pt 7.196934880617724 11.827227717795623 9.823222463525088
