45
Energy = -226.39963885 eV
Pt 10.513969788518876 15.910799115169477 9.093985837721949
Pt 12.950854462686817 15.640354422847771 10.107231738852379
Pt 12.163675666344071 13.912070717743614 8.284832016807353
Pt 10.83798588388896 15.880304553868102 11.679737609994778
Pt 14.891325074767284 15.03395422506401 11.857728080930478
Pt 11.745228020232762 15.370795906584704 14.101401832737787
Pt 9.377227119326918 13.634021822548416 8.225936331926466
Pt 8.563711257150503 14.799543302193651 10.635277132053297
Pt 14.148810845710496 13.236312596108792 9.941894213869853
Pt 10.718097059136117 13.372357942062555 10.510975693644937
Pt 12.590728811184428 13.801295790072723 12.181937867279323
Pt 14.11146301321424 13.878288993777922 14.21860073400241
Pt 10.996547770806169 12.128128779789696 6.845429101876177
Pt 9.514618707776242 14.197899244622324 13.289384911997198
Pt 13.231573482578836 11.432851399622388 8.091523863799146
Pt 15.49334714896579 12.510736848982882 12.191965371802008
Pt 7.44772884166912 12.533922207193498 9.77843522783001
Pt 11.177074300926439 12.911224128494508 14.861126124533929
Pt 14.731313110962246 10.629538212204281 10.311013698186501
Pt 8.755362737602084 11.073154708539322 7.737676980020197
Pt 12.121369715002075 11.187169186059808 10.361157743046471
Pt 9.540733882377156 11.081321803798318 10.166841568429007
Pt 11.184958173841682 9.690275030763473 7.449960179037581
Pt 15.416348995312395 9.987969069535875 12.966160556209132
Pt 13.250606933267221 11.309529995910474 12.770609858684935
Pt 10.680930094426385 8.810121842896228 10.274151803491478
Pt 7.182294412363479 9.87277769047156 9.538454259823864
Pt 10.594017739361425 11.642832433522479 12.521233543709831
Pt 7.390877572242804 13.127998746284446 12.351569887251562
Pt 13.409014433708133 11.565396935978306 15.299317097075896
Pt 8.716086043065074 11.699625374579304 14.279196925737045
Pt 13.133737897921995 8.873573040283356 9.07876907451966
Pt 11.017415385869182 10.347257194581713 15.084873101611214
Pt 11.357700966542405 7.146795743100346 8.053355562799887
Pt 13.435165081726904 8.984323098199983 14.60238127191937
Pt 7.668278751638478 10.576768308155206 12.087711973622147
Pt 9.023107110938748 8.396704449834717 8.32955792227149
Pt 14.06752823975151 8.335500194503629 11.518004147964815
Pt 11.788936499236637 9.204129488626634 12.55195228122005
Pt 8.384759913632378 8.183057124780744 11.186387002221522
Pt 9.207468470168358 9.109835689925092 13.593030791839741
Pt 12.230704884635236 6.702223637154072 10.51828627415621
Pt 11.103156311651668 7.683941207167068 14.920056005961685
Pt 12.86983554533644 6.695706567755917 13.15570073849129
Pt 10.322187555021888 6.967107260988398 12.463630323038936
