41
Energy = -204.93501234 eV
Pt 9.948364064978668 13.683735028905069 8.618027075703875
Pt 7.843696954116518 12.895026316604824 10.03166084747081
Pt 11.618061283014033 11.870269535673726 7.595323174815136
Pt 9.648072725969827 14.912387193372613 11.2536386889761
Pt 12.458087288085492 14.355656552960536 7.508803291473131
Pt 11.363102174361675 15.754150547985047 9.489502977290186
Pt 11.03152266765599 9.292980246226396 7.546453259263353
Pt 9.276730514471037 11.091725854364132 8.616242794391932
Pt 7.37646178061647 10.257237141674787 10.249361944186626
Pt 6.56186146791025 12.002530121037937 12.137433501565576
Pt 8.509632541186631 13.35563761616263 13.129151152252913
Pt 14.336663730187357 12.66303517935675 8.494941929957491
Pt 10.035569423288146 12.367536801063107 11.278169092099054
Pt 12.121517541406114 13.006126353089474 9.994104651492744
Pt 8.80917695004382 8.430860610163858 8.882603600416624
Pt 13.21370298400395 10.651083113376624 10.017561186782867
Pt 13.963090492852107 15.082332631608788 9.619209369236893
Pt 10.989625995300532 6.819525693993412 8.763265053674862
Pt 12.428276622303093 14.907148828637217 11.809736873623239
Pt 7.116489110009588 7.685216180705865 10.794874522444866
Pt 10.695752762518369 14.593260117666983 13.723864174065453
Pt 13.238148910379985 8.209142184689096 8.859189882046582
Pt 14.381581019213511 13.181813649565669 11.423601534365458
Pt 13.64083899487777 10.301415995200879 7.361246499285471
Pt 6.3070932721646 9.427531360389908 12.613688709480604
Pt 10.920741983559955 9.521553857737326 10.135728440466606
Pt 11.819163810781856 10.81597949110334 12.26138779225013
Pt 15.707218909470603 11.16987580300473 10.478382654029609
Pt 12.837466990536894 13.036523578905273 13.618554027642178
Pt 8.075137114237434 10.824495704915966 14.095727592665888
Pt 9.652667753323408 7.065551474842264 11.014529263985555
Pt 9.281426765210512 10.075180631249484 11.98903336900564
Pt 10.472246209314223 12.029714866022408 14.404012233594502
Pt 14.543254983883132 8.804435045728024 11.199113364315492
Pt 12.25176723360263 7.375380917472374 11.131316718741832
Pt 14.425477315013747 10.944411793712812 12.881099048243682
Pt 8.452995785655887 7.970731479532766 13.196775785581195
Pt 12.878973661785913 8.662748168647486 13.314696589520208
Pt 12.702835375824385 10.73044414521949 14.968566746174915
Pt 10.866309233929291 6.9616664495267555 13.346677462856801
Pt 10.418597268676741 9.385836953927887 14.387162566632279
