48
Energy = -243.80843139 eV
Pt 15.027044731627184 9.509808338149597 11.310574753615084
Pt 15.655340333672672 11.77638074699478 9.98323353438002
Pt 15.13654010370074 11.887583070854866 12.601964740475733
Pt 13.562548449593207 7.60491764183269 9.830371122047989
Pt 13.522600643288134 7.678725447390044 12.470737561561247
Pt 14.007383567347025 9.836944453829538 13.8586381945399
Pt 15.746519400120546 14.168860834882565 11.347591222750557
Pt 11.913145179963319 8.338398839430031 14.54022393030765
Pt 14.200433924368875 9.950521976286279 8.678667815065658
Pt 12.48583180986288 9.656866813834881 11.068754560145
Pt 13.479156442159342 12.941854350399352 10.72625820258607
Pt 11.480022781285667 6.147075251468318 12.347738962127943
Pt 10.835602765448023 7.166554196053463 9.979558713461392
Pt 13.9401036156356 14.212825595292788 13.328500219442255
Pt 12.674281341831778 10.701669474061832 6.580453763632847
Pt 12.008678972917483 11.455789818554495 9.246453694946759
Pt 11.916519342235008 8.626348129161592 8.047278584521102
Pt 13.955104974316317 12.615312387971795 7.963518503795146
Pt 10.445389216588408 8.51692353584406 12.316454987928626
Pt 13.606712490862572 15.728915375773365 11.18517497859095
Pt 9.687648011023832 6.8524563995313805 14.237340850451918
Pt 12.264648098187774 11.58901724964945 12.773524980765425
Pt 11.781526971759458 10.91019259566848 15.252917581605246
Pt 14.074249672689785 12.2301615053393 15.032789606419216
Pt 9.578149557480643 9.557342230406558 14.712379436450853
Pt 11.877653546406687 15.896862557095412 13.28587817752412
Pt 10.10872465209955 9.94699899128192 10.047290787790384
Pt 12.494391554426146 14.655531177768871 9.005388293417846
Pt 7.799237088705758 8.336688585638017 13.086556165737068
Pt 11.74973491065646 13.535407007708068 14.686360179448597
Pt 9.257252035974293 8.135713214428966 8.072684562775693
Pt 11.295054447947265 12.957268897145118 7.209755849740863
Pt 11.312989989776408 13.778412199999181 11.83640577352112
Pt 9.824612800408529 12.538626311461508 10.185952806497435
Pt 9.428986136925884 12.201710275698987 14.730687560043748
Pt 10.134987497938683 10.520135325778597 7.296611790800972
Pt 9.713759633095016 11.076528354080082 12.367185959130097
Pt 8.284008751546034 8.112019223169549 10.52064661182865
Pt 10.955451145990862 16.04873510855363 10.689861360045235
Pt 7.2691635767604765 10.7245311691437 14.177226416314177
Pt 7.794596918646118 10.29561875124964 8.913227061244399
Pt 9.901476753398653 14.711789303718204 8.67955201900974
Pt 9.559477141195616 14.591101387828985 13.559190889565205
Pt 8.603359833912421 12.600920106789225 7.801652935656107
Pt 8.585759359451771 14.735621754754316 11.046367608102868
Pt 7.672619208905275 12.92079122664963 12.742939153164556
Pt 7.22851850975163 10.431640959245422 11.571769712635918
Pt 7.199074192372034 12.631044415116286 10.103815840312542
