45
Energy = -227.56546376 eV
Pt 13.025709071629343 12.358673061552603 7.659731790992493
Pt 13.618573183674334 9.742107466557945 7.6332940901340764
Pt 10.501460621025839 12.67995524815735 6.824777957698733
Pt 11.118418112424548 10.412553927683954 7.961575337941028
Pt 14.632503419739004 11.321024701946564 9.510048216038271
Pt 14.680804920542494 8.597457884095272 9.676387311566927
Pt 12.05192730552796 8.45430453229596 9.377748690092846
Pt 15.694067003446909 7.44934778471149 11.760965104035476
Pt 13.854785009210524 13.849667137292236 9.770301917606165
Pt 15.789712808017455 10.061086750199156 11.657911695166213
Pt 12.011384740987753 11.805539885465619 10.09513062253723
Pt 14.744973207188648 12.460541181868484 11.90220673276356
Pt 8.788472314222558 14.089321677433247 8.264557442224211
Pt 13.102851748344698 7.151514567890062 11.462107915119686
Pt 10.617431636378319 10.28275680283207 11.63722710654926
Pt 9.4964082396792 9.078895680221247 9.534417563078904
Pt 8.872207891535021 11.49233112617276 8.65864558996737
Pt 13.867566878840643 15.877541421699721 11.30754852029273
Pt 11.36854402089331 14.180963900206837 8.777647701241337
Pt 13.206891727907166 9.999769259187763 11.70092891183674
Pt 10.528112271178335 7.262528293104059 11.167153413356761
Pt 14.125335064725512 8.332493246522375 13.658861009676263
Pt 11.293389002033566 15.811202516632441 10.785514386677258
Pt 7.917197578120233 10.503525574891166 10.997801924102426
Pt 9.751498891508652 12.674628681738202 11.042432286382537
Pt 12.041357098882846 11.507760847539062 13.455173199477375
Pt 7.1331206063342085 13.043090842969505 10.026632817294216
Pt 11.487564315209418 8.261195145901102 13.41401829678357
Pt 14.004373930954873 14.493651696839168 13.51825938843541
Pt 10.030834417390622 10.044786231782417 14.792590955977548
Pt 15.998831074587292 13.05058093541926 14.184599234261817
Pt 11.95047483808896 13.593549450931963 12.017771845456112
Pt 8.806271270291383 15.058983357366921 10.69153447146788
Pt 5.940137230856894 11.832909439279286 12.018757602899504
Pt 15.076988842889362 10.655567242727745 14.097844959213369
Pt 8.930424909519296 8.691402977005245 12.778440291346895
Pt 12.163808106912976 16.299135787381513 13.344977417076864
Pt 13.679496208317149 12.507921531438217 15.307204034371377
Pt 12.679798453414772 9.758290788173694 15.284174319154218
Pt 7.839012776284081 10.929135076561407 13.640865215514511
Pt 11.355682348054144 11.907509432457447 16.26117261559327
Pt 7.874325285839428 13.444217429967296 12.70782549380281
Pt 9.665443809008979 12.68227935515883 14.426552568879236
Pt 9.922345836846635 14.971972447834784 13.107785827653307
Pt 11.68425658674498 14.261937156226283 15.01106209059486
