43
Energy = -217.64931551 eV
Pt 9.941583510002197 14.599816227247702 9.769713345664318
Pt 7.7460697913624434 13.882099433180231 8.45755396843719
Pt 10.044147156979173 13.149445151390847 7.48373033229168
Pt 8.27003914433014 11.319610686829057 8.103504639876478
Pt 12.280154828898048 13.854558732891222 8.763012986629315
Pt 12.29282466950487 12.419641781938196 6.493466634427303
Pt 6.912805401018759 12.107036407954036 10.256778951016134
Pt 10.354172061350319 10.584105777919374 6.633423066221516
Pt 7.619465988782748 14.477448763422876 11.039712100206383
Pt 9.72870106922319 14.432043980669006 12.535201709261651
Pt 12.055671428110662 14.363508479130342 11.335973653174719
Pt 6.605792273585129 9.705361061583964 9.290359474452002
Pt 9.705560666282382 12.164199361438191 10.606613939013364
Pt 14.34701258018763 12.103944230982728 8.118217653123397
Pt 8.735323275493123 8.692650257332224 8.05896101642859
Pt 14.37182776254903 13.494872017128348 10.422094855933196
Pt 12.851262027252032 10.052708343635821 7.549653938164431
Pt 12.569088797193887 11.586365843620465 10.060325232887191
Pt 11.149644421632537 8.080848462822859 7.2208892893928995
Pt 10.596042907914724 10.106536781981974 9.216527112650656
Pt 6.951189671367206 10.080771379518044 11.923178573795882
Pt 14.976623125841664 9.700357514010232 9.183870025675054
Pt 11.846528432906762 14.423238839524494 13.994948605081369
Pt 8.002523726671205 12.411884001237341 12.745310745323334
Pt 13.743294282987211 12.915652646224219 12.91660930869729
Pt 8.04962198315417 7.932176538508593 10.539667463026257
Pt 14.851718346813058 11.083713194183487 11.364056760531978
Pt 11.459538611700353 11.481478035661162 12.412012602345605
Pt 12.010361695190928 9.239333264690577 11.228285054460013
Pt 9.566294874076917 9.807390646967477 11.605692450509048
Pt 13.01932650703422 7.933917225780253 9.106983806695062
Pt 10.075422246850987 12.438244588027926 14.386888855504688
Pt 10.427640057976166 7.155432898133092 9.57656707476719
Pt 8.675452621460877 10.208620300152955 14.032388020234546
Pt 12.637413181418257 12.207035114802368 15.186965452874354
Pt 7.762138126618922 7.847535916857816 13.177553873747105
Pt 14.40328703316075 8.505928721886415 11.5825253832886
Pt 10.052164854998503 7.131754121085922 12.169373493551479
Pt 13.684621242231891 10.299145466155279 13.576229083194908
Pt 12.362553097471494 7.992009494703996 13.483892854017823
Pt 11.296634320321417 10.030741779303904 14.854313851913505
Pt 12.444727331444101 6.509169167823923 11.260401074235912
Pt 9.927640107298187 7.891572602308402 14.68047692792424
