46
Energy = -232.53449837 eV
Pt 11.818106638137177 5.868316948353279 11.268051264511357
Pt 12.251582147640672 14.702246520121163 11.517572687447574
Pt 13.68986208597201 7.63411026598353 11.230391692516793
Pt 7.91456184971777 14.309767458300406 8.84647005524663
Pt 6.876694046605818 12.128628946938518 9.664922090345199
Pt 9.908417897988445 6.333171142198258 9.467169305371092
Pt 11.053478486815784 9.594798609370619 9.211221346247621
Pt 7.432186552885021 14.079873967414562 11.485615634149754
Pt 7.663693584017423 12.37188646206627 7.068175123989984
Pt 9.955403918710482 13.736703732712924 7.198965668118041
Pt 10.511571062846661 11.34788307831549 14.65797878567472
Pt 7.6780445020193 10.018907347068774 8.208222628571383
Pt 9.87303508891315 10.759823762983599 6.689455808892862
Pt 11.952065374563634 12.07078957589244 12.132734312934689
Pt 7.649074341342107 8.876255817662445 12.522442469447938
Pt 6.13905911296451 9.738619725592528 10.41579406637749
Pt 12.265929464747787 7.253190748029043 9.054529792102024
Pt 10.309048341511712 14.740187969446438 9.723001146317223
Pt 9.778719230287706 11.89427392399057 8.997180016764842
Pt 8.024992601147561 10.663840207422385 14.477562737935118
Pt 9.005914440350907 10.25629590886157 10.801325014837609
Pt 14.538237127077315 13.391751577900122 10.532927017439329
Pt 15.542928259762405 9.41437248984599 11.323117150955463
Pt 9.581866629708975 12.67189112105801 11.467603914146173
Pt 8.724936482546884 13.13752442697286 13.828829126950707
Pt 14.752595409454619 11.622102695202178 12.370933784911465
Pt 7.959341505887776 7.96578095689044 9.91946318712697
Pt 11.182790339052701 9.578633591088995 12.025765084001428
Pt 12.076985586720657 9.326407697241413 15.190456922171006
Pt 9.6906289397123 7.2792327528244 11.894582080149378
Pt 9.482845526443807 8.214873593765171 7.668873725896283
Pt 7.01516366051082 11.533257039419842 12.21890842417915
Pt 13.994937751492584 13.905450815180751 13.279608021631862
Pt 14.265884216336469 11.599762827562733 8.435381612996572
Pt 14.336534648584754 8.929069124569235 8.93236383674689
Pt 11.756298413534951 7.67261997521795 6.627333914522344
Pt 9.754581592579958 15.124142255264086 12.331646352438929
Pt 11.36349050442684 13.791024085255222 14.00895647672759
Pt 12.525340541426282 10.017388274694254 7.106044760304679
Pt 12.230587179915336 12.569122410023006 7.02781466913679
Pt 13.108754497003469 11.693803787879359 14.565760620704726
Pt 9.741694060272765 8.741530393471798 14.096575285542231
Pt 12.136446140076504 12.885324510106964 9.572622514321312
Pt 13.723646972654288 9.336185841196196 13.239924321582516
Pt 13.073023079975652 10.505854189526461 10.486700771518104
Pt 11.93410684665618 7.3330948436113905 13.46227924464273
