48
Energy = -244.3665922 eV
Pt 16.227162073768028 7.92707947928136 12.713755802299461
Pt 16.46246384946407 10.392271047979815 11.957270077217448
Pt 15.5923139295759 12.418411194775038 10.693267260693768
Pt 15.555177482185162 12.418285623634997 13.390084262659085
Pt 14.569004453125634 8.988660987268211 10.789111834319922
Pt 14.864770839263725 9.817874916405705 14.081303458038972
Pt 14.129181206494255 14.278953949393275 14.581126023108324
Pt 14.642491581973324 14.336045038342244 9.296480603078681
Pt 14.452720876513935 14.520729445965307 11.987854896418423
Pt 14.47778879845862 10.768791581618046 8.886685367365963
Pt 13.787840395672246 7.513421602153352 13.225711794029037
Pt 13.568701344964419 11.041770824022775 12.115371383530594
Pt 13.218109264731735 11.7645443135342 14.70298660723972
Pt 14.43827277306349 12.750584160358631 7.215896055169399
Pt 12.344932460610442 7.373377130198503 11.125002942198995
Pt 12.479040365402708 15.316647298384519 10.4533076129689
Pt 12.331026367322869 15.703085388241146 13.153526732996765
Pt 12.797795613585253 12.404301564732586 10.090513378257238
Pt 12.068787552531143 13.204377569076726 12.438323680206699
Pt 12.539995142177933 9.030329030286408 9.076382819223326
Pt 12.246448629653687 9.321901152285271 14.413304562593563
Pt 11.58606139645268 13.766178029415835 15.078841478277655
Pt 12.247142664125374 13.930252497901984 8.079592917867734
Pt 12.335010669888065 11.158757545425988 7.402150030893621
Pt 11.29977186578177 6.945200805796393 13.597684510527884
Pt 9.855647732560275 15.53133309599657 14.214082408274898
Pt 10.145769879159381 15.101420039587808 11.723392456199994
Pt 11.43936966710892 9.682332603834414 11.892274954373043
Pt 10.166373821008717 11.312874557589373 5.950587367957403
Pt 10.205037053195463 15.071635993388892 9.178706381457024
Pt 10.496807780931537 7.424714151379417 9.29902488554711
Pt 10.613127229055726 11.277979383369084 14.94771694811416
Pt 10.35743142178534 9.345499385254042 7.573824644944397
Pt 10.620500928025049 11.046106044387155 9.876659460722538
Pt 9.970162404873875 11.732252948504494 12.42644937248909
Pt 9.810551359353216 12.844368540461343 7.994480893695029
Pt 9.040972890765698 13.321963960324812 15.39447711986987
Pt 9.60334029794671 7.838448551039628 11.748560785508262
Pt 9.57330202711084 8.929085000704312 14.147058135274833
Pt 8.190204836880318 13.836742786357812 12.950670589414441
Pt 8.817066058209516 13.195884464698143 10.411052510816353
Pt 8.12727049479952 10.92017046654761 7.744099276824336
Pt 8.663369771942914 9.210610724903193 9.695899858393076
Pt 8.017295940433106 9.884915287563198 12.205825497323401
Pt 8.010828655486284 10.932678545971134 14.677975266736995
Pt 7.156420644830126 11.253927196508588 10.116104174761306
Pt 6.521851638893889 11.986506286082925 12.49307997778936
Pt 6.492310411213595 13.046969219475852 14.879905427414847
