47
Energy = -237.31711069 eV
Pt 12.766426377071378 11.983786827664508 7.246771941728767
Pt 11.932681247668688 14.365635906064657 8.34126848245228
Pt 10.274166248617538 13.028872262611916 6.919379038845314
Pt 14.59825874838709 11.279632263523352 9.201700011564615
Pt 10.54915582838995 10.45726033083065 7.06677526331823
Pt 13.001706134043697 9.467530234494111 8.080953673871555
Pt 9.279343808392296 14.396212719697148 8.960389674237511
Pt 8.72278908653622 14.997123590212796 11.618231861759142
Pt 11.472146841670142 11.265442310873397 9.370628569855967
Pt 12.64442750142997 13.172969919481213 10.87714361280696
Pt 11.14377818752808 15.56833249454519 10.654124411061915
Pt 7.511958092917871 12.839656027681789 10.664211152570447
Pt 8.557659634587848 11.749769468850403 8.37916580695968
Pt 12.745754865948784 7.062739139906783 9.149710549462407
Pt 6.790509252113776 10.422701651603951 9.717377946882806
Pt 10.844592348669183 14.915230694289276 13.182407376870328
Pt 10.121774431565806 12.913726457574485 10.869929393200323
Pt 11.429777409019605 12.266876506824497 13.057799765577757
Pt 13.384750508872797 15.176574467782485 12.312304827481006
Pt 13.70106677097241 15.592266956999323 9.773401071897098
Pt 10.872350375751603 7.913693525894024 7.484896051987343
Pt 7.260067923110667 10.757418026213152 12.29756964116654
Pt 8.731831538915072 9.029949418583447 8.479578332047128
Pt 14.511452501716526 13.693388963207816 8.15947186574433
Pt 11.368382693176997 8.81170818656356 10.48473698123556
Pt 8.690822535564065 12.92068578343541 13.404373178248086
Pt 9.38492829064753 10.476179005304978 10.855043655001712
Pt 12.959617749643694 13.881967094721373 14.579391229145353
Pt 12.84166649962067 10.613127033570468 11.582172653660331
Pt 15.186376153783295 13.491616280908287 10.679075193049288
Pt 7.525677950371036 8.37796659595332 13.451715811072386
Pt 10.279160157745284 11.303002465816931 15.277779503165666
Pt 7.8611115931978395 10.656242222902229 14.751040244488333
Pt 7.949733018681026 8.304345733754262 10.910414457802165
Pt 15.190058668699459 13.411402063850842 13.276589699487129
Pt 10.487669588605796 13.780867433494151 15.4603647625733
Pt 13.840712470168356 11.391026053792837 14.124730629356975
Pt 15.346985329671103 11.043953694545527 11.815282859054753
Pt 9.902841024634643 6.901045278027879 9.777894671791701
Pt 14.408594355900995 8.902553039126625 10.369370690516154
Pt 10.79102652903237 9.76427059415076 12.916262665334648
Pt 12.282754673265165 9.64880091241308 15.165665251207326
Pt 9.68041332979101 8.703455559241322 14.967936195891076
Pt 9.83953496100149 7.289755913042041 12.511290652614091
Pt 13.929530259965471 8.856061777000251 13.131353196217868
Pt 12.557359409002034 6.920477699342079 11.744329295957346
Pt 11.90702598018457 7.282678500517897 14.19324730068625
