49
Energy = -249.386016 eV
Pt 13.475348267613997 8.899391691634435 6.542759062373336
Pt 11.417160158044927 10.509153035212131 5.880472005854138
Pt 10.978152132677545 7.958835615298339 6.336365708289666
Pt 8.895434268774487 9.482164342788158 5.719631387536445
Pt 8.44645788140579 7.113004502825136 6.834658626794585
Pt 9.171941658009874 12.091260105851221 6.089932484642008
Pt 13.581830936369935 11.33940319045854 7.529156000364127
Pt 12.6021480031669 7.1503185649928325 8.323161324404866
Pt 10.934236936519481 14.995699646914892 7.536842110832506
Pt 8.54221895625356 5.54944904800009 9.038244337010859
Pt 6.640242071299805 9.090437564753314 7.078550459043646
Pt 6.926536695115794 11.767700170110325 7.5174884120519625
Pt 11.5679750756281 9.861011877864076 8.511568204496147
Pt 11.145459966663063 12.478399731836905 7.69772351351415
Pt 9.0515185520482 10.410963215973377 8.159474522482428
Pt 14.083031180921163 9.219696321951057 9.17632081653413
Pt 6.255096412581434 6.851921152737391 8.525156117066706
Pt 8.693667162493414 13.651518472592098 8.342106049606517
Pt 13.099044658344951 13.735886757750919 8.748634311938988
Pt 10.631753878750239 5.56624928580315 7.443307399831271
Pt 5.5308854488416905 10.416306942711186 9.231293872455105
Pt 10.780704232092077 14.34677401091366 10.021514328921231
Pt 9.88583564174094 7.925948703485185 8.912254552960341
Pt 14.426330045644848 11.832332085026673 10.024148557434305
Pt 5.258608256953239 8.197105311395159 10.637894153905286
Pt 6.9118132875309275 12.482669358481292 10.06913185809085
Pt 7.567003581080693 8.85082421268955 9.581209608543961
Pt 9.506752469379295 11.850889776605861 10.270384240026054
Pt 13.88946869246485 9.835926882877992 11.769856125950936
Pt 6.700917325345862 5.969463961332862 11.006438341649503
Pt 8.362934636144017 14.410256599062459 11.02466564546984
Pt 11.182128107819022 5.783427379788219 10.060166135578244
Pt 12.882664830342907 13.578212814294849 11.415722094246828
Pt 6.141093384105249 10.479800888528441 11.822680236767997
Pt 9.04984312853148 6.921266307675289 11.292227004177214
Pt 11.079529852336051 8.877381201164628 11.028063884782831
Pt 8.753381396093223 9.83176231289629 11.59609378229342
Pt 13.188902319008966 7.3957492168726295 10.913744576966767
Pt 11.944330045622065 11.260160698061926 10.637431952615344
Pt 8.202126494443734 5.928480059208955 13.454814691700658
Pt 10.351693749084736 13.305113027803733 12.415632431808886
Pt 6.847034470135582 8.067852080505968 12.756561468051586
Pt 7.833358835371879 12.390670241982093 12.659095278917306
Pt 11.262629063917343 6.670098502283136 12.638212459241391
Pt 12.348088232955556 11.684062960941203 13.160416539376838
Pt 11.87854957488851 9.155520262809059 13.469391539070608
Pt 7.438080170744732 10.237853704819496 14.14052788976229
Pt 9.368433215342646 8.287303710583423 13.844415832933368
Pt 9.914813565241582 10.931511395736393 13.741646967518989
