49
Energy = -249.13860524 eV
Pt 15.17907756925349 11.769302190760309 12.481605035367595
Pt 15.261526115267017 10.878731978421479 9.986278956989688
Pt 15.413190548586673 9.109144677283348 12.045065982376869
Pt 15.235470823710545 10.044023755633814 14.502713029816034
Pt 14.684615540954447 13.370340797023358 10.483491070848501
Pt 13.916401098587826 12.29884325603509 14.839023017035213
Pt 15.146862878137112 8.228556085023893 9.601414023745182
Pt 14.2276354849948 14.165756048342251 12.963785591636853
Pt 14.617867004058345 9.89768941610544 7.608009646646189
Pt 14.232036345146032 15.934838875940844 10.933511260062861
Pt 14.107820560367404 12.442730836995443 8.054542713407566
Pt 13.69908178409087 7.9592027346903516 13.793448381067831
Pt 12.902821464052607 10.413071563663284 12.515868306328931
Pt 12.719375595866243 16.289791116128182 13.099923159817092
Pt 12.640390479570279 10.66925865670742 9.980928575268624
Pt 11.526927019700866 7.558459713449845 15.257395663327696
Pt 12.693134125487077 9.994650620940595 15.201761065317198
Pt 11.209955189206955 12.18558874898267 15.354612372175326
Pt 13.078470670681938 7.994466966755439 11.209227946289749
Pt 12.394588397421789 14.473901038215267 14.962369413914999
Pt 13.206104014111698 14.85699254604602 8.71666963403379
Pt 11.857384440867238 12.700012306140351 12.902439390143243
Pt 12.012486021852938 13.09168863302853 10.400550693288453
Pt 12.692633255394268 8.34300375050169 8.591976620583033
Pt 11.5502268638175 13.19061975530075 7.587681915449376
Pt 12.159856211516432 10.668688045093647 7.283882649598015
Pt 11.11434633076618 8.561741709828537 12.847826410445325
Pt 10.14112695143984 10.784095444660483 9.550729242352237
Pt 9.719897814074834 12.365998032113339 11.595196071380926
Pt 11.630749650005681 15.746371213764059 10.83890156606513
Pt 10.092251188044735 9.837699159053418 15.040044126484686
Pt 10.631752720319044 8.066161937169857 10.248648248446242
Pt 10.414843704336114 14.942235229315655 13.152632098533877
Pt 10.529577030715485 15.365545123371149 8.55201869887858
Pt 8.998802843406013 13.243901717185096 8.642671143087414
Pt 9.114856441577139 7.480903120519915 14.052184041764876
Pt 10.195215313067969 8.904540867616692 7.772292907811757
Pt 9.191737281201632 9.839733891738506 11.764487172047257
Pt 9.16578230720601 14.8832859076395 10.729745980323635
Pt 8.892534921488991 12.03269870362721 14.213943784656804
Pt 9.691603214103418 11.426233371641967 6.8521213437008
Pt 8.122759822698319 8.3998547215215 9.450081951075163
Pt 7.733378105141111 10.949006452178331 8.619089116095578
Pt 7.314821468076086 12.733735245445326 10.641017315094803
Pt 7.698429286449584 9.665371119546863 13.817358427125543
Pt 7.934627582616353 14.095812705062652 12.87478192122111
Pt 7.532691498059059 7.76247221922085 11.965400676449478
Pt 6.763199293930929 10.13389526853743 10.924837272946439
Pt 6.545554850538424 11.836739296830252 12.99607572949625
