44
Energy = -220.84380384 eV
Pt 10.685316743735886 11.165650324136395 14.78906226755418
Pt 13.0850452496403 11.211216419201733 13.798368599038287
Pt 14.74319548650745 10.997588493699496 11.618172279583854
Pt 11.710054816879842 13.454653355444602 13.88284193439526
Pt 11.90301816645901 8.799125047605154 14.168481419824253
Pt 14.486619940212844 9.048042666539633 13.362506246909028
Pt 13.898891435928652 13.334897054402342 12.37534250728249
Pt 15.234607887249291 9.290251872274416 9.72198767148059
Pt 14.858649774856659 12.923186201979826 9.906972902636571
Pt 12.496755032998642 15.594132812221268 12.610006321176007
Pt 15.689710244885575 7.587090912729752 11.668539247835708
Pt 12.987798203651476 7.149907651936131 12.19676910452452
Pt 12.718816612774816 14.48899195593757 10.183709648356903
Pt 8.09894824570763 11.030724268005134 15.306476959536965
Pt 9.451209405082398 12.230291060789416 12.580035038809537
Pt 12.224392032241887 9.637383195003487 11.75537828450898
Pt 9.166016306746997 13.345303819176577 14.966738390231871
Pt 15.084886659053359 11.138554898636539 8.011302583999043
Pt 11.853739557851911 12.147807773963253 11.13120707855931
Pt 9.28416387572455 9.138592530796876 13.858125976562723
Pt 10.094408384505842 15.526813125993764 13.88415644689297
Pt 14.146598155310699 6.947248720776579 9.729867091761832
Pt 7.996914594303417 14.442853412707157 12.78041595132533
Pt 10.349077363089293 14.771632099235118 11.340947956114734
Pt 7.283414634269946 10.65573479015354 12.889383360836266
Pt 10.354882264232613 7.389388138112404 12.241475613450325
Pt 12.796869528377512 10.313665959070592 9.372640247312269
Pt 11.614046925625255 7.586240518389561 9.90617552076915
Pt 9.719344834139543 10.095017347437013 11.26688668973201
Pt 13.067869718984834 8.238774792932265 7.7716431919901074
Pt 10.370409879702361 11.313127647883176 9.094134166355635
Pt 12.92612436548885 12.809776435410585 8.178887228892052
Pt 6.262722173119806 12.763422967270788 11.84292283933109
Pt 8.351487106370051 13.399679524583417 10.375517563949089
Pt 10.491137289149092 13.930519256679721 8.87023680788606
Pt 7.7426061413715175 7.952587561429783 12.11934756218535
Pt 9.054610788291836 8.079588142630021 9.768663832272875
Pt 10.606695932553041 9.053092082725039 7.842108555059194
Pt 12.71815663310572 10.59415236196349 6.661787041503851
Pt 7.173009038437412 9.847744369713208 10.473705325220967
Pt 10.757850102372732 12.322386849911062 6.738239910352159
Pt 8.232558990523982 10.1418096730234 8.073347879050134
Pt 8.373016935644378 12.776724140622749 7.774262077474165
Pt 6.428657593132192 11.940677618617052 9.290960201595505
