46
Energy = -233.04744116 eV
Pt 15.148190394898723 15.569249505821112 10.634488643422868
Pt 13.356764215684002 14.238920848058308 9.299914147418038
Pt 14.049942625505699 11.767282396224305 8.445629899528438
Pt 11.706102068709558 12.895275192576559 7.852906716928971
Pt 15.6915454673042 13.063014330093715 10.132126653350518
Pt 10.830205367274708 14.76825606499898 9.607343440945447
Pt 12.526135432978114 15.629591230677699 11.456446623190228
Pt 12.125446895566668 10.28799738873219 7.322363676831507
Pt 9.819197746336254 11.544443741023347 6.552146323224833
Pt 15.98009977592008 10.5035272028179 9.7810858444752
Pt 9.056232830262182 13.261656277686546 8.366905957050948
Pt 14.29757265095779 13.84660435357169 12.31802570696556
Pt 12.771195570894312 12.087143405929842 10.77514373324553
Pt 8.26354783152429 14.88929408869271 10.195662245223192
Pt 10.047182114857724 15.216880922073422 12.241641024053296
Pt 13.861085582911707 9.221851923490254 9.029335027082244
Pt 10.70731269259408 11.03142298986857 9.447825549024348
Pt 15.34443930938193 11.42467430024395 12.165415667110357
Pt 11.88711422178811 7.771796087136958 8.382493844074759
Pt 10.212859068933465 12.773085601923544 11.243077872971444
Pt 9.836963830830493 9.018155794766475 7.345702880151427
Pt 12.108387136539706 14.210337159718936 13.63812895473132
Pt 8.177474466857253 10.838308652539324 8.515895915707452
Pt 7.601855333253751 14.228610508914665 12.619762985558713
Pt 9.625630356802581 10.296119913065809 11.808369716880216
Pt 14.636664367924961 8.936077783559087 11.605642415204144
Pt 7.538609452277468 8.285636796381672 8.472847263194158
Pt 7.607611003192713 12.358723247631877 10.683630811944711
Pt 13.798746145093727 12.181166914463564 14.205920712599573
Pt 13.468515135120752 6.921141430253224 10.311312538135526
Pt 14.873834393105392 9.815460530258065 14.127379765372142
Pt 9.744371637462775 8.006022816793319 9.770617665407757
Pt 11.50867541390338 12.422614256470466 15.47771796300691
Pt 12.11727559566599 9.594574310193858 11.163467074435758
Pt 9.538566594635071 13.45670036198108 14.135044239743994
Pt 7.32151014700603 9.649230295048289 10.648888484044566
Pt 11.685408664895311 11.292056973829899 13.062790583330855
Pt 7.801409051705212 11.644980526463598 13.305928252323355
Pt 12.81557869331428 8.44052432341971 13.533082110604624
Pt 11.232743443002386 9.812769441707886 15.169759201956927
Pt 11.32623136624867 7.1260006903248545 11.662669707375487
Pt 8.734315020735792 7.767786147971021 12.140556579049472
Pt 6.568502292456004 9.338645502534899 13.033517632877047
Pt 9.110221636685875 11.465553245958526 15.763006551897982
Pt 10.525325697759216 7.460077809655556 14.138049852612003
Pt 8.827395540734956 9.401658275358946 14.245896270686313
