45
Energy = -226.96342726 eV
Pt 14.54382135639965 8.906274458713757 13.503418637774034
Pt 13.02334107035541 8.19592568343986 11.350271028287947
Pt 12.845699562763013 6.726706971969771 13.511024977038002
Pt 13.123465910547896 8.186195784438196 15.732491782087209
Pt 10.91059769313051 8.072117047971489 9.699247231840143
Pt 15.055227461409148 11.49727761413846 13.24798969559191
Pt 10.680471196838472 7.342946426823918 14.930281030795236
Pt 13.723999900094057 10.706361552409005 15.413428136464486
Pt 13.155049783378173 9.506910136208347 9.106613698631625
Pt 13.07715875614844 11.694676889100652 10.875320588816477
Pt 10.513391258869618 7.3834788486240095 12.206389988767244
Pt 9.320960979929795 11.673334155983724 14.874383985978028
Pt 12.050991821688735 14.49169704758453 14.028461986300414
Pt 7.734214251383959 11.129042458534693 12.66431756688587
Pt 8.641483339545946 9.1150539757796 11.156292634172353
Pt 9.286971877753952 9.254274275940201 13.719503428433278
Pt 8.940493012179983 9.471894235034812 8.530769396533305
Pt 14.07225638767211 13.914994194589864 12.45063149620624
Pt 8.43882493593113 11.91455493525268 7.4209891020212835
Pt 10.976923870347598 9.886639368865536 15.819455055662806
Pt 7.812134058665077 13.560645989409439 14.036727960446461
Pt 10.923279783059302 10.279563774840922 11.25514611390101
Pt 9.964315996506297 12.41279772829976 12.361062108595513
Pt 11.253120373109896 9.204151200437863 7.276664269737648
Pt 7.649053415116218 13.923104004322845 8.923265676396051
Pt 8.082416262617414 11.50313943375096 10.019453630642852
Pt 10.83808089861483 11.747313800984793 6.345010884714473
Pt 10.06962201320296 13.936233709378106 7.834866530327681
Pt 7.78689016189084 13.758800344808037 11.465490551196634
Pt 11.978330989998266 9.376226846748267 13.506192616634811
Pt 12.261772756723554 11.938022610221871 13.292364427944893
Pt 13.317485279185664 10.854603880607781 6.791997615297455
Pt 11.664589916005957 12.441729770973275 15.757555847912787
Pt 10.828533667317926 11.24751356390437 8.878408525563838
Pt 11.171244187127748 13.308660413313266 10.35612994314797
Pt 9.58078999690839 15.31384157862793 10.155049701905217
Pt 15.037239501499812 9.965145444240253 11.068485663657341
Pt 9.774810817506276 14.952184405506504 12.902256919655015
Pt 12.615251362843695 13.140486485152154 7.841688680376793
Pt 11.953257569403041 15.503760677255347 8.844566546329698
Pt 14.149566352766238 13.259752584100438 15.063503548056321
Pt 15.810771257088128 12.62237047542496 10.968743703391844
Pt 14.715014412745704 11.691037915457487 8.81549274753194
Pt 14.036448545427346 14.238770700368095 9.831380044604138
Pt 12.00347624727559 15.445046999083065 11.513321281104112
