46
Energy = -231.65110883 eV
Pt 14.631830315356291 13.505859818599447 12.406259093503744
Pt 16.006730240260858 11.326988896056225 12.87882638935124
Pt 12.663378842192815 14.051223359651006 14.137874573450262
Pt 14.560818881644106 12.288580189734152 14.844413721473321
Pt 15.749757098334353 11.996053240856673 10.368631571453276
Pt 14.19688979172666 14.076079382675568 9.819199256458283
Pt 15.230855043737822 12.69985529604151 7.852786906342998
Pt 12.674514738139589 13.03437738429394 16.58881601808028
Pt 12.067414610080846 15.262516928987901 8.978550927149875
Pt 13.209087220783907 10.39607231242273 16.378175932106107
Pt 10.316639967795561 14.885051621979825 13.212743399144367
Pt 12.575697604796002 15.034953358780541 11.720129260972536
Pt 13.988290913149827 9.822590199103772 13.94164005987096
Pt 12.800720590390505 11.686117311717988 12.007442213346597
Pt 14.698385310721061 10.201039241651662 8.608774610092537
Pt 11.141661121756682 13.280228933051509 7.642864066845777
Pt 10.151263577840599 15.87960098284521 10.763949997067668
Pt 14.553954902072622 9.751180655918962 11.380795289483213
Pt 10.333173271519405 13.511267089921814 15.432698302687637
Pt 12.888114315774441 11.804803811643566 9.438592966359188
Pt 11.859323024002414 11.39788382426324 14.465578730716615
Pt 13.041833752742468 11.617691440447178 6.843603700856258
Pt 10.609819802319228 11.31408937896956 16.949850317445886
Pt 11.04976804079697 9.81259351295211 11.968113829581656
Pt 10.219429423887078 12.188073582574653 12.669606127468844
Pt 12.562068810148766 9.15859461041458 9.835179672324479
Pt 12.437947758284217 9.02391580419708 7.291850702664204
Pt 10.649658574622118 9.291576572838533 15.31810939854889
Pt 8.074671017067415 13.60324310949943 14.019349169236072
Pt 8.627052470548968 12.431305375008534 7.2059462565161425
Pt 8.86811685788307 11.25182163892927 14.875570698062047
Pt 12.825040579318287 8.006634417380525 12.49201993194371
Pt 11.058702237281695 13.250760591029737 10.50512655005886
Pt 8.41617715601186 13.926935063738272 11.446567181029657
Pt 10.42507267642071 10.855288213777216 9.669497168022465
Pt 10.563855045738332 10.734628407451604 7.034682545006558
Pt 10.71132710913916 7.247859264377724 13.834339599724098
Pt 11.939043792224465 6.699058431937908 10.202138217432777
Pt 9.070082611079812 14.31014704407554 8.94077050128564
Pt 7.726850504158364 11.440219024153658 12.412702763422036
Pt 8.811504335052902 9.139606748679421 13.251740823403692
Pt 8.263637428676802 9.896874395119681 8.027597828774066
Pt 9.851450638742516 7.53634048264479 11.419198360038582
Pt 7.952302567447515 11.950844695341713 9.740697142781135
Pt 10.124319792946057 8.254948677625384 8.910735769273643
Pt 8.223823313630685 9.506790157951796 10.676548752831952
