40
Energy = -200.38227346 eV
Pt 14.025678780292662 9.70541362022109 7.784527753792984
Pt 11.498554357625505 9.751229963342913 7.165857888663715
Pt 12.852349266449858 12.037179250108673 7.149910188612007
Pt 12.523044426166816 7.7723712011854085 8.704252326474286
Pt 14.27718723873073 9.011424454516943 10.3379433752289
Pt 12.47132340548547 13.815728878153198 9.187131738773209
Pt 10.67544437041918 6.2920858308842025 9.816339247380183
Pt 9.70797408127063 11.670196522567087 7.148327475796022
Pt 10.318271310121446 6.2746051887126795 12.505222061167089
Pt 14.04852440744465 11.657558397674244 9.53983000739894
Pt 11.395272752661823 11.358365810772987 9.410354497282116
Pt 14.647116379564322 10.987392954461999 12.031267904294353
Pt 8.7708312687689 9.346511032836142 7.310798648274624
Pt 14.170205305143 8.537155282102301 12.920131324575122
Pt 10.969586086605968 13.864353718539546 6.996072539353429
Pt 12.57244175420052 7.165647588380289 11.340852487182513
Pt 10.300452868317057 8.9556735082632 9.405287272089353
Pt 7.754296320102155 9.728727216847622 9.658665795281227
Pt 8.692485005080162 7.585282344112976 10.957505073436542
Pt 11.868461083874214 9.731101977690592 11.420357225989822
Pt 8.68385491556232 12.203382507134116 9.545668859024712
Pt 8.327177411951782 13.845600819931162 7.423622969621633
Pt 9.881812503514917 14.593307905918914 9.338381492342616
Pt 13.750823797149327 13.420177471013583 11.461710583639444
Pt 6.826820995789241 9.063039961598314 12.012158196027574
Pt 11.556275944756074 8.279561432994024 13.621624946335398
Pt 9.476015013646947 10.615539419070785 11.706133932543475
Pt 11.462997915776647 12.276114151786393 11.789731458169346
Pt 8.903721686777752 8.277917332249812 13.506667158393515
Pt 12.783206142527774 10.518865677577676 13.989586703439118
Pt 11.430089254003578 14.893243769526814 11.360884757086085
Pt 14.171426251679927 12.720682536374396 13.954636446867513
Pt 7.220294881296532 11.74246126566842 11.801970146347818
Pt 8.923384061124285 13.783050877049723 11.617250096306252
Pt 12.793271899954735 14.93782019489739 13.592962938622627
Pt 7.539169664600529 10.451450064748936 14.123791771836702
Pt 10.18229145809369 10.477114733497926 14.275849341764088
Pt 8.829733005169748 12.73020275968707 13.987601954797046
Pt 11.480360448694658 12.782532794483688 14.346266170361401
Pt 10.103340067827952 14.984350521029542 13.670182590341504
