42
Energy = -208.11783274 eV
Pt 11.802504708505554 14.266642782327995 8.399643128749217
Pt 13.226369092691654 11.97483415358823 7.649931122061684
Pt 14.30597293935734 14.054710607541336 9.24565661336076
Pt 7.960307266003968 12.352277955344446 8.466208121087531
Pt 10.47285516198682 12.097602366361802 7.6918809485215345
Pt 8.957286481675592 9.884568642932647 7.837722884611585
Pt 12.329282598142823 14.58843418331401 11.180517710581478
Pt 9.700038583525838 13.952074427741604 9.980913713566204
Pt 15.38075571925718 11.600395447913344 9.139864670005668
Pt 15.022230862352801 15.18238935238994 11.599359410973506
Pt 13.983125457337678 9.539496406333612 8.858193395492266
Pt 7.468137069055321 12.69941413213265 10.990581069056136
Pt 16.66534533204939 13.396439040264482 10.54356378937573
Pt 12.06552020018314 12.10362907833444 9.892912627841328
Pt 7.253772268454112 10.110229267427954 9.793665674083098
Pt 14.08126422905895 12.47627053912232 11.411736560714749
Pt 11.487770162895679 9.69871149481111 8.380326996460525
Pt 8.833859273541902 14.39182633918227 12.47986568724284
Pt 9.611393080162815 11.068869332691344 10.25558516702957
Pt 9.756393482436275 8.35877909439572 10.104961766066792
Pt 16.120778994017222 10.840206037213907 11.497639210123848
Pt 10.686777390685814 12.514225235920588 12.138263973544872
Pt 8.839349297011942 10.596968119629354 12.75153031958495
Pt 16.050100133823243 12.956315404317 13.104374759443761
Pt 11.786843650344398 9.969167138244906 11.276158622100647
Pt 14.225667642029574 9.05278872071682 11.481134815743761
Pt 12.374205737879013 7.779705564284285 9.97826505508076
Pt 13.663761643663749 14.124757591065796 13.564475064267942
Pt 11.13775583823073 14.626945627932859 13.671108632482389
Pt 6.215081801477588 10.56627525287331 12.135321052008502
Pt 7.227683791874694 12.58544269402646 13.583829401462458
Pt 12.669481455497696 11.382576392710837 13.25663380754076
Pt 7.750478692976855 8.401483087747044 11.76751150899544
Pt 10.257012422550185 8.420561653566029 12.77794043912866
Pt 14.958950387790942 10.25977560920357 13.794822831852224
Pt 9.678201687556655 12.68305049477012 14.668979338497108
Pt 14.832303520727486 12.470882882540359 15.343057185123198
Pt 8.170980794093001 10.650936711293834 15.21546989296285
Pt 12.687284909056167 8.740170237829414 13.734073711183518
Pt 12.206839159264536 12.864674498632182 15.375254622432927
Pt 10.751706983065109 10.161267327019797 14.905285382441608
Pt 13.203691829598418 10.417273803611963 15.835930280220461
