48
Energy = -242.15242024 eV
Pt 7.214471816975675 10.789280635456873 7.5381284992524575
Pt 6.953096447080147 10.994868482055372 10.254769280439529
Pt 8.419484516097528 12.77118434901383 8.896970529010632
Pt 7.212069676700717 8.555929041075533 9.119075811375454
Pt 9.77715975632921 11.312248633150721 6.958352148374807
Pt 8.849901720051927 8.747981231005221 6.986424389670034
Pt 10.757238918335686 13.565277604069433 7.876958564493197
Pt 9.700307871828759 14.67622100270929 10.201187030932875
Pt 9.283108170613124 10.197572032598547 9.370965144572121
Pt 7.84503451616952 13.254910678741304 11.485690056366876
Pt 11.87218330534567 15.640770541762741 9.068452090518964
Pt 7.089943983905213 8.542045854444764 11.726572834728229
Pt 12.42378161112288 11.478359091426704 7.160121037281055
Pt 11.394089698709918 11.63724499748314 9.545553048445594
Pt 9.672748941512946 7.558105286712275 9.297060408534806
Pt 11.487330646214504 16.19164596155936 11.634556140734619
Pt 11.335109428560823 9.155680740159571 7.895823893953399
Pt 13.379140940511997 13.629164362891782 8.492377983243703
Pt 10.01298382592294 14.458874159769199 12.932465559827397
Pt 7.337542548612044 10.881085196282234 12.774102767293577
Pt 11.941547517347969 13.415111177984793 11.27867065105269
Pt 8.746035753359381 12.561583292747294 14.186061550874083
Pt 9.92653887034829 11.843331595714297 11.811235206736544
Pt 9.621966002064159 9.212593026399611 11.702163980905024
Pt 13.833516440092914 15.107145405578205 10.776203779522602
Pt 10.240609568794552 6.709241227922009 11.762934705155947
Pt 12.798270698008759 14.613318403937773 13.409213770387
Pt 9.906201936275153 11.427513778983945 16.356602117954743
Pt 10.130720568339848 10.227338872959647 14.093540539565987
Pt 12.074817582133281 9.64512909059581 11.116011372554347
Pt 8.775130181081394 7.820387329235456 13.705160691153107
Pt 12.192648805852725 11.410028924877821 13.017734915411214
Pt 13.75420281343026 11.660128530113838 10.779362577642814
Pt 11.339653149722146 13.123885067632177 14.948818215443728
Pt 14.97816222258254 11.696752784026454 7.8584089901678285
Pt 12.269038330252862 7.459453294734711 9.810142061463672
Pt 7.825088908931458 9.943128595170494 15.135916313560937
Pt 13.774080521824642 9.496105149094433 8.722430207094828
Pt 15.235153472557549 13.793774846760583 12.56873315348468
Pt 12.563628546657219 7.525128386067914 12.524060586132242
Pt 15.577160871558913 13.221408256750411 10.005872237603322
Pt 12.424673264413613 10.809640316361122 15.79229106548082
Pt 14.087923945930227 12.414525148812686 14.428622735194946
Pt 13.77307007685649 9.483756380999445 13.873653702589428
Pt 11.622330393677354 8.33553260229532 14.810587325617737
Pt 14.540499240384975 8.75125894449146 11.305448254015186
Pt 15.462673819269078 11.04603152498997 12.56974682058295
Pt 15.979986700126558 10.476279626468132 9.96931924112102
