40
Energy = -199.81074481 eV
Pt 13.105971751140617 8.142777172376887 10.261121858240253
Pt 11.449570991591907 12.763961961691589 8.690192152483238
Pt 7.000233913854127 12.468853968343572 10.218587161438448
Pt 13.987281515472901 15.292137494852605 11.605938643543848
Pt 13.41121134468012 10.815178991322544 14.350623983863638
Pt 8.654425437161704 8.753878884542202 10.282274255320488
Pt 6.72472616023657 10.074457047989815 11.75623411751368
Pt 9.68279127193506 15.861087786931535 11.62655009641027
Pt 10.816640924900865 8.021149008119647 8.91947898169361
Pt 11.744383857965145 14.928534874724244 10.252787855568714
Pt 9.35013928346446 13.791615669640805 13.260110194666394
Pt 13.080684006027202 8.56873737684839 7.6342148890823225
Pt 11.444607866981768 12.635963508692791 11.54551038343629
Pt 8.76924188219697 8.957942277737484 12.92786200764472
Pt 9.031603132645806 11.596802216282935 8.626169614556414
Pt 7.413491081799178 14.548511080898026 11.69428988107546
Pt 11.473703357092504 12.70614991686337 14.455735064003349
Pt 15.32783010465298 8.91894125838783 11.717232011084604
Pt 13.77731644218748 13.246970488861182 9.929402779575897
Pt 15.63075281500057 11.168429644305647 13.01165993388207
Pt 11.149002038628327 10.37376096629257 12.825509159799577
Pt 9.024876953836118 11.418635867218015 11.530235185530588
Pt 13.454053062602426 10.82110887590682 11.501650757623576
Pt 11.753760315620314 14.886364057063723 12.979613591100577
Pt 10.800380855329717 7.8196316200119185 11.55432486131534
Pt 9.337254255916058 13.841959215006073 9.94497371151733
Pt 7.029012783893592 12.310047262442223 13.06696094301464
Pt 13.790185996451479 13.19877766039619 13.233297034728526
Pt 11.134780387405693 10.36536300627868 10.203451116603572
Pt 13.07572960630702 8.384884595123502 12.908269906077631
Pt 15.841541441102818 13.435294171432702 11.638604337525218
Pt 11.122137115956683 10.357025839967532 7.553254600833434
Pt 13.475303800869483 11.007285526159148 8.60254921461806
Pt 9.101425285319824 11.393744458210195 14.37370558209293
Pt 8.767263739007111 9.13909134174158 7.656739779139139
Pt 6.812664075934365 10.15106505407729 9.097756580198832
Pt 15.236755129700438 9.028006845426784 9.061251667327952
Pt 15.68193758858488 11.310562147283846 10.178019932103554
Pt 11.148506123008161 10.247368290044403 15.545452269775607
Pt 10.84639869412616 8.066088649977573 14.246735558139601
