44
Energy = -222.69294727 eV
Pt 13.436122034572593 8.574078537538291 9.804849358472618
Pt 11.066292527841515 12.873968475039236 8.23491777092804
Pt 6.76165762310056 11.890752448564829 9.824853054116272
Pt 13.198655894320046 15.749721175432096 11.167656405401615
Pt 13.440621570367668 11.388497560007366 14.0963914153006
Pt 8.968976049942828 8.484682871026859 9.883493512685686
Pt 6.803986662829522 9.386661812312203 11.243452411596884
Pt 8.906396092693846 15.64280012317472 11.234118011732672
Pt 11.188903788792878 8.094015374925108 8.517976171933155
Pt 11.044331313734777 15.015668261238767 9.824688170169019
Pt 8.919973485843265 13.535670646301448 12.849742062375038
Pt 13.29170018162603 8.97581208833332 7.18278010320922
Pt 11.260383840356981 10.388879272896627 15.189635696381888
Pt 11.131630570700711 12.679430290416173 11.16082811759117
Pt 9.022968426366136 8.454057493563791 12.51273692925958
Pt 8.882077234178228 11.330336467380482 8.234464879037239
Pt 6.787012875177166 14.01110394208748 11.265683758638138
Pt 11.178829388178919 12.808667182462067 14.09349388789248
Pt 15.599506963849004 9.607068076167387 11.074739542195084
Pt 13.28327997943857 13.686059383677055 9.508223781095966
Pt 15.545997606170562 12.082638513882847 12.512132651390425
Pt 11.210472992851775 10.419216928737008 12.47784678822648
Pt 8.911599603733565 11.097187437814975 11.219023933451233
Pt 13.424316506032191 11.210332092661512 11.126940143953856
Pt 11.094702752435037 14.98475592460715 12.554005752304809
Pt 11.242421157319589 7.863690620041951 11.156004179532887
Pt 8.859446598392303 13.578509444254038 9.57284792904553
Pt 6.791418453874858 11.865043983997058 12.677767904535045
Pt 13.45294800212349 8.926230575999316 15.051980817447355
Pt 13.35659359306321 13.658040099565396 12.781704007472955
Pt 11.1613691782058 10.444159715210185 9.842532562025736
Pt 13.486628424904596 8.570908250522903 12.43194848945696
Pt 15.397631391539726 14.228205189602885 11.115118106525774
Pt 11.10519108372578 10.456072085844042 7.146789491190262
Pt 13.319111611152826 11.436811799245648 8.167044801496738
Pt 8.991616317650212 11.264538099391805 14.170728509813593
Pt 8.997661592398384 8.859930702266265 7.256658117799973
Pt 6.857441127648406 9.605470402690575 8.679404585797023
Pt 15.446704362570694 9.82783233751146 8.52453987846673
Pt 15.473435798315634 12.116349597439275 9.66436634562259
Pt 11.29037145969296 8.059865500133853 13.800533566557837
Pt 15.558456655427353 9.787150162383044 13.640490965193198
Pt 6.939308051877763 9.56433435470364 13.80837924718342
Pt 9.140413312924446 8.811324239195462 15.135720812189044
