46
Energy = -231.75233646 eV
Pt 15.564566463548251 8.971283995140915 12.01135860792374
Pt 14.793821729659994 10.730235914354033 13.789705482660555
Pt 13.177462095239665 7.680435733449689 12.936827805271347
Pt 14.049542127837556 7.4778103453680815 10.419630677362944
Pt 14.397598351037786 8.087968725827373 7.755911473708908
Pt 13.262810968228868 12.143925621956924 15.40702765974848
Pt 12.72270551173109 9.431314372359887 14.919893033165703
Pt 15.656777587506605 11.668068275771455 11.374788823488888
Pt 15.208614604588822 9.846757405041929 9.515080468758407
Pt 13.185123519952615 10.037984842133307 11.860781872867035
Pt 10.306927688849964 15.529933746589416 15.537154392115209
Pt 12.540550416319489 14.524401049147407 14.680046777601811
Pt 10.255569354963331 10.265270399962438 15.39229198546967
Pt 10.738698113052864 8.743061836895953 13.237140377776049
Pt 14.204859510103981 13.231951262646833 13.107732091617464
Pt 11.776458776291788 11.516213457105067 13.434503551329055
Pt 11.335934535161345 7.6163108918827085 10.954824882900736
Pt 15.317753142236468 12.38242172686428 8.694075762983601
Pt 14.463265382214436 14.019166787946205 10.564231657888092
Pt 12.025075635025871 8.749221915412164 6.730310774860773
Pt 12.194206725916196 6.814340183874325 8.566196612829774
Pt 10.572988069617653 12.873045400795238 15.494913118085258
Pt 13.7298563258831 10.731484131711834 7.330482907750371
Pt 13.093636132067582 15.536116229353775 12.153686029068494
Pt 8.126013569016761 11.709293589929612 15.556084963834476
Pt 13.098042729263378 11.884836817661045 10.07463506978063
Pt 10.18475051097314 15.366424021810484 12.940559555965011
Pt 9.473118989182398 12.699176430723252 12.795206386705784
Pt 8.523125213987054 10.219187595421392 13.397572089780361
Pt 12.70011177064921 13.138424354637174 7.867032446677791
Pt 10.106028120036719 8.59097309818609 8.7151562737026
Pt 11.6721922290437 13.405388690442862 11.62215178349758
Pt 10.687982876043325 10.967188028203017 11.10862640619472
Pt 9.061160959837288 8.894172830348452 11.168748207365681
Pt 11.951633315916967 16.964203447572295 13.990134399764555
Pt 12.08754302673766 15.059561726239714 9.638958297004391
Pt 12.520988300979306 9.431097524921128 9.379636307392563
Pt 8.257196129675435 14.15180433509409 14.720440174502482
Pt 7.121827835248934 10.685284611110664 11.213087808465966
Pt 8.108476411414744 13.036120001704706 10.574163472893519
Pt 11.036690730705535 10.997936814322225 7.772649763257496
Pt 6.918950809647045 12.46455600717454 13.167629636999791
Pt 8.843226349283054 10.894184405201644 9.202562182083398
Pt 9.558303021676998 15.235132294159857 10.459507279468257
Pt 10.283848176794848 13.149139706780469 9.008980871411033
Pt 7.645026040970315 14.98822930088399 12.298919680138988
