47
Energy = -237.18116037 eV
Pt 15.767313895890553 11.781798571190071 10.57455721778772
Pt 15.203641088358392 10.967664092708441 12.99837148806954
Pt 15.698068774602868 9.931745968937074 8.58260146453385
Pt 14.628278764711466 9.31556759643706 10.950540874735587
Pt 13.452970994730741 8.764469490874887 13.2003731690816
Pt 15.413039744744294 14.336527991277153 9.772014779932288
Pt 15.389618247101499 12.496085386199239 7.901450468257001
Pt 13.45780715162072 12.605434219056024 14.295801749320523
Pt 14.163044017873077 10.229275851409563 15.252505960014584
Pt 14.792636715371067 13.689473260215358 12.234269721738615
Pt 13.136281640772614 11.832641018865049 11.641457609063659
Pt 12.457255424061094 7.648432466785862 11.026882929979807
Pt 13.4281280279546 11.312480911296289 9.114546814595485
Pt 11.286134125637389 10.43352377723749 13.19680156717878
Pt 13.8273957615483 10.636237096185482 6.653813535586623
Pt 13.420602278538937 8.592116499900504 8.629370987630365
Pt 12.203371996254011 8.440999365291006 15.563519037532018
Pt 11.794254003710643 11.01119046380952 15.77447032250496
Pt 13.133054589246147 15.152283041922315 10.774142514532551
Pt 11.046776223702176 13.452302276806886 15.117670731977519
Pt 13.244985977947943 13.955939952171285 8.416142459441886
Pt 10.90714190151304 12.995933988600077 12.45269950913174
Pt 12.434268276139631 14.8329408949656 13.280105775090739
Pt 11.901215249216488 12.521189403745867 6.6842771013936035
Pt 11.605501295182286 9.98533135673993 10.53297599116597
Pt 10.91680852985475 16.059500242279753 10.105385842746463
Pt 11.344525959884285 10.154740579697565 7.61300946923939
Pt 10.914898593624732 7.836346261155589 13.304326032777787
Pt 10.93901691754362 7.806689477347405 8.68692378563274
Pt 11.254890381857447 12.5489459453089 9.874095393053484
Pt 9.727677940182414 15.224331952744942 12.262930197967266
Pt 9.6826984105667 9.183934493285896 15.332499003788511
Pt 9.56557301852563 12.234632571453131 7.937854859705705
Pt 9.428950138925432 11.64998990102101 16.488862342092897
Pt 9.083333915713675 11.868958253686824 13.974095187528563
Pt 9.082718226221363 14.110967570155553 9.915676327467711
Pt 10.821887812234188 14.621310835785303 7.929598280321541
Pt 9.391921880600338 11.079624141322006 11.443503565355769
Pt 9.115764581873227 9.78376985678657 8.895401626370282
Pt 7.753637514375463 13.480671179781774 12.030514848250268
Pt 9.701540946564819 8.031600235654125 10.965928553466453
Pt 7.629134740963264 11.847131519945918 9.78043180792621
Pt 7.354337952046502 10.31614748896686 15.038191141514371
Pt 6.698576050029114 12.842717105477831 14.32445841182724
Pt 8.435457640903916 8.838598867053284 13.059274586370819
Pt 6.769827366408683 11.035634135237311 12.45330762684584
Pt 7.318110608514932 9.246247737070169 10.686442623320259
