43
Energy = -215.46181428 eV
Pt 11.881622159650986 16.45009891012578 11.667730015312978
Pt 9.573603819235244 15.674110873197488 10.786438733880855
Pt 13.919090680856188 14.733351157264064 13.50224556603234
Pt 11.315912864008292 15.490614539140564 14.049966857237095
Pt 14.060893759967254 15.127903143933926 10.827797477628357
Pt 7.251472159508069 15.031037198073824 9.920542418861883
Pt 11.66098645152506 14.68092887186711 9.504965973419864
Pt 9.27797315317546 13.710132470578769 8.923202332236126
Pt 16.049482437018245 13.712935030956602 9.901977666763825
Pt 9.247434701820206 14.245021660273215 12.999856914180036
Pt 13.76468145272063 13.282211262962266 8.781424653444644
Pt 12.688777579770273 13.991066056900682 15.76602943259908
Pt 11.966458447303294 13.850639373356797 12.115920030979709
Pt 7.44073403362289 13.107358640909657 11.573774041995271
Pt 13.892907325967366 12.101144999679244 14.345963059464573
Pt 10.060697703524754 12.439472932260397 11.100329477170982
Pt 14.910424355343231 12.768977494367332 12.055389460113025
Pt 11.418204776564597 12.377888833035241 8.21519940041983
Pt 7.046011168521934 12.353247762400818 9.053448454243112
Pt 10.367712540718356 13.01903142173832 15.028467425544514
Pt 12.696421254506912 11.74285507991315 10.633520626527638
Pt 8.734290715221317 11.614413638979821 13.396138990547655
Pt 12.135945970689642 11.45790871119068 16.27219905237671
Pt 11.542453344414193 11.641354172998241 13.21773543843571
Pt 15.207139101944923 11.223313712625611 9.86440057026198
Pt 9.096737616135673 11.066502386965015 8.059991522047351
Pt 10.584821287522285 10.155847077665918 9.991528070239688
Pt 7.971537398601681 10.66587098947998 10.886486425394903
Pt 14.689734947571422 10.240337971529442 12.725216659290906
Pt 13.240481687197443 9.506644387447297 9.042275865952563
Pt 10.38496507219578 9.97591821954586 14.815466154060536
Pt 13.094181929854349 9.550698337549834 14.719054519688642
Pt 9.399476197933955 9.129664190325292 12.484918747396728
Pt 11.359026757483546 9.9766859107771 7.213620124879685
Pt 12.156834936375203 9.516423192266833 11.962082717191738
Pt 8.680476114685618 8.333056567261353 9.990159912830295
Pt 15.144078021128648 8.754340441483087 10.65812631741845
Pt 14.053240779469148 7.719618624944442 12.998459333423982
Pt 11.31110894622902 7.757986951263222 13.784533528585015
Pt 12.932377053998165 7.383259043939335 10.585747715587402
Pt 10.419660193509856 6.915747673179947 11.278925705708126
Pt 11.050994164125788 7.8905298659315815 8.809061195615412
Pt 12.369568065691212 5.7228143012145 12.508293034631349
