42
Energy = -210.50220824 eV
Pt 8.384320891407938 16.054116565147243 11.055958491752477
Pt 9.090617289405252 13.41332944566911 14.74719324613489
Pt 7.494950376192436 14.12729743229407 12.673797767471092
Pt 10.21873130019662 11.049618707424555 14.933483717988597
Pt 12.092254143688267 10.386575225043964 16.597913879609116
Pt 8.318292698630927 11.490313074052917 13.163540081527177
Pt 6.635697359891584 12.083020130987444 11.203179720032884
Pt 9.36842352199938 9.060872707653083 13.368348850864999
Pt 9.663654208919807 15.580652165694378 13.339321823144221
Pt 9.731146861172409 15.493388736212788 8.842616983915482
Pt 12.292928296405103 15.504143400744857 13.340132785209642
Pt 13.480077377824438 12.355650942144244 15.518230350836825
Pt 7.469408228789723 9.587924904649991 11.599295192567338
Pt 11.572395150344336 13.09141139207979 13.904583573818963
Pt 9.849310825051996 13.365917822171498 11.842395843419766
Pt 8.078167965329442 13.720447585815583 9.826106329040929
Pt 11.579458928362893 8.663431253949192 14.698143996993918
Pt 11.086047775272148 10.830253438867594 12.249784553975582
Pt 8.912846002753284 11.195046033366069 10.103328270786488
Pt 9.861833649239378 8.77062537692361 10.764587439938758
Pt 14.21765923736331 13.691573662155438 13.341896821664522
Pt 13.824912906484585 10.895422767076322 12.099727370073358
Pt 11.059268625441335 15.699490543187459 11.04411331095644
Pt 10.544220126509 12.973809798265641 9.052893109490446
Pt 11.076655569959692 7.178126249996033 12.66183199395418
Pt 13.652607738131682 7.779233744769384 13.226525957329258
Pt 13.670462103458354 15.13577188878209 11.144482309113293
Pt 12.374145703093117 12.8755711348209 11.291245313898724
Pt 13.752063818941949 10.011793694101279 14.581931804942924
Pt 11.415950940707782 10.550570661269077 9.508709018802938
Pt 15.695709114835983 11.758997488644892 14.231719970011836
Pt 12.287031790839997 15.010661222649068 8.727554847688504
Pt 12.435941024899556 8.566187064068032 10.973362221899466
Pt 15.736907416819928 9.40946865826233 12.873714575598258
Pt 14.800755551575758 14.416254581107536 8.862911028999847
Pt 13.110756457243257 12.407317649017441 8.772232760890711
Pt 15.407897588925511 13.080620229729163 11.011587427916195
Pt 14.039069243443386 10.111477018596096 9.599338784479
Pt 17.081495229188807 11.570148737690937 12.096024576085481
Pt 14.969324504921833 7.942678515617014 10.87095952257483
Pt 15.79343020454657 11.945032993169727 8.772723037460423
Pt 16.599549474892285 9.89665373123844 10.188711467133494
