43
Energy = -215.49491727 eV
Pt 7.254925673099988 11.89746607290279 15.667399095761688
Pt 9.480225911119595 11.371047935400908 16.823114317981144
Pt 9.058171737971906 10.856717165282358 14.17305248669977
Pt 11.507880181199178 10.436319854905339 15.46072020785391
Pt 9.253354139588167 13.48523421860111 15.409041355105918
Pt 11.897462441110026 11.987617288468238 17.484722213402446
Pt 9.079544987454979 13.182044173139689 12.799033226101958
Pt 11.13658691298493 9.858475356830917 12.925461268920888
Pt 8.937781398750642 10.647676434046195 11.601163170151864
Pt 13.175326963262973 13.990696559926354 18.318220042342844
Pt 14.035831594356019 11.09811369214334 16.2357857500984
Pt 9.573325939738892 12.826406600050932 10.214955101193835
Pt 13.455793660900689 9.542718447952314 14.079761379566344
Pt 11.583928852601195 14.218184105834053 16.200884369013
Pt 10.561341213493899 15.154370078297669 13.97988685265011
Pt 13.24865883451653 9.197125404907736 11.46484120324152
Pt 15.922003860418815 9.793216059817407 14.937185532708735
Pt 11.434095251134467 12.319742987377664 12.175407201050987
Pt 11.151903846445508 10.039625885910423 10.243756314670792
Pt 14.4781503148958 13.860372789792494 16.16728784177912
Pt 8.963645336225515 10.625942805657747 8.943895504678432
Pt 12.700704778203677 12.596201787627592 14.376127855099664
Pt 10.79020979502975 14.735854550925847 11.41783985270438
Pt 13.180461140771497 15.2150000484884 14.311114086263723
Pt 12.071353547257308 16.78516460296383 12.523698624340097
Pt 15.450139685954523 8.420201514395456 12.75589718530488
Pt 9.406370944650561 12.898714434283157 7.555003461038999
Pt 13.908074289744414 11.655195743878924 12.222136369169123
Pt 15.811289541288657 12.298791583477902 14.497494520394758
Pt 11.418670377618568 11.392017020993755 8.076102630830619
Pt 11.12542353245514 14.421947305389839 8.847288073015893
Pt 12.715344202041344 16.06621254962003 10.126887485644428
Pt 13.479952490138627 10.097565887434389 8.981414519344689
Pt 16.3762920425907 10.83401055015845 12.34828887274885
Pt 15.605749221682487 9.13050264133604 10.250734843814438
Pt 14.45695194118501 15.687052865099695 12.050837328445475
Pt 15.758783031031044 14.87756685492988 14.167218077330324
Pt 13.404245438521556 15.14458572726253 7.7789551602703915
Pt 11.776151176112299 13.486237318932627 6.460504882920554
Pt 15.314147018441025 11.733876903540294 9.996368838768694
Pt 15.832365324433406 13.41355152887265 11.986516929893165
Pt 13.714824324862184 12.54443867953724 8.042774846738988
Pt 14.51279407223352 14.176432951122433 9.921458088460467
