48
Energy = -243.20811684 eV
Pt 15.345511198967795 9.571346853884897 7.897334949328829
Pt 16.775574013591495 10.74418292797239 9.792317630193
Pt 15.433967572794565 12.308672585253117 8.009424572693064
Pt 15.672330553432635 12.946303723270711 10.70007402842916
Pt 15.249454052203095 8.58924745368079 10.502006649382528
Pt 13.05007885702596 9.793827445719511 6.593735495165862
Pt 14.948256287704584 8.387027879314964 13.111143780827232
Pt 15.572245189789175 10.76646014120699 12.187996097095079
Pt 13.034783721831502 8.48205896862797 8.90860818468342
Pt 14.037165727185563 10.897346500481762 9.684202842753816
Pt 14.551338313662542 15.133047346720407 11.443422639132335
Pt 14.576005410270191 13.063099816119411 13.248092417051243
Pt 13.777533266113597 14.229088801892441 8.914574876838161
Pt 12.820898686181438 12.169459147427544 7.526691550299436
Pt 14.108557796630024 10.632247452163682 14.369601100651101
Pt 12.941640881456152 7.7368875191048065 11.445862044445182
Pt 10.641167014942361 8.195597106018583 10.16981311066895
Pt 12.480117226353444 8.493171958800588 13.998622052359874
Pt 10.768709851957883 9.148683410905678 7.739669717715569
Pt 12.820191548868042 10.334013939682198 11.979337528892257
Pt 12.928214183751095 12.85948609237865 10.949592661307607
Pt 12.71863670375071 15.086504416128335 13.338201371714842
Pt 12.072479887076211 15.412512430734132 10.70805560826419
Pt 11.428657803774424 10.861193886615325 9.725750969712202
Pt 10.552846073732491 7.325528290436352 12.564712176179885
Pt 11.142374300166479 13.85152826126225 8.637856457882364
Pt 10.137729120456017 11.69019731019669 7.514195614568454
Pt 11.761183594443208 10.476856029729662 15.589039398285097
Pt 13.092497995795627 12.778024275119163 15.495785557137145
Pt 11.761201068171323 12.633766169008918 13.282814536250175
Pt 10.121231503160788 15.35797138873935 12.507665686972992
Pt 8.88088591782507 10.25695182184004 9.361836845624701
Pt 10.736987391768945 15.094648557665877 15.016512004069638
Pt 10.311714119013686 10.591052355768356 12.505128583676926
Pt 9.527977132369436 15.41064320856877 9.948963666827948
Pt 8.545908438848883 8.91876046655793 11.686003029672069
Pt 10.286593110798353 12.873135696482455 11.112516081065314
Pt 8.527774603694311 12.948449527061271 9.236971738200667
Pt 9.143553381487521 10.494869998209873 16.327093595529806
Pt 9.915910977987476 8.922931418629759 14.460930089204508
Pt 10.43186539394307 12.71203614259255 15.82844278787664
Pt 8.11840813031967 14.94751807932852 14.264346608956789
Pt 7.770290964517299 14.232081090231363 11.47341966736886
Pt 9.148038074100493 12.766100129715912 13.457295874983265
Pt 7.657028562055335 11.43349312406 11.36701312218299
Pt 7.812876902885275 10.415355708762204 13.855093212338229
Pt 7.782913511233114 12.605105486921142 15.661596478794833
Pt 6.514257001791209 12.857090678885768 13.336198326624718
