46
Energy = -233.63195763 eV
Pt 14.865777552936027 11.453590679699534 13.003196219723323
Pt 15.334037881002299 8.956309957155334 12.57696753155146
Pt 15.329107290457307 13.24640167114158 11.165120781362102
Pt 14.166010465099257 9.706388919185816 14.835750966937374
Pt 15.296080014024772 10.35108835189514 10.308277492572689
Pt 13.98367886414524 13.95918080840171 13.352715020887574
Pt 12.844057469308206 11.990510482362497 14.817594697398578
Pt 14.133334226162283 14.004179624299525 8.88298182183798
Pt 13.730234081508458 15.401671952959177 11.094095056590776
Pt 13.633929522274148 8.23810987486194 10.722801706285358
Pt 12.998608419236218 7.887402404566592 13.287282962783017
Pt 12.429497417815695 10.39452411838079 12.377265615749236
Pt 14.138761123563278 8.904469514291925 8.244679704987062
Pt 11.232234048109943 15.377540788732995 12.121006802005716
Pt 11.537608414980324 9.658350956438607 14.772619413729588
Pt 11.924387304186503 12.945843736786216 12.277431638226162
Pt 11.525833117829734 14.263546623737785 14.553783998280933
Pt 11.722510719614084 14.970743415459653 9.51075105344671
Pt 14.294795395523582 11.500363336607835 8.023386148792914
Pt 11.836753844659732 7.5529192368105456 8.877537580781643
Pt 10.149079230198492 11.981230146161414 14.905223583527272
Pt 13.267325023480446 11.94349066983066 10.350636239469342
Pt 9.749481047296058 11.510493965454462 12.337768440751574
Pt 8.923574738682445 9.667101226115047 14.224949844917338
Pt 12.091468165761942 10.313590989669013 7.221032820437277
Pt 12.02895113278302 12.974780978872056 7.637761230006899
Pt 11.500272465865866 6.789473392848543 11.406617199092112
Pt 10.676892461188523 12.49137907144099 9.994993605023692
Pt 11.640606251836793 10.01899591283312 9.711921657021627
Pt 9.721901333788995 14.289681767888352 7.923872246505106
Pt 10.417067668178106 7.464858527618084 13.78225551813481
Pt 10.26537474643567 9.048364046524682 11.647755423146565
Pt 9.201856638030762 14.021019645686469 13.17176208182517
Pt 9.185136719254052 14.57661724260831 10.528300471773024
Pt 7.595038715042006 12.026381390227833 14.1565820987318
Pt 9.771482856362809 11.661609479317756 7.431948583234793
Pt 9.81407595232575 9.037332527522121 7.926417498868795
Pt 7.137118603617752 10.225145388994795 12.288610304299203
Pt 7.4182930721148495 12.842173452185408 11.626807792117521
Pt 8.89634441465379 10.617673352858437 10.066176022126994
Pt 9.344327446673953 7.238387325924336 9.879449271113499
Pt 7.7775506954478955 12.869789112580955 8.976182496702116
Pt 8.145640429937163 7.748576705052416 12.372877266796756
Pt 7.4778932411291645 10.32727296779346 7.8827961250058625
Pt 6.05687477137608 11.192956194945797 10.01299123257707
Pt 7.161354622872968 8.730707682041457 10.10128434963603
