45
Energy = -228.89152907 eV
Pt 10.175045563431283 11.357949534554663 7.290425407336026
Pt 9.666227717827455 10.283026157212374 10.83267025453425
Pt 11.816116308061426 11.16548693364494 15.528523088778886
Pt 8.253691640847903 10.12306436950138 8.640499691716313
Pt 15.175407961510565 12.340465664726155 8.350394944897609
Pt 15.444126378079572 13.43211157530511 10.721922255819447
Pt 8.944892898691803 15.154332939554138 9.687815018852522
Pt 10.401898597279219 11.53832558935081 12.92909557720159
Pt 11.597681092444907 7.466530699666362 10.296586283227853
Pt 14.08873300604287 9.954353053561244 8.192767220733636
Pt 10.478347214450293 12.757277666696863 10.615133095256738
Pt 8.452729404682586 12.770367718192551 8.639331565950872
Pt 7.689288011829917 13.42776739566707 11.167003908901018
Pt 11.795149539529676 10.790375994847246 9.410883576197381
Pt 12.696988529063143 12.197934583954133 7.351623887364802
Pt 13.114915103085165 7.108319166796121 12.439458831253464
Pt 15.102726030981643 11.921612036498498 12.87300937043897
Pt 11.492191214225194 15.316963100943237 10.317919196673213
Pt 10.77959372805819 13.565046014524695 14.498433468706107
Pt 12.334349973759942 8.876165669386346 14.283386704076861
Pt 12.857960491477375 7.68783587707354 8.021319864663043
Pt 14.525026261709913 9.381400529413087 12.632538722778085
Pt 10.43134955683384 8.711602781483583 8.238272603762647
Pt 8.16219721016983 8.894040498466984 12.6079099200662
Pt 7.419604705873599 10.553358451045982 14.541356427616664
Pt 6.652504242389341 9.12936400629377 10.478797156263642
Pt 14.256169339348252 10.57394240064128 14.961791800420746
Pt 6.8059041468020425 11.197092849293325 12.14208301795271
Pt 10.782651257055651 13.872293184816105 8.17282307644713
Pt 6.339436322035094 11.683448027744372 9.686543344378475
Pt 9.711494764663481 14.697564593283623 12.296764266299865
Pt 13.335836144666944 13.977522154673416 9.181188329389286
Pt 12.364896407695657 14.488197147145959 12.610572748668936
Pt 13.357441470008736 13.038232870885667 14.56928627827082
Pt 8.287879159401417 12.873625726563045 13.674357397955124
Pt 9.341246058695395 11.824110970243902 15.904223369281825
Pt 15.116026159645397 10.772874831123438 10.451198367249026
Pt 12.964823494111174 12.263305567985144 11.25322434090065
Pt 14.111663210888391 8.32634106503291 10.292853616369818
Pt 10.524344835302747 7.737840424418292 12.70903620993885
Pt 9.01681285891727 7.826781946983945 10.351970295666476
Pt 12.063772527370253 9.863483415154109 11.835163511085394
Pt 12.098027005727808 9.762099353089175 6.469114889232159
Pt 9.813068120638734 9.54536466727055 14.597823232091406
Pt 14.917622642013525 14.528659102616446 13.010762172658573
