44
Energy = -222.21322921 eV
Pt 11.570466929318071 10.033979135794402 17.509227466721402
Pt 10.779815655748132 11.919332429579699 15.853327393721615
Pt 13.33096313512467 11.64249297438843 16.415328014860382
Pt 10.310265383224044 13.815370544010987 14.10331392647035
Pt 9.898795986388183 9.45814784145387 15.614211887804101
Pt 12.218785777898992 14.058675001154423 15.904872319811952
Pt 12.6306393700794 9.184681245889509 15.273129551181254
Pt 8.986725897943748 11.4924041355386 14.027047268118503
Pt 8.422270890064775 13.42786594496199 12.317044314011598
Pt 14.55709767335673 13.368582392280226 14.962330685944389
Pt 11.675339347083714 11.157186168118798 13.36445339645536
Pt 8.226359427459448 9.000543538393845 13.68826246422337
Pt 11.002093089418961 14.122184288634696 11.524949119453755
Pt 7.337775166182643 10.879293036946642 12.099710522001978
Pt 10.832571085887997 8.575322763550622 13.297069708409147
Pt 12.623421500007474 15.182012440485842 13.645663839491615
Pt 14.292159128198985 10.835893642753579 14.06976616373859
Pt 6.992687279328877 12.714903180838824 10.24028076769192
Pt 8.809644118857305 14.570098290363239 9.975297579326961
Pt 10.17307383758278 11.683600038353413 11.247064329049916
Pt 16.610385262879586 14.656409864180842 14.134444127620945
Pt 12.78511444052097 16.112045105879442 11.113331953329228
Pt 14.895584487785158 15.804775121180501 12.596039135071491
Pt 17.022778125664896 14.3896902709497 11.543175749823682
Pt 13.192736982307496 13.006388501027672 12.351288497479748
Pt 9.251583043642132 9.146204015042592 11.277711483217058
Pt 12.643459634727176 10.894781231968302 10.98833399873956
Pt 10.679673491542195 16.257042287362207 9.556062114830452
Pt 7.670939507974008 10.222577330179814 9.520808966302521
Pt 12.35023054032037 14.254361457569921 9.216142236005675
Pt 13.4271600605718 8.6291842373568 12.854913156029127
Pt 15.904198747392684 12.443704573679577 12.858955791289162
Pt 9.14620436902566 12.19256982043845 8.811836517350013
Pt 11.574868129529415 11.9586079233057 7.930646779764098
Pt 15.141344196981631 10.263381299839262 11.65171524515697
Pt 11.695881876794509 8.43278229148099 10.799344698049243
Pt 14.603522873274663 14.301091673067114 10.494423292456649
Pt 10.302339685686821 9.800124113399388 8.946127811204715
Pt 13.929449581409786 12.222257441922254 9.018371765027505
Pt 10.225089883911568 14.27112766550152 7.721831832025722
Pt 12.890142930371347 9.74772853493484 8.609795777802395
Pt 16.284876041451124 12.277667134398872 10.210294034511033
Pt 14.254942577389663 8.1650273028775 10.29816723917755
Pt 15.527441146238615 10.08650089018108 9.03702306639994
