46
Energy = -233.28819969 eV
Pt 15.107452282746403 8.614916784955561 13.967978822061943
Pt 12.824089347307149 7.876463228069662 15.040774766638117
Pt 13.723373670415299 6.637586725491967 12.829944917328246
Pt 14.72477443481876 8.57085139405211 11.264720273134657
Pt 13.449303693225158 10.489530640875252 15.036044117185497
Pt 11.136707950794682 7.216627114863833 13.092209591318106
Pt 14.910205030098306 10.843021687347443 12.66558830904427
Pt 10.779587666663529 9.540345867522777 14.698828142009196
Pt 12.595234125006021 9.326768318468783 12.63622567994835
Pt 12.452299889887303 7.12990201694121 10.600316449169087
Pt 13.397691916374763 9.018789965677872 8.989886051321896
Pt 12.710417982336214 12.005005849295369 10.557940842406556
Pt 14.97730950724835 10.908731022529 10.000510773870204
Pt 14.226252101699504 12.918675654683424 14.143060536451985
Pt 8.900029334075478 8.512459047203789 13.074396141376182
Pt 9.882450288425433 7.635533846601124 10.782694707232352
Pt 11.344746295891431 12.110541347639407 15.536972778003616
Pt 11.117762966878086 7.74063338331403 8.424991375209668
Pt 8.904992814444167 11.428887232791963 14.63732123940514
Pt 13.724661739739368 11.275285736433295 7.659207375711735
Pt 11.337970194059956 9.882723933598077 10.45374005805468
Pt 14.976136874617492 13.17381653055315 11.581904004422924
Pt 12.290128552913483 14.564291266868238 14.932594004025491
Pt 12.08341750439312 11.920101050405169 13.079682166196882
Pt 9.88923944068707 10.816653004098955 12.300949183530902
Pt 7.101787660679687 10.380250016876639 12.946587769115473
Pt 13.909290682742622 15.27098790770519 12.97854800880437
Pt 11.215881671850994 10.406225273133156 7.856338693523199
Pt 10.008851507454269 13.814085283245271 13.939981673149228
Pt 10.178267539663622 12.716288499587082 10.602081531639971
Pt 9.065772802229446 9.403641098528201 8.907712395354105
Pt 7.415429449007679 8.610487738732932 10.879353084470084
Pt 7.923457219359927 12.885934572705542 12.601496143310243
Pt 14.84328340845828 15.537715101368125 10.484570704201241
Pt 14.343652116292704 13.493898142066952 8.953932476176787
Pt 11.937265059273017 14.1521890133589 11.731807568953274
Pt 7.656200811963789 13.655419443482064 9.977963765863276
Pt 7.737112459685603 11.110748054666582 10.465088585814133
Pt 11.123626000891388 16.142943671044556 13.071017360613522
Pt 9.1434642154793 12.070417364915695 8.32272998828505
Pt 12.961912111287965 17.126042699212146 11.334042191403654
Pt 11.795381286412102 12.995567983208987 8.098160463752945
Pt 9.042498291101722 15.051671880862946 11.766267549616563
Pt 12.389015174861122 15.279291942310248 9.392658374134754
Pt 9.882228945195827 14.663392004761718 8.900279777264506
Pt 10.511578603176758 16.736688211954466 10.49044901771392
