48
Energy = -245.20701861 eV
Pt 14.754885573818223 10.877878266673926 9.146672453250291
Pt 15.888264080467968 9.91163958667458 11.416492941348384
Pt 13.227013873759333 9.120842219010454 7.839153586262002
Pt 14.105545627622057 8.134172557605664 10.084943585089583
Pt 15.540770605018295 12.582976894660389 11.040279501712288
Pt 14.55764889418879 15.136490949385667 11.026604397409294
Pt 14.812695412792191 9.984499870142514 13.940250747680627
Pt 14.08440072240568 13.405298571833944 9.008486715982855
Pt 15.764140159879705 14.25814515059141 13.112837318174607
Pt 11.426412962819718 7.980035886891856 9.442731892727254
Pt 13.038069198355403 8.17210104619082 14.40646396837021
Pt 13.346044871148074 10.335009010178842 11.252555711066162
Pt 14.879139473224429 7.726570482332596 12.574579752491289
Pt 8.575523091449712 11.615599147110515 8.243538041134117
Pt 10.837912281148324 10.266691129648855 7.7740385935391485
Pt 14.285393407028828 12.556864814116587 14.453635534079314
Pt 11.016423663169691 10.33578857206198 10.375690520581989
Pt 11.943284521317045 15.41590743665119 11.01695487532372
Pt 11.707847295702193 12.886048695790365 9.965923448000995
Pt 12.328932911679116 7.406466970704218 11.888429960153182
Pt 12.97960810398633 11.68853004214743 7.388730289250224
Pt 16.55778290156488 11.760546186852228 13.259177079495144
Pt 13.058126810210405 12.664125074137734 12.14172990962118
Pt 13.380630531008645 15.855021264773525 8.8122077248686
Pt 13.122243145282818 14.933602522712684 13.394214341968924
Pt 10.69562802991363 6.995684012912 13.88766930533703
Pt 12.632890436532 10.707237984611462 15.20470706335376
Pt 8.874346988912157 9.184200431643605 9.311949465568206
Pt 9.74745664926411 8.013744730161376 11.559678137548177
Pt 11.461857795808674 9.86021186607715 12.931318753282714
Pt 10.924016206250135 15.310179385291226 8.525805477947513
Pt 10.915574023416674 8.782980878559371 15.877836008665238
Pt 10.710863551996493 12.931725241144465 7.5165406183745676
Pt 7.951175166493332 9.93237573390126 11.82222878609309
Pt 11.82000665982341 13.264547581416181 15.06439932941589
Pt 10.647505896996767 12.290648084678843 12.940260741691082
Pt 9.152611102234019 9.104553879918397 13.989444707561457
Pt 8.554517539095412 14.276939647724987 8.198049924035631
Pt 6.670249641014756 10.736515824592903 9.72783332436977
Pt 9.287661674904744 12.09826560422597 10.780716347316368
Pt 10.08394690565271 11.275536755743172 15.669578866853552
Pt 10.466325551398874 14.885221345180625 13.09105556931307
Pt 9.384415649900811 14.812303398901875 10.650737356090367
Pt 8.189522080055749 11.522941366060614 13.915249188937617
Pt 6.28494820681951 11.914644566474278 12.164516623363108
Pt 9.162972984008274 13.69551050362922 15.1356492079605
Pt 7.114515131174155 13.398533293868848 10.214417229420622
Pt 8.004408177024382 13.920514674269938 12.7390295501719
