49
Energy = -249.70835762 eV
Pt 12.040687624775003 9.248645017577907 5.457250777388102
Pt 7.875951652500697 11.108334497944808 6.267593771164048
Pt 9.210947278186087 13.353308222868828 6.600910529365037
Pt 13.180726337411478 11.049421185498279 7.034019675890142
Pt 11.875363433929614 13.35357791852857 7.000351561860299
Pt 10.55743545129229 7.875202988206305 7.027449198798433
Pt 7.296730810273052 12.646232921621323 8.36353931443728
Pt 13.105890476041605 8.418186556983702 7.739970261600152
Pt 6.095336205738089 10.172946751896893 8.111142857335084
Pt 10.324510951336498 12.529562684484867 8.963728276455203
Pt 9.004891235063317 14.74740755375428 8.851430703462626
Pt 10.523299051196304 11.183931260407128 6.115430892623119
Pt 13.633830825040398 12.835168601267439 8.954802002114516
Pt 14.403322986357816 10.302975615002067 9.205885998378387
Pt 8.885573078543 6.661311200875677 8.591129225865679
Pt 11.511604229013072 6.817294341589331 9.29946935893361
Pt 11.73773005558315 14.728979029859032 9.262319398273467
Pt 8.258257141142792 8.90815623956 7.486823163048668
Pt 13.866022903146673 7.808454268118351 10.13164123817428
Pt 6.3748953675846085 11.245964229183166 10.478934549769088
Pt 7.602271413351102 13.618286862167839 10.783000782007834
Pt 11.053452877495014 10.099007788315513 8.461662820386017
Pt 15.638553118409428 9.344315558069928 11.251064730533127
Pt 7.294643512356956 8.37929388161506 10.019844961381267
Pt 8.710138913314974 10.61760142562417 9.470026398267027
Pt 7.284221513124294 11.949257674606718 12.861817083245194
Pt 9.259709361664484 9.355119629257942 11.628234620476729
Pt 14.516225039551331 11.838622061864859 11.448680196349263
Pt 11.619509020777393 8.91981561535549 10.732788100081851
Pt 9.280209765198723 6.818228215904576 11.118423858514587
Pt 8.275713812764835 14.372359574652233 13.204696617340346
Pt 6.756281882338296 9.445894334921663 12.412630374131083
Pt 11.764223409789414 6.671708059127443 12.01628567186109
Pt 12.602288208219095 13.791382156937795 11.628852162807675
Pt 10.087140215954925 14.74450673082306 11.289012694187155
Pt 14.301292967921105 7.323856117057193 12.634325886701777
Pt 12.128666900605698 11.50398578490088 10.572421079836744
Pt 9.6053067167606 12.025553917206775 11.558073781739946
Pt 14.316632004943026 9.901166499988308 13.311535864114127
Pt 11.311070055161531 10.402906629012714 12.849580585560256
Pt 8.657818000603285 12.557870253657624 15.020135430676461
Pt 9.741001797707147 7.628769371045207 13.557365244643972
Pt 13.073405975432651 12.214204813343182 13.703391750775825
Pt 12.348300333738964 8.212757155616368 14.048849262249538
Pt 10.752259227414225 13.52061003931066 13.546202318995004
Pt 8.588860756450204 9.98716759077609 14.290939731262261
Pt 13.099507881578463 10.193893268554442 15.560157582248475
Pt 10.926645206950885 11.486583563168614 15.223063383893889
Pt 10.52170275519138 8.960274080815484 15.733174009719296
