47
Energy = -237.79521859 eV
Pt 15.91090374260019 11.897593622033217 12.200885697992033
Pt 11.509536638733746 10.78800228067698 17.3524971353454
Pt 15.694379343019055 9.294801675736078 12.097130825412163
Pt 14.531730803433407 10.614891347756407 14.082584406177586
Pt 12.467505531535474 9.427465902554653 15.298538485140208
Pt 13.265231933349007 8.37989012089419 13.035344929338246
Pt 16.059823387131956 14.528787486707792 12.211479279820553
Pt 14.803740045095632 13.361644206214955 14.277118877615456
Pt 13.15859982084113 12.101724536348312 15.789075603756908
Pt 9.783694586111258 9.840352162542525 15.710014308779021
Pt 15.056974681099176 10.678657157128011 9.894582868292003
Pt 11.524528291075486 7.535230111224468 11.21718145335943
Pt 13.99281453834583 8.27381012768225 10.411704579502317
Pt 13.063632422047014 10.60579912978768 11.756393377408735
Pt 11.52288463412808 11.306144429218321 13.703035646291074
Pt 10.42407154444358 12.522933659767014 15.751569025720423
Pt 9.667763499709631 7.282546879732529 9.34125772523827
Pt 13.222585827108693 13.088933791357613 12.299047465032144
Pt 14.891332743875848 13.388986844606473 10.195008726438559
Pt 10.687805785953644 8.44406336012987 13.556717931890246
Pt 12.07010410121476 14.248702526782964 14.542030828950832
Pt 13.74302019890384 15.534910788087448 12.802701818732908
Pt 13.231916934727028 9.710740160822859 8.185101672602242
Pt 8.854019572653314 8.020344298075571 11.695961372886638
Pt 12.270619531646107 7.2905701675187204 8.683031388530072
Pt 11.31681709204491 9.88448152899819 10.025547517222455
Pt 12.223651423273445 12.411658272575593 9.974651931065601
Pt 8.109366799746455 9.034431199322606 13.943553368753054
Pt 10.577145390772914 13.064606425188101 11.961276960680681
Pt 13.985433789113497 12.251829103154954 8.027572837925959
Pt 8.455676400681742 11.610613027740946 14.111704397439837
Pt 9.689061704490058 10.547338028574506 11.931018968953312
Pt 9.405126294259524 14.115742238024177 13.982312045147886
Pt 10.61151329103738 9.093619723541051 7.64119243019738
Pt 11.144691236308903 15.593725627700419 12.37986080848295
Pt 12.873431523378796 15.204735053743146 10.334518275463319
Pt 9.564919906246713 12.036109397676142 9.760762226571057
Pt 11.482175048189411 11.631760603628466 7.387822465411765
Pt 8.345815841574044 9.540229925907497 9.588025426397401
Pt 12.08612324419819 14.183543599668086 8.036367036393091
Pt 10.286035864048268 14.939436846313392 9.930062522880064
Pt 7.866946073794091 13.075693456714129 12.05507528475658
Pt 8.892077703908646 10.965554086771878 7.390855338896902
Pt 6.979775280377286 11.693171082060593 10.060454322666217
Pt 9.539740582548177 13.602061776294857 7.677997289109585
Pt 7.815569231499091 14.302197760675204 9.713629367328089
Pt 7.02176254521382 12.732010867825615 7.677820153490453
