40
Energy = -200.23478365 eV
Pt 13.408061957899411 9.515110465297964 8.779481077070594
Pt 11.334494357881118 11.10272188540557 7.965872966991506
Pt 13.396820786401857 12.10550261071975 9.200819979360437
Pt 15.446813972575827 13.085920300957271 10.640380347738683
Pt 9.245915197256311 9.919381788838137 6.921558206825566
Pt 11.138495950349165 13.465758284816559 9.130391675998123
Pt 11.42437984015785 8.545986830298482 7.362955185258184
Pt 13.37665846395634 14.683601039003717 9.692316646831987
Pt 8.901961928225553 12.146621789712206 8.45971550111794
Pt 7.343580508472752 10.067008616165165 8.668636157830154
Pt 15.502286570976803 15.735777286574027 10.73766016911894
Pt 8.490576658531149 13.78742505089646 10.551236470127632
Pt 11.900000641728196 7.572218514465139 9.754510944150544
Pt 6.629532228276671 11.9222089591173 10.295605738305667
Pt 10.646882114849303 15.160673810549248 11.143292761157529
Pt 12.528358262953866 12.998259378861793 11.588911417973797
Pt 12.987852073723188 16.39346665210166 11.559791072694994
Pt 9.573528505479786 8.693240504970678 9.23514776472952
Pt 14.625492032395394 14.518221392112368 12.849187119386231
Pt 10.031482135973693 11.69598263993194 10.758782681649423
Pt 15.081372481588945 10.516416604688963 10.58595620206374
Pt 11.986487433804236 14.833277685645193 13.402624324797827
Pt 7.63318561127927 12.000947331628579 12.63842051013714
Pt 12.113606293865427 10.213073894999201 11.01221466557811
Pt 10.308230168605508 8.407094714956688 11.742391288762347
Pt 8.255129248040536 9.869255764971024 11.183100876852507
Pt 14.622078150201817 11.849647378180675 12.847488908631432
Pt 14.512223239126207 7.8743724279636815 10.513642069508256
Pt 9.57556151163073 13.705522234261325 13.06341475723039
Pt 11.224637715397032 11.42384335897621 13.10212486912715
Pt 9.194077431917389 9.851209226029821 13.676409535902001
Pt 12.59061471154136 7.113586525799799 12.214578894686564
Pt 13.96726458750099 9.298998710868982 12.686631998205385
Pt 13.640557999229348 13.297981239763521 14.880897264504513
Pt 8.660061701548525 12.087491588024585 14.973325687233302
Pt 11.635071762408865 8.671067414825286 14.054946979239254
Pt 13.236501357650111 10.674425533400223 14.736934813523009
Pt 11.031149725050227 13.16582681350711 15.172149114328455
Pt 10.702904487219131 10.480927909400727 15.769273518424455
Pt 12.54124316949113 11.971540779345052 16.907737193923914
