44
Energy = -221.95091432 eV
Pt 15.443295822949997 13.064394322883263 15.297224581329846
Pt 13.001296692047324 13.734911842646065 16.193777625634777
Pt 15.201318767936465 11.289879133726638 13.430061486284751
Pt 13.429865095473094 11.27322552570492 15.407438091680202
Pt 16.21720375142505 13.717572312536658 12.925822296633603
Pt 10.954152341845367 12.211984611307415 15.697070263806856
Pt 13.680422281500592 14.397429058865582 13.782727393320659
Pt 13.733194895103415 9.17981903153512 13.831368850311888
Pt 11.138861364205184 14.586490427837544 14.475314072724466
Pt 15.857640864763056 11.965984344676642 10.89100006598351
Pt 11.344392865754282 9.749993934891693 14.984712459570543
Pt 8.735579602736877 13.540111882968315 14.962449640542104
Pt 13.184356963581902 12.360570482917439 11.941845070465583
Pt 16.837115361458558 14.386036908740152 10.496552090699305
Pt 10.737437801079107 12.267703895691556 12.921529034393009
Pt 14.360762684287158 14.62445816153892 11.236011567885027
Pt 13.183944466156799 7.637239148388306 11.665624395953557
Pt 11.813413110501164 7.362368967652885 13.962434281789747
Pt 9.027018283873502 10.935856076069918 14.394107877530336
Pt 14.478366723892123 9.860161021321561 11.346985883796684
Pt 11.874930330725554 14.777584324992352 11.952365083885711
Pt 11.79551523162248 10.033035546433315 12.188729039227326
Pt 14.913491887256452 13.478966049742441 8.882911690061036
Pt 9.68086311807528 8.729571664359979 13.133063073859006
Pt 10.670245023584867 6.804309415550855 11.650423263125846
Pt 14.678271363527864 10.771587023672634 8.842548601471778
Pt 12.319005564744543 11.179659526525299 9.824368300181668
Pt 12.499387310348226 14.390753753568658 9.370263166613396
Pt 11.527892635294425 8.37873099133926 9.758008873315624
Pt 10.044105030050858 14.965500301419313 10.13540307435935
Pt 9.917498248364485 11.177395128724687 10.755734580180363
Pt 9.246985597551848 14.401370187669727 12.543455305575026
Pt 7.371472323076991 12.607589576795808 12.981183012360841
Pt 7.830411235131146 10.195831817182919 12.090373102569298
Pt 8.911866494055904 8.356243169253935 10.488652379178573
Pt 12.903211630154827 12.410742382103429 7.612365688984553
Pt 12.526867366822657 9.660488278436755 7.702937151076262
Pt 10.433503217257051 13.053375046116242 8.516437975849664
Pt 9.750999221432677 9.756259345549585 8.448062399654322
Pt 8.176952093639521 13.10810025330593 10.258152926398433
Pt 6.02703400295255 11.825018304937558 10.957350567280633
Pt 7.364852343672758 10.206702195038059 9.460342001923454
Pt 10.6597233150137 11.353705048317302 6.608363754524943
Pt 8.276419291012761 11.910391619748614 7.793975967207962
