40
Energy = -199.7883853 eV
Pt 12.417494609501171 7.953770360893352 16.254912361610245
Pt 13.873279015789002 8.631936432857069 14.181755871769166
Pt 12.508234876767414 10.501244105928112 15.780460074921338
Pt 11.195422748346624 8.305406808675148 13.946278796438634
Pt 15.191322988344146 9.358152018145208 12.094994594302085
Pt 10.101642503932123 9.286147392969486 16.076640825296426
Pt 16.34194026888342 10.237555625038391 9.86161500307298
Pt 14.020256661110414 11.196519558985237 13.729870394600034
Pt 12.69840208770106 8.353087823796612 11.803653430712048
Pt 12.545001206447905 12.969102086895512 15.04203437821629
Pt 15.109049735181253 11.945042855454972 11.399887692428859
Pt 11.552875894611873 10.75377642734625 12.840457633040922
Pt 14.13227314205185 8.94420873563996 9.599028388231387
Pt 13.769836028815199 13.677095215845751 12.792751999008239
Pt 10.219189837145882 11.638433337366148 14.964368511248617
Pt 12.503941816579506 15.476037055551293 14.160670066482771
Pt 10.054550118264721 8.562597250261994 11.653355996014685
Pt 12.81032295416008 11.007853218938246 10.56730790973507
Pt 8.801837662855558 9.643301162879261 13.747644075626912
Pt 14.44555028364257 11.781912356061149 8.721159096960841
Pt 12.216931965614494 13.1478745141452 8.59885398331489
Pt 10.391514437957733 13.95474844745557 13.796563446273696
Pt 11.575667499502442 13.028720997067786 11.617157206992358
Pt 14.028875704644285 14.03996903100722 10.209905119831204
Pt 10.820029965229477 16.169165912759894 12.321944845407826
Pt 7.775932126577142 10.065869876040868 11.351802744822013
Pt 12.903915068419419 10.020133373704601 7.54059485014714
Pt 8.75814600705336 12.118561493643378 12.824867680412513
Pt 10.109452768884598 11.098775241124628 10.524398040959646
Pt 11.665389709593976 15.184840887194316 10.174588537637815
Pt 11.554532645216403 8.699990645340975 9.45518581569645
Pt 8.91004191497035 8.738624585724649 9.278574661031236
Pt 8.867790195882707 14.509579103162238 11.737156014590171
Pt 11.659808970671044 12.085694488139888 6.384540286070335
Pt 7.832447983750468 11.001408705982303 8.758180172902307
Pt 9.62548759586638 13.678919676417303 9.394024231750937
Pt 10.343607031557799 10.450750271479254 7.877316084534772
Pt 7.362270151126136 12.691219632598171 10.71753543434063
Pt 9.254324827751375 12.69041463900042 7.071974552176138
Pt 7.126956816676165 13.467923112295658 8.249497916149224
