40
Energy = -200.6220222 eV
Pt 14.970132864365665 10.566415688426787 8.383504069441747
Pt 13.851693378971556 8.322922107579107 9.102587932923441
Pt 15.31781042703298 12.521352946181787 10.187827733452625
Pt 15.058344155067068 10.072759718708628 10.989712015497004
Pt 14.672826696588004 7.576802745482436 11.645719207265484
Pt 12.563330253013122 6.4922702896603 10.409709813104277
Pt 13.519132346627103 12.743818195478212 8.269683394620074
Pt 13.932779336397639 9.587338624699681 13.310334841951828
Pt 12.330078929756496 10.325247897957325 8.080735089277695
Pt 14.178128503089743 12.142405777705402 12.628100803080388
Pt 11.257231757985457 7.990958831165147 8.617024833364821
Pt 12.427005371197602 9.439222047503772 10.978196902915577
Pt 12.52825752299601 11.997953810265097 10.559564277963561
Pt 13.598743489136519 14.30903652653289 11.09539318671992
Pt 12.568268142726138 11.4559741755881 14.662355619651674
Pt 12.2960724587517 7.416434193896632 12.866370969336094
Pt 10.299970205807563 7.602226599118789 11.183567830529988
Pt 12.028036127702473 14.765103492144963 8.972130033874732
Pt 10.223739197463201 10.47676083480111 15.606735599245807
Pt 11.060631568592042 10.949181218502307 12.614589503218568
Pt 12.169190791491829 8.818326064033355 15.083168809623835
Pt 12.255668123520856 13.767596330379048 13.350295632062517
Pt 10.843073558034162 12.50538520611758 8.22507373417477
Pt 10.131806605475637 12.872029048637378 14.670161493375183
Pt 10.03963522168913 10.48956210009713 10.329090336975232
Pt 9.662485088368836 10.097099910965788 7.841343297283288
Pt 10.03816496276484 8.69373564590917 13.567251011646556
Pt 8.726208131477902 7.844559881934519 9.131160384997045
Pt 9.441265894770744 14.585991921033498 9.337459464458345
Pt 10.230508465649951 12.974128935346984 11.20718299576024
Pt 11.23203421993488 15.377500437440649 11.40252684470842
Pt 8.545364920125069 10.967065611433137 13.564022307719835
Pt 8.261963186173164 12.261803684182903 8.737235776568896
Pt 8.207170651979991 9.115415015098726 11.654235264867918
Pt 10.100986412248893 15.27904878951164 13.757855813853833
Pt 7.47995954388972 11.601092566596693 11.257784375855257
Pt 7.2255836273774765 9.924339594189627 9.238898724827623
Pt 8.635669126982412 15.859739045234766 11.593833011757138
Pt 8.285406141279559 13.52820543418092 12.83336455662206
Pt 7.15410252990687 14.031648992688675 10.402672441837007
