48
Energy = -242.5578655 eV
Pt 15.363443003775012 14.801871832681174 14.292744552501842
Pt 15.72513684080218 13.090432751791507 12.335493666386636
Pt 13.881136625855873 14.986727071141841 12.119288520941407
Pt 14.627480626913364 12.290684958508725 14.595768818160003
Pt 12.836367335003418 14.382589641511306 14.63446955566643
Pt 14.816579620974702 13.903508219488774 9.936896149078594
Pt 15.720095078276296 10.483339359122136 13.025458753347333
Pt 16.06508972686271 11.384784140871536 10.455072371965802
Pt 12.277764338868083 14.959197401921863 10.048022555917228
Pt 11.286310979530779 14.876013688639002 12.526911739312457
Pt 15.979556324825632 8.728022093051413 10.989040539987245
Pt 12.781801751877987 12.490019142813878 12.566946113157238
Pt 11.999932965303858 11.935387988776167 15.283889685190674
Pt 13.790839077409398 9.900699688405291 14.906949542950827
Pt 15.298737083811224 12.142515072834074 8.056512226336572
Pt 10.294287488783917 13.928315348956762 14.78209565857909
Pt 13.003527288803513 13.796770088624475 7.7050865304154526
Pt 9.659231766064748 15.458397830112366 10.598667184876494
Pt 14.507163147678105 8.034206890725697 13.049809790754828
Pt 8.991255796287664 15.756423010296269 13.24473213439843
Pt 14.868885624751112 9.563443231676482 8.743237934669015
Pt 13.095636650450082 12.042842888725557 9.542849799575485
Pt 11.080204733381054 9.413102197626976 15.390256697328615
Pt 13.727525188831834 10.400108450200905 11.340004191764706
Pt 12.875004265477116 7.453170025333387 15.064717406854628
Pt 10.868749480298074 12.714658972070128 10.697681137477149
Pt 9.42589553974934 11.416531390515399 14.682813375985178
Pt 8.267540887238669 13.286602824854475 13.22645163027283
Pt 13.472266707998159 10.83120294584936 6.829541612994478
Pt 7.16741333417203 15.015582119364653 11.527447874944507
Pt 11.977740294746987 10.032568908741634 13.067394465042803
Pt 10.3891919086791 14.097792616677644 8.413397617222712
Pt 9.807681752232185 10.863294176142851 12.085563164203725
Pt 8.231163969689188 13.414043160122235 9.816838198554656
Pt 13.464769553329404 7.94688624915985 10.444858964605311
Pt 11.158642456816915 11.747110471845414 7.416974864395366
Pt 12.181491430516303 9.688245629879745 8.851255881284814
Pt 8.983075209548245 8.986192067922353 13.830099340629427
Pt 7.316203637814678 10.87021958917836 13.208276549744609
Pt 11.981661161922665 7.431643259554456 12.661104112718654
Pt 6.288797070246391 12.585044239650918 11.488158304185445
Pt 9.741944672482179 10.526003231528543 9.369366407768199
Pt 8.63493371247049 12.12633096181156 7.614487908278948
Pt 10.792894573718685 8.452937630294493 10.603583319633923
Pt 7.183537129767207 11.001033350959192 9.480697479947544
Pt 8.1705559158513 8.949488344425 11.01600128307012
Pt 9.437763565445847 7.024397295201893 12.292899592930198
Pt 5.760831293001632 9.995470635349973 11.35900647191734
