40
Energy = -199.84237941 eV
Pt 11.144381294394195 16.917222945734704 10.494867259358761
Pt 8.7548975333952 15.752054761413266 10.647310690464142
Pt 10.19226971034123 16.462147407694555 12.908698912468427
Pt 10.485705705382035 15.502166931319326 8.376085736733424
Pt 7.24159454369068 13.595783074797032 10.971790117245352
Pt 9.237328346133776 13.366898373685375 9.375263163930112
Pt 12.788403205562977 14.955335343335708 9.641693758767179
Pt 8.944057123991383 14.110892904950331 12.915700057708083
Pt 12.722031805671104 15.704808259141403 12.318694591977858
Pt 10.906996576268414 14.220814298647108 11.206514672735276
Pt 11.20838108318858 14.435044246897672 14.26848631527256
Pt 7.9232504568899715 11.613650951329376 12.535485218467576
Pt 11.546846873578106 13.106388979355518 8.07263785145612
Pt 10.28445892418993 11.736964487356614 11.428111396055039
Pt 12.662016959093464 12.41435950265194 12.930608326198577
Pt 14.189940373189025 12.975949706772953 8.819394840741872
Pt 13.981848042206845 14.342722791663292 14.100222283646461
Pt 10.21599138440554 10.989541203037179 8.904989786485492
Pt 10.03523752846296 12.02946696532341 14.193217886292842
Pt 14.436811153970059 13.850499148970673 11.395253791817872
Pt 12.750261296303703 11.560466012825815 10.518204002464822
Pt 12.665601306156434 10.654417679489674 8.094265793282046
Pt 15.196399952132015 11.935914108636043 13.220594758043156
Pt 12.301647864654885 12.331868087721153 15.478074896360619
Pt 9.061756323985037 9.576701530452956 10.93960968867281
Pt 15.266700002330246 10.686788105688123 8.129052752457369
Pt 15.348796759223625 11.328588681827085 10.71840338206674
Pt 14.906201840539723 12.572608448448012 15.771964227819181
Pt 11.944226417478891 9.98837974297787 12.498620532172717
Pt 9.089406868289371 9.558144360867823 13.639210893625476
Pt 11.516132732996697 8.94025625219261 9.941205909583525
Pt 14.591621593544149 9.440562108405587 12.476937293111144
Pt 14.237473827766548 9.016544987016072 9.833910505160492
Pt 14.029448903186097 10.234576704203986 14.98548723442491
Pt 11.383261477283247 9.904768915113 15.084541062781193
Pt 10.50306601821427 7.769358911053555 12.074914976751216
Pt 13.162533794003355 7.426124398896618 11.48656916005827
Pt 13.118571649556742 7.983799859092378 14.130787150111868
Pt 10.482878323206092 7.529190325601803 14.677795519078373
Pt 11.905867204632745 5.865829552592123 13.174012303244945
