45
Energy = -226.18775332 eV
Pt 12.824220866002 12.268569033459816 6.050871356668985
Pt 14.073114752637775 13.34530745227606 8.001111968286839
Pt 11.022676749462649 12.371925663743449 7.920357750710869
Pt 11.624505473449634 10.055508524676478 6.777441713670185
Pt 13.734641971933767 10.814164023687242 8.151418671184594
Pt 12.020558711242037 14.32903451447969 9.268916210587232
Pt 16.417277020698045 13.424786519196852 11.877889066486716
Pt 14.422896276293747 14.340821315773157 10.359771686766816
Pt 11.00561640386441 10.117886878236666 9.356520244857247
Pt 9.474940906241399 14.322772801002083 8.743046520342766
Pt 12.66339254999382 16.302409617724074 10.835030025661991
Pt 16.373664901885366 14.709485813310353 14.219982366922851
Pt 15.335251260864734 11.963433418208876 9.90374728081562
Pt 13.915529058513322 9.908210891502259 10.555479683394857
Pt 15.583226929035687 10.818339292643472 12.318890395217984
Pt 9.716737424855879 12.198388260668949 10.176808373557575
Pt 10.12221619620901 15.001238568674315 11.190645578064936
Pt 12.762164159810832 8.40147173196799 8.593876894400047
Pt 11.866507253032847 15.996748313245854 13.303931109868511
Pt 14.337163538448605 12.94049520656274 13.371979165384094
Pt 14.51810031059948 15.685222200262274 12.597525859013096
Pt 10.210080467420585 10.29336299036711 11.824573159625656
Pt 11.948787360582385 8.291653526849316 11.06074492913666
Pt 15.671382715260762 15.738642153989439 16.514235453058504
Pt 12.273452022298914 13.693037016712744 11.930918451002315
Pt 13.652281652986755 15.0071031849381 14.97392218246945
Pt 9.709987068514847 12.747354684790821 12.727703651595785
Pt 15.400717670996382 13.029025020204111 16.123281921967518
Pt 12.582133140087178 11.225377506364891 12.419602475522499
Pt 16.99155091860558 12.118050858725065 14.165260253374127
Pt 13.262580435614803 16.861867012035226 16.77947395031635
Pt 9.463727943716215 15.122718627603321 13.754464657431992
Pt 14.851960900245986 10.736110507704272 14.948121241294464
Pt 13.726687358101254 9.011503204203944 13.140259907596878
Pt 11.048329536694341 15.501638084666064 15.780773470066281
Pt 10.088588088066107 10.70141508817556 14.387168021623111
Pt 11.11435505773987 8.41328433755112 13.499716207559775
Pt 13.134325051939202 11.835062849227343 16.681067049122372
Pt 12.031600391162277 12.887135161618872 14.475446168164405
Pt 13.638195984750405 14.317022208932084 17.551286141320062
Pt 9.63405020272652 13.097479710197788 15.455209300378721
Pt 12.419259023784859 9.775186702170718 15.296584158516364
Pt 11.507643976412858 15.79439728694708 18.37283438193837
Pt 11.174602619897977 13.413823432854173 17.654552371307087
Pt 10.635344612214846 11.057555716763469 16.89358548864338
