44
Energy = -220.7420618 eV
Pt 6.944882900354004 10.602228987963699 10.541409863127274
Pt 6.806296028244651 12.971064980827665 11.6081628444248
Pt 7.630874517677088 8.558263819042025 12.226949326347357
Pt 7.372885106644738 8.135615480689939 9.611987866453804
Pt 8.3907881828945 12.70506962458626 9.4486900754645
Pt 6.580285161230664 10.830283625781535 13.258603180518891
Pt 8.327166243999647 10.287695675494966 8.334812519783563
Pt 10.24717038878694 12.029592631852571 7.671461170537996
Pt 10.034835871952808 9.63341878808557 6.405794158278429
Pt 9.503588798745353 6.998969670016341 10.899606730476142
Pt 9.465063676660504 7.237832357026819 13.6061777889438
Pt 8.119130292225046 13.22548012205013 13.935423817970575
Pt 9.608152173526484 9.558936372862606 10.772244257451982
Pt 9.134359480969223 14.242027759823394 11.60350730271988
Pt 11.984825589664592 7.951711000418166 7.078016402096303
Pt 8.973585552428949 11.363706409178407 12.461602651261247
Pt 10.712968248985959 14.258639772723269 9.264840264935167
Pt 8.686700390550081 9.626909797103625 14.447827690452696
Pt 9.636418876465624 7.793178347791547 8.3314615125926
Pt 11.245291886065171 9.965397469199537 8.917405526826608
Pt 10.624654452539545 12.141411128378875 10.693944823455986
Pt 12.485676338855974 10.645220526710188 6.7282911667532455
Pt 10.380130485865363 11.592926842871265 14.757704751683432
Pt 11.706637106288913 7.586487514261648 12.354353535217589
Pt 11.977555786242787 7.593358612653093 9.756671456819431
Pt 12.755198498682047 12.922714970417337 8.085178713160081
Pt 11.61162723209065 10.191249801736893 12.3234950868137
Pt 13.028759205270987 11.321682201869635 10.145170711013954
Pt 10.482636641838548 14.290013741144552 13.955783446822661
Pt 11.233375278798894 8.953869835581292 14.618806130867226
Pt 13.305094788976183 14.904883323706681 9.639487448279775
Pt 12.304325188479574 12.689722773591798 12.698618772163725
Pt 14.818779679120297 11.341368851476354 7.749072023995212
Pt 13.912585088791662 8.985910199215398 8.570344314477543
Pt 12.25406873950086 13.170040925133728 15.590490807429687
Pt 11.648912445624168 15.042872337851817 11.65654696552809
Pt 13.085485478680612 10.821138520444213 14.487225244090448
Pt 13.738854784969057 8.903621799944172 11.302048712935921
Pt 14.75714293151529 11.308901925626335 12.315464083041716
Pt 15.07675209886279 12.903441146007815 9.965539796273674
Pt 12.957031702320386 15.195603253376774 14.029581700122113
Pt 15.634398117187782 10.304664204857863 10.046450347068076
Pt 14.31552481392358 14.31360906656048 11.95933766512458
Pt 14.564435407099449 13.03820343053574 14.266707256889255
