49
Energy = -247.93747921 eV
Pt 11.934906897890098 14.490621090700138 16.07410486414803
Pt 12.10136046043272 15.378783274963332 13.51965401337347
Pt 10.075842779271591 14.909862757611563 11.865937603414478
Pt 12.317997253295594 15.97422588490907 10.980198445684438
Pt 14.021025496961459 13.420609649270254 17.272719322600995
Pt 9.867299370197584 12.95654563116886 16.747663541492894
Pt 12.495844416703555 16.30367940848928 8.389957577755094
Pt 9.91970522542132 14.096222629313404 14.402484643365245
Pt 12.135844587322657 12.431033933505457 14.412688450035493
Pt 14.296932976341788 14.766679587736162 9.562040674629987
Pt 12.142924995430493 11.634588352739367 16.893998100801124
Pt 14.209499908483638 14.042460591827762 14.69699223397343
Pt 8.011141499673402 12.233892462454207 14.963853934747755
Pt 14.204342032568958 14.314901831903438 12.113718301673897
Pt 8.11120812300562 14.28533852582482 10.189132690666177
Pt 11.959349159539276 12.943590626557754 11.874067520011286
Pt 11.886992046769585 13.816048567712894 9.405770308674054
Pt 8.054502222448482 13.309406340548081 12.609002141283229
Pt 14.543084013023872 11.420740537596695 15.64646099581142
Pt 14.305147485113928 15.104848728079432 6.900519873543415
Pt 9.7579430900053 13.034950322227363 7.825070884738823
Pt 10.13425777837046 10.626080649324138 15.502270013348841
Pt 11.875541543222948 14.166745159766101 6.8503400089832125
Pt 10.052751897460755 11.442413147816382 12.897261865600923
Pt 7.633615061702507 11.982065777985548 9.06156793940778
Pt 8.167387200692632 9.863992589443642 13.805661808308955
Pt 14.8877021626849 12.000529329005705 13.070830686353847
Pt 9.878397515526546 12.32048341797271 10.41236351251398
Pt 14.434749642317621 12.711839047068153 7.893383960970849
Pt 9.716193436467092 10.418285971212908 8.225826976623424
Pt 7.707304177485726 10.971279124743312 11.453883122778953
Pt 12.579864435153628 9.59822955558073 15.207425773240034
Pt 12.00372703541978 11.614179319794133 7.541541189805918
Pt 15.032195360609727 12.401865044164218 10.48103785185193
Pt 15.091659013259637 9.474603424495449 14.020183469114198
Pt 12.553293250532711 10.453099515077088 12.581486047940876
Pt 12.116756754702465 11.009699370250448 10.105832655080395
Pt 10.577471692551114 8.711949413865986 13.612776489453843
Pt 7.580444066921645 9.352186437628427 9.38682439251932
Pt 8.85405055536567 8.588250076842217 11.60441998596125
Pt 15.126143681096874 9.956761485918511 11.39053846965797
Pt 13.025894833581786 7.954571295861888 13.225680232552316
Pt 14.353652561333726 10.352819743326368 8.911410855770468
Pt 12.0736559504184 9.098506045468179 8.335103534149692
Pt 13.72501735403722 8.069532875985933 10.209751123942464
Pt 9.751406038389636 7.99404994625282 9.178557865914405
Pt 11.31640384406564 7.756432943679031 11.297282623959243
Pt 15.320095734249517 7.4837194326975265 12.222913578908177
Pt 11.923495159410972 6.602820900565355 9.013829619794079
