44
Energy = -222.84575103 eV
Pt 9.483878186196796 14.170443808674701 11.614402235166299
Pt 11.30817964466275 15.156477839486309 13.324659016658439
Pt 12.571749564759134 14.422653777613451 8.67484138190179
Pt 9.776445207571419 14.33982630214072 8.937231387394755
Pt 12.897522208952722 16.94569549828792 12.391499651813193
Pt 13.95246382740162 15.261898798917453 10.769872515123117
Pt 11.14919931467829 13.133538405404552 6.879970470352025
Pt 11.295473778914385 15.778890714787186 10.566779971860571
Pt 7.769667904116452 12.450046723899215 12.706073445181138
Pt 7.786668434585737 12.934629038626051 9.920992130021032
Pt 13.695623428366304 12.48620869751913 7.328456642087359
Pt 9.779413684260366 13.254273458133474 14.130775193525395
Pt 12.362439158295956 13.163659236029556 14.941365144108287
Pt 14.64958976794543 12.997559886426407 9.687306282299414
Pt 11.163624443573887 11.430307686673833 12.928303155457764
Pt 5.930246071392115 11.50055883849602 11.046888019318143
Pt 11.22007704333136 12.424219720063265 9.8266834865578
Pt 13.967908582244204 14.739150570974825 13.569998986668208
Pt 9.312555809503435 11.67457371467765 8.022542464226598
Pt 11.839424281092567 10.705544786017606 7.846547457283058
Pt 15.771873212144195 13.660100572838374 11.90307919880786
Pt 7.4123347513822235 9.769245427802408 12.313449884094357
Pt 14.436852374382651 12.104463560621523 13.536378010796524
Pt 7.569576420507135 10.222100825422249 9.421718769982427
Pt 8.95116991851967 10.604044105819689 14.251982722451352
Pt 9.409167447803739 11.05945543140693 11.04533547823428
Pt 10.640062071750005 11.55555670318581 16.037571210201957
Pt 12.526549887941394 13.344448579000405 11.82528604134533
Pt 12.908742498677368 10.861926375827117 11.01847223733589
Pt 14.434915007916654 10.47726427900287 8.811254259378657
Pt 12.613981790458874 8.682597391740396 9.390705278001853
Pt 11.035619891687439 9.177385382709272 11.77795017441137
Pt 12.805310018936614 10.494609719870702 14.834303321795526
Pt 10.018548253004584 9.238067133110919 9.013082820420992
Pt 15.674534619994843 11.114717740989388 11.283618973793411
Pt 8.362275678972551 7.973754356007351 10.664303275344993
Pt 9.249992586456374 8.067380778211032 13.226580151986957
Pt 10.528331059102275 8.974909830065856 15.485603126754071
Pt 14.300501941706408 9.517756077930828 12.899036914834792
Pt 10.76664816481071 7.0350338253791564 10.355449803711196
Pt 15.097688811221223 8.638214338769343 10.535988981998651
Pt 11.059777915021236 6.12032817990823 12.765723895790776
Pt 12.299863549376791 8.12015929519502 13.877579355364531
Pt 13.194031512309346 7.204775767027509 11.605457571982194
