45
Energy = -226.85574221 eV
Pt 8.388993183823114 11.460171990708062 14.117745015382843
Pt 10.593312322505117 10.369758293451971 15.255008893211697
Pt 8.53496136971846 8.861519278169801 14.747284075775903
Pt 7.408583639501032 9.493352751420035 12.476688653539831
Pt 10.32718400866675 13.211482308812656 14.957085141781388
Pt 8.584290487135933 7.13647131883129 12.726546542721945
Pt 10.840105759466827 8.224994934998302 13.592065751255285
Pt 6.776371869332226 11.986650867354538 12.028636929439608
Pt 8.416280291833232 13.926359428629764 13.227988834339541
Pt 12.640282509319189 11.891776927654973 15.583414212840736
Pt 8.40717892588723 7.983411500925832 10.263974568565676
Pt 9.199943745624156 12.402513835231979 11.194598762253817
Pt 7.23419780382287 10.36032776328911 9.97934889641906
Pt 10.056084929938212 10.854674205793094 9.286829551126608
Pt 9.85935104331516 9.75546630203609 11.657083157052108
Pt 13.018120653298793 7.927336836715881 12.122569372556852
Pt 7.284156983219805 12.9246223393099 9.490828498174244
Pt 12.932698823132 9.744122127957048 14.060226683166528
Pt 10.73799697928468 6.9312243357190635 11.201811071128501
Pt 12.90916691432437 13.750523268597636 13.828525853528214
Pt 10.748963341944382 15.081170349465669 13.126498641311645
Pt 8.224270302983843 14.892657050214378 10.835615944633629
Pt 10.995570511287056 11.640065928702633 12.99419392190391
Pt 8.332961503984626 9.133172163560758 7.927442024818686
Pt 8.560559685922751 11.870692004127783 7.509511547662965
Pt 10.559524560961295 7.895325246233735 8.690082619080245
Pt 14.739884060463707 11.796328426079244 13.967425788066443
Pt 15.056679541965519 9.566762007187812 12.50806233428834
Pt 12.809805829526638 6.90857938353694 9.577294305532304
Pt 11.551825165759537 13.43452197596583 11.170386550731276
Pt 12.03716052889086 9.560678876213492 10.34856499778806
Pt 13.037153421580042 15.505312220117425 11.82898084066352
Pt 12.414577874029897 11.93823936809742 9.298039673277994
Pt 14.566058524669348 8.876961643454926 9.974741936910972
Pt 10.60460316129724 15.723531998099023 10.555966817216062
Pt 14.754337233045199 13.529234517754688 11.883701385301485
Pt 13.229308377327412 11.402052868770454 11.710383900082086
Pt 10.609489676436768 9.999632117661294 6.907937967970272
Pt 12.93150977577893 8.858363087551705 7.744608530199337
Pt 15.599764811499796 11.322542133784829 10.60557998012182
Pt 14.572603327692233 13.411813900286434 9.264903405824148
Pt 12.190165368395098 14.546727571888182 8.779979518705163
Pt 14.569247537325241 10.90451970181248 8.245224136061607
Pt 12.89703763930172 11.079874496940931 6.323236105529112
Pt 11.055218087646642 12.722022439750152 7.220918754923441
