42
Energy = -209.88527391 eV
Pt 16.132373553477024 13.981318297268944 13.805815405621042
Pt 13.722462379176232 15.155071820982913 13.087404975184956
Pt 9.173996296339432 14.014767952789123 13.328192007825445
Pt 13.897145581834238 12.97499744975255 14.540688157627415
Pt 15.174868216855081 13.54339790427076 11.421897071738636
Pt 11.31994667676209 14.833694064728684 12.05608010205673
Pt 9.691639642346313 12.013884492907343 15.055647390485962
Pt 13.519806359553497 15.401912185536583 10.522096716676002
Pt 12.083276672106432 11.75978301891992 15.693348948029884
Pt 9.29339808308518 13.724765001799284 10.68675982425217
Pt 15.729939547520928 11.510063844524714 13.024717261692688
Pt 7.600231268028689 12.13466673018112 11.958746043304908
Pt 11.275826271816397 14.741278785391243 9.340028722280998
Pt 12.682905593349847 12.61483837053796 12.186643575507048
Pt 13.459182781512187 10.409068944507375 13.841102236197079
Pt 7.284543332550441 12.40809411469989 14.474479803431041
Pt 10.264986173067706 11.776875964338856 12.467341848093914
Pt 10.984765150833573 9.787981086311348 14.441951159110197
Pt 13.400097325916718 15.388827413023984 7.907165174319108
Pt 14.13894235345161 13.181486628724493 9.110603801969118
Pt 14.973681226532651 9.08771970467602 12.24738247050226
Pt 12.12162512195391 13.158933033949976 7.364490057148276
Pt 8.381661238867434 9.987181740634538 13.588349609946277
Pt 11.313572578402729 12.085413555975016 9.990034812236518
Pt 14.550284340349535 11.110558294692055 10.613711809236413
Pt 9.463848733871137 13.377860879140595 8.045146041096945
Pt 12.544962557193967 8.077126541530616 13.06690121913656
Pt 7.739351934171818 11.90471944250613 9.4071750394657
Pt 13.03771275960575 10.866128839078547 8.43305806365587
Pt 9.873045751925437 7.822831289530873 13.223313227859268
Pt 11.808450018393982 9.993873321475679 11.446118830347338
Pt 13.626283549314763 8.785947790238978 9.966909529600121
Pt 7.540097900859422 9.81567220458701 10.920652713227627
Pt 10.612837511568678 11.031946062889014 7.421238633707325
Pt 11.347448547903761 5.791176025517274 12.670152804573732
Pt 7.480142987015821 7.694692045665211 12.375039535318166
Pt 8.102457219168404 11.425262079991436 6.86476294691563
Pt 11.356637573585537 8.799100318884387 8.618433929838679
Pt 11.873771362097164 6.990712437210785 10.512483479803
Pt 8.75734904880642 9.52246062995942 8.504179790346909
Pt 9.804626369782968 8.484990437635247 10.709995956292328
Pt 7.553984468147095 7.523085312136769 9.75392533344419
