49
Energy = -248.78058303 eV
Pt 15.473149541082517 14.695724957658822 9.685777546733679
Pt 16.229190133802227 12.39969350197127 10.90846869227409
Pt 15.034470828169713 14.323323889661236 12.187162819259594
Pt 15.512503928368094 12.210543624378628 13.734785320776215
Pt 14.045832116960277 14.303658571268592 14.498147516577122
Pt 13.792029655330497 12.028142426003988 15.711309604608214
Pt 11.75703966255636 14.043427192140355 15.691973994472928
Pt 11.725506589612424 13.255212812556788 10.968632733024215
Pt 11.95136386007017 12.16948117060238 17.53306609308774
Pt 15.68262795129368 10.07139878822436 12.052966349730518
Pt 16.020527432742007 10.327736700626623 9.32672849043595
Pt 14.528804788050902 12.427048960423551 8.808761701618915
Pt 11.910178594559396 14.98465814064549 13.137730800918408
Pt 13.742533208178532 11.867582543648618 11.868109055991999
Pt 14.454554012405277 9.83045618404944 14.403999924714688
Pt 11.030726411795778 15.799585992072302 10.623049440271936
Pt 9.679343886408365 13.681343714302168 14.15854037142943
Pt 11.9887884793014 11.98952599607926 13.778907935884487
Pt 12.251401571149481 9.940492674019296 16.158985573987934
Pt 9.375330715914407 15.716831255204559 12.648222458235404
Pt 13.667738335449672 10.081211611233915 7.9905997958774
Pt 12.945313214217045 14.530733845746463 9.02079507649122
Pt 13.532141724976274 16.043229074260108 11.153919424208741
Pt 10.198656244850236 11.61546435783623 15.685584525546263
Pt 12.043022691923133 12.312510643110345 7.87652116921345
Pt 14.36000051549676 7.852494172297191 12.635245486947943
Pt 12.553886395854544 7.918191201106488 14.686335888886694
Pt 10.402749032345618 14.279223308976324 8.519285223338258
Pt 10.238816675913938 9.337600154031035 14.367419439336631
Pt 14.218240251087677 8.738642561684793 10.16596893387353
Pt 12.40935960705821 9.644220552053435 12.426209273887507
Pt 8.517519538901457 11.278397305108335 13.694947564242385
Pt 10.38624459968491 11.213306911197884 11.882996498416894
Pt 12.197800988535395 10.810627695717763 10.06159795336558
Pt 7.861762078705258 13.541446378262844 12.366075742971107
Pt 9.034676741525887 12.64598164381903 10.179629943439641
Pt 11.005534897115373 9.79272086919428 7.942215252665969
Pt 8.491828663958723 15.251596696114941 10.243034017512132
Pt 9.425621773953353 11.901778149024382 7.651720639624683
Pt 12.792125079533399 5.8040190760838835 13.147145962562812
Pt 7.800241781494397 13.989526651815924 8.014402572498483
Pt 12.65766386358838 6.834175632206727 10.683619346128996
Pt 10.853089077123302 7.487988155017169 12.606302447922632
Pt 8.871297023903486 9.116080508595303 12.038642376982578
Pt 10.638728700232937 8.308955516309274 10.117834903316322
Pt 7.175539145363897 11.149833894019892 11.343776925733472
Pt 6.324375424957472 13.547941576457305 10.228507453422782
Pt 8.823802716548371 10.011484965181054 9.515351209298892
Pt 6.8874196401381305 11.544662593585816 8.620465604079305
