46
Energy = -231.85056923 eV
Pt 8.568414240637063 9.517231421137444 5.366874981498495
Pt 10.717720552486616 10.676999178017 6.297126332646518
Pt 10.527055098872987 7.920602443706189 6.247091782561554
Pt 8.390048948286022 11.929291615256368 6.746750620442047
Pt 12.915716124825503 9.179040447097433 6.643668447957522
Pt 6.330577828440657 7.835271333080287 7.015041274616001
Pt 6.18780314086656 10.38072281197996 6.343325286999387
Pt 8.546719037300061 6.701798729399653 7.81165994277916
Pt 10.913603159290606 9.04302117092751 8.695883115207682
Pt 9.647667092857278 11.295700998109341 9.11331323301607
Pt 12.917437616101873 11.727968237352437 7.212288979894419
Pt 12.225926159490397 11.104079304268408 9.619010811679406
Pt 8.383381986111006 9.254576228181156 7.887921869318615
Pt 13.162258616310002 7.764059460852345 8.833572270027632
Pt 8.240264333380999 13.436671710015473 9.09550991375318
Pt 11.005888774148566 6.380498441723514 8.428633362050222
Pt 6.627741524827372 11.386113054547806 8.722919530074243
Pt 6.73822234938593 7.4698070871523345 9.691163821629756
Pt 13.309622964798734 13.112808475107462 10.873034730561567
Pt 12.951829323452904 13.951833106715982 8.47210491529323
Pt 10.601516791074863 13.160204475734135 7.505489599601813
Pt 5.093022315689166 9.372957400548373 8.784561480784001
Pt 14.415762492582019 10.07406669508114 8.824105807357949
Pt 10.84290078608697 13.819299993169063 10.09760300192921
Pt 9.156660665469618 6.485698028200549 10.37283575101066
Pt 12.068482806980967 10.551799741296566 12.110265513049248
Pt 5.699754639932795 9.4627058945684 11.321009508782264
Pt 11.941508768257144 6.6607759918824625 10.928825345610282
Pt 13.755494670713528 8.6714274021781 11.153964695857916
Pt 14.911172484359748 11.049099039652072 11.243340292770997
Pt 6.906833276593229 12.0462818590103 11.17915444914977
Pt 10.44691489548761 8.769593457340536 11.215499119795615
Pt 7.601433273634761 7.772160533652486 12.294248997612062
Pt 13.62634564728639 12.190810506093143 13.32679306539993
Pt 9.631561661419266 11.290989880992502 11.686433335114955
Pt 8.160551596144561 9.554707038293582 10.454330719249523
Pt 8.832094021212168 13.767776703225127 11.716945930903236
Pt 7.457552699724803 12.806405725001197 13.71285310886898
Pt 14.216812157801863 9.58227378373305 13.547219856324299
Pt 12.137045722638709 7.88675503642504 13.286088173338578
Pt 9.932570338750075 6.451165631083324 12.853572192079413
Pt 7.3882485061886705 10.241521856380627 13.209281138267098
Pt 9.609939435194248 11.489713803205905 14.282371234947542
Pt 11.819206306899915 10.192552248207303 14.668129155681179
Pt 11.231912304707107 13.149315533029757 12.701230100011792
Pt 9.638131813351041 8.863175437438706 13.838282154546564
