43
Energy = -216.50017904 eV
Pt 12.195522761451455 14.917806388822953 11.50921464221395
Pt 10.400597696861842 14.699690556233696 9.602145433445584
Pt 13.658439183961452 14.794261835662223 13.640537938500465
Pt 11.024477388324307 15.142809984660294 14.066019222567947
Pt 12.955598554627555 13.908838549581793 9.239621420227738
Pt 9.848267420709416 16.043866307764798 11.834172009192375
Pt 14.362364368029706 13.37627413353493 11.500502185041723
Pt 7.931861392798913 14.726247142986404 10.627836728899211
Pt 10.932061972795767 12.928967501707177 7.6810874695397215
Pt 9.876575447997693 12.324292546501677 10.589445325387343
Pt 14.830318842684242 12.479173688062284 13.961932258327202
Pt 12.345818953343727 12.882439300264418 15.022765386564487
Pt 12.845186614053278 11.287545972331223 12.115664763225487
Pt 8.382802605102428 13.023163941995003 8.609770059634906
Pt 13.602601045598734 12.327285902935046 7.202782826495888
Pt 9.676306749539906 13.209715600273242 15.378453299312737
Pt 12.144617307516196 11.467744139015284 9.62137504478185
Pt 8.622984550228898 14.012157181448666 13.090901893514303
Pt 10.99146360596715 12.856030630152143 12.784256107409183
Pt 14.72112958202161 11.656669664674888 9.443121872785577
Pt 15.385176441230627 10.841952463382917 11.88444970008343
Pt 7.434073109785899 12.271935865887512 11.422853653726822
Pt 11.821051986132314 10.445679273696568 7.012886172078405
Pt 10.3816032676915 10.332181181468862 12.271074491923068
Pt 13.300867079394704 10.448678569430292 14.530409513327283
Pt 14.752151462781946 9.034671194199234 10.074841281539904
Pt 10.047531954304008 9.9287733297636 9.591813330195224
Pt 7.494685711647301 10.52853607118602 9.401137598851399
Pt 8.376895988784609 11.462845223485989 13.801902841685909
Pt 12.224048385149539 9.156258083311863 10.774309587539006
Pt 12.845612539222653 8.461322266823794 8.274500401282074
Pt 9.194948675885012 10.9147828442169 7.307260823069625
Pt 10.70671723237975 10.79245885690745 15.025817363361584
Pt 11.605379524857556 8.534190656610145 13.932507338880136
Pt 13.702206536130864 6.626800908481598 9.909136101851018
Pt 7.803653997218833 9.65973880775739 11.933063807044075
Pt 9.742645568316279 7.693927397034802 12.062850849564246
Pt 10.250476260200369 8.381562916957696 7.552091987316556
Pt 14.032924219114987 8.641765382564808 12.720725913486236
Pt 8.92884127476658 8.882201580898348 14.301346743832307
Pt 8.369536820482429 8.017255118760742 9.79664225467212
Pt 10.93260696828993 7.008629181789013 9.762081860728188
Pt 12.244970078876191 6.796472983034114 12.062291623151513
