49
Energy = -248.66278363 eV
Pt 16.617338892022772 8.928708912297694 13.561068597804944
Pt 14.045211319660682 8.391777287889738 13.166908038414192
Pt 14.835080241773404 9.288904812162414 15.52748087668847
Pt 15.958437404728691 8.89037865115902 10.910402493018129
Pt 12.242578002910708 9.27838246065571 14.926517857571014
Pt 11.476570177097113 8.582898406504322 12.44139538293172
Pt 17.645301753299325 10.842624741771376 12.100939122158467
Pt 13.385520283146512 8.131095207347858 10.676181111573717
Pt 16.041846217885553 11.503055278150383 14.59333945773636
Pt 9.77188019173133 9.59581189200198 14.160322238285794
Pt 14.943114912732472 10.764564307911934 12.446500281242255
Pt 13.616099858524018 11.677118322547047 15.704898245706493
Pt 15.61795768915542 9.722546465598752 8.455549068145766
Pt 10.952863638011115 11.403336373453229 15.950330511299896
Pt 12.632630426012486 11.313479298999832 13.344330522393005
Pt 16.291049514046634 11.724500646206579 10.052961860181783
Pt 9.093655860143166 9.513189928673732 11.558323379543262
Pt 8.269870437530042 11.190414984031026 15.668271500330333
Pt 13.080825490303146 9.120274658569166 8.17618950242902
Pt 10.98877048187427 8.905327096344449 9.838926530528315
Pt 16.421553081484863 13.123642210768885 12.352767834806707
Pt 7.324215470389212 10.196656244119374 13.333405356616968
Pt 13.613208620294552 10.665621146646338 10.226238195172803
Pt 14.53757392945441 13.688138973417194 14.240162754908756
Pt 7.428812862126956 12.722334936107199 13.737270803801664
Pt 11.732225975179917 11.391361868880578 8.385390658443233
Pt 10.206339607233476 12.143466684144817 13.450673883436648
Pt 15.163013136305779 15.405748296647396 12.32017307513417
Pt 9.371111230245258 13.603880391425166 15.400640723519947
Pt 12.77359425972865 15.426065446825795 13.335284755219737
Pt 13.629347145509147 12.981073178371984 11.661886211678851
Pt 12.057479962080142 13.755697309029914 15.275478865901022
Pt 14.427447191482583 12.22546371953831 8.315621849524234
Pt 11.21718501238881 11.28265876438133 11.158739433431952
Pt 10.535948702964491 15.783092275385169 14.51899335965125
Pt 11.127035570235236 13.8807038025408 11.674012708479877
Pt 6.980321095062396 10.911003059242871 10.790921950227599
Pt 9.210552807885842 10.808089785671632 9.1207601691469
Pt 8.847791701709719 12.541737974226045 11.323541128308648
Pt 15.173344390618745 14.20216655380556 9.9562248793883
Pt 8.592387690137398 15.00031141367961 13.073404749058648
Pt 13.141022316343628 15.864881705054177 10.723834563852927
Pt 12.612962837894072 13.867765174018311 9.040631416918472
Pt 10.638736568937764 16.397284546980192 11.906365962915855
Pt 10.068484303656511 13.346821587148295 8.945263416725071
Pt 6.64505927562695 13.978549455316852 11.605874599869843
Pt 7.463213275452869 13.029595292018573 9.14358393870649
Pt 10.925666740557473 15.815170629316945 9.339077776998666
Pt 8.644247142542229 15.209112539132402 10.399423096289766
