47
Energy = -238.94620649 eV
Pt 10.679196222014228 15.15845933507086 12.768802855823946
Pt 12.328460013713403 9.942813269465145 12.178402545379678
Pt 11.012441202055586 11.046192785791177 15.50642225658084
Pt 10.298097118458184 13.988076268579704 8.381228072778638
Pt 10.01257743245351 9.201176462847387 8.109755653383367
Pt 12.259255606978247 15.392060450534483 14.865282904049765
Pt 14.343238820187208 9.567788714444385 8.567270746896044
Pt 15.386424295504323 11.81211118395652 13.013277419390691
Pt 11.68156098727038 15.101516629811448 10.347561624138116
Pt 13.271310419288897 7.914610237373883 10.59386241801745
Pt 13.029892593153747 12.480892814351533 11.935583325895939
Pt 10.775674723164581 12.57993076031383 10.58236854794641
Pt 7.367950737197299 9.921377922318188 12.957519231989416
Pt 9.759476961792524 11.671364582448087 7.1300952259551105
Pt 6.267830603411933 8.114232748597775 11.357189984773923
Pt 12.184074645342434 10.647527057144197 9.668395743174115
Pt 8.574978646794563 11.703644946843372 14.396780437645559
Pt 10.607079734855605 7.542050838787511 10.101297167442114
Pt 9.668008090958741 9.261218830105477 14.09663478349065
Pt 13.607583543307832 11.181963423119612 14.964217210683428
Pt 12.991842240456656 14.541425885938052 8.181712755303318
Pt 11.905797134654742 12.927594047234825 6.503754058810369
Pt 8.783680183737092 7.830624141014805 11.97220467449812
Pt 8.065234773755957 8.012639740675116 9.402101176778814
Pt 9.0605094148932 14.495533170970829 10.810873014565747
Pt 9.974658249339432 10.117079830273436 11.038677367045382
Pt 13.811664273957643 12.129708791657261 8.282556549565802
Pt 10.300152369822262 13.640764183496028 14.987765436808985
Pt 7.3316909186255925 10.331239364787155 10.408360566825332
Pt 11.211106312703679 7.548846036121812 12.689162514993612
Pt 15.771321962081577 14.356684530091213 12.392798943418985
Pt 15.133866926931155 12.65021732894557 10.39688201392013
Pt 8.358395103962359 12.428052398340133 9.287654740676237
Pt 14.655895900077251 9.389700449169826 13.462127535475297
Pt 12.506152046595341 13.140280851821439 16.245177075979772
Pt 13.726746468504828 7.0668549183778016 12.991001770374147
Pt 7.7259950535462725 12.381406804282246 11.89237204255242
Pt 12.290283047716992 7.962042516452933 8.162057429641237
Pt 14.28634298904708 13.726028123352844 14.481953628499182
Pt 10.815036510759906 11.86183610737116 13.058466286355326
Pt 13.23734379698247 15.132107578304254 12.479760701188722
Pt 12.260932878735288 8.885657336505817 14.680519580848493
Pt 12.15280499797417 10.356367293834595 7.043644985906463
Pt 8.319418090788298 14.293937795911798 13.475775511649879
Pt 14.966630349408112 10.093318203060853 10.99888477351059
Pt 14.413575236499145 15.119588373332014 10.198009157191576
Pt 7.7259968548943725 10.249641421124602 7.851984036534321
