42
Energy = -210.75344643 eV
Pt 13.697091299327392 7.763643322449101 11.158462492333017
Pt 14.9228503773743 8.52606223206306 8.8730283367439
Pt 11.83686557259375 8.09091221771642 12.923435538107311
Pt 14.214030864950173 9.081754558395316 13.349196167057798
Pt 15.068853066479466 10.08934810350712 11.037855521383353
Pt 12.308398034553251 7.79105125915475 9.009384560113823
Pt 13.237071869475082 10.555677237894892 15.251440527871713
Pt 10.32578313720041 7.3327170134681285 10.86669359491807
Pt 14.260384134562296 11.665117816079821 13.013692953891963
Pt 10.92170275554821 9.331724895223845 14.963233900058881
Pt 14.98947520772047 11.257798488261992 8.535530264262
Pt 11.485960464454275 8.293955176743305 6.434202872877439
Pt 11.795376953731763 10.699283425352384 12.463494264371413
Pt 12.576900185011127 10.16413143991387 10.071161380900012
Pt 13.765680482458048 12.429057441856504 10.527250493513018
Pt 9.23099260005434 8.049134462041271 13.297551699675395
Pt 12.40351782201467 13.491238789158412 12.433932090640868
Pt 13.138297357942594 9.919326358562879 7.454884562253063
Pt 9.84166165360221 8.144239739251434 8.35566454288236
Pt 13.308316481188877 13.21499327550838 14.955434303729625
Pt 10.980393790781699 11.942881784212808 14.819127125071759
Pt 8.855474685671462 10.66813302382743 14.081491872182118
Pt 9.621531546283707 10.093324283729006 6.4957385349336665
Pt 8.914017333444335 13.267249085364691 13.795972807712925
Pt 9.847415485183157 12.302935714487566 11.48670672773264
Pt 13.288641196952135 13.216398206740035 8.037170619271457
Pt 9.622352185769019 9.764950453874619 11.395783563445521
Pt 11.454726143710472 11.794760496528221 7.03646251461152
Pt 11.121575007694819 14.552787531180783 14.409150977716559
Pt 7.8871151212690265 7.709899959505409 9.866048509236345
Pt 7.854811929584212 10.09243990476074 8.498716160315828
Pt 6.8257049512775465 9.230014822154935 13.408473143195055
Pt 10.320084543113104 10.972318777117332 9.261076248177773
Pt 11.624917384078696 13.892060689440296 9.985724789205308
Pt 7.003858840601587 11.830536852732074 12.624986800286463
Pt 10.790325825280183 14.256604468762562 7.560551352315433
Pt 10.147683841251283 14.935171052959504 11.960737438913235
Pt 7.575171445799625 14.245240176604153 11.707133061550696
Pt 7.024759625152363 9.840092334450087 10.935382513066369
Pt 8.823867184293032 12.417375153951983 7.660629285925311
Pt 7.5282263052037885 12.249373073965165 10.00835756377953
Pt 9.044142580474244 14.40976065638313 9.53605407034213
