41
Energy = -205.40726175 eV
Pt 12.32108948975678 6.819061009845737 13.333659381193584
Pt 12.50244770656133 8.222536206431277 11.1778410031631
Pt 9.327970988687534 8.679882538154235 11.697947612176268
Pt 9.819743665462662 7.2412587792212175 13.74809764922585
Pt 12.740873515870836 9.561523430791762 8.979304710074624
Pt 11.594562355036716 9.069833360649227 14.465179566652987
Pt 14.031762071569828 8.81997848158862 13.249763192907619
Pt 14.537660028879413 9.969565955041551 10.918097368670425
Pt 13.06219176474723 10.630551464650356 6.569652151249703
Pt 10.623665772795583 10.408742659379948 7.5883895000858095
Pt 11.27035181711589 10.285622369616455 12.149438754526269
Pt 7.8858793815383486 10.889973101764772 11.952164100877646
Pt 9.00604173189674 10.22607626471651 9.64414225491464
Pt 14.626386360808636 11.28457472729006 8.558043803965454
Pt 8.971102830452084 9.743980877835927 14.112680758079092
Pt 10.575901997311005 8.233793320629214 9.369526078521291
Pt 8.14363329730671 11.322380541246003 7.373173818520455
Pt 10.80923627742789 11.45727367066322 15.128207207991553
Pt 13.352164456901065 11.018418525104812 14.6074901987089
Pt 15.636635734905594 10.826889705877006 13.222868260184583
Pt 11.456092551215734 11.671903587234539 10.021650067068315
Pt 13.174640373362921 11.980959572326496 12.123195592402867
Pt 9.93196398667016 13.968533185726288 15.591069259088354
Pt 9.739310091531655 13.085169629277159 8.304792236407323
Pt 10.747804815471653 12.74391699628451 12.802080332079704
Pt 8.495173950305364 12.319496676855957 14.07437308863057
Pt 12.29423635013606 12.78522170584087 7.732805436579297
Pt 15.921747543785926 12.158700875379001 10.609503237610161
Pt 7.511228855661162 12.328094184399928 9.67433835135086
Pt 12.495201733270283 13.484669618956291 15.024667026015598
Pt 15.002360001025608 13.125603070132428 14.427994264626635
Pt 11.499529132661706 14.670251780281353 9.391085898295405
Pt 17.13954983590002 12.90558236475609 12.842615816736584
Pt 13.723371260108154 13.464213521148638 9.853344696548872
Pt 9.496412082272974 13.921560339752798 10.807149588289356
Pt 12.384527365687124 14.811981816319422 11.855188820348657
Pt 11.294223700592271 15.689615764388954 14.096124012263104
Pt 14.973352676710807 14.138410962175588 12.031002813822125
Pt 7.197004490939561 13.410611768015833 11.988816599839215
Pt 9.04961117883837 14.810377162678428 13.208730213084122
Pt 13.869392566649047 15.486710282653377 13.957680361042447
