47
Energy = -236.96352837 eV
Pt 10.43663528391109 13.164071776048047 14.851557498038328
Pt 9.606092428968003 10.406385379868416 9.398530055796707
Pt 8.560539023455737 8.420839930923405 10.901502976310198
Pt 12.064359147638632 9.291366300687331 14.082116100648618
Pt 11.638273833092574 12.352960932798737 12.745501006306476
Pt 11.969495318882325 11.298044634786871 16.085441170629732
Pt 14.461145381044727 15.522992706344624 14.332728544591161
Pt 11.63151773650526 14.981775020292345 10.84747461992542
Pt 10.265048056241588 10.216497713833322 12.07979008238303
Pt 7.419955697742923 13.48834398730486 11.238125711586996
Pt 13.447363725025085 9.440212083959691 9.036347562619378
Pt 7.198761758371475 9.68137443013544 8.940573886595642
Pt 9.525495215094711 14.493716802810544 12.650419607502128
Pt 6.163796758660465 12.060431205652362 9.342663286835563
Pt 13.919834422161024 12.371914960899199 11.562768872626707
Pt 7.4339847153824214 11.390269041220396 7.011892795208853
Pt 13.908013326579178 9.421661748343846 16.000574331114
Pt 13.739466987012008 11.495954815706789 14.031682359681744
Pt 14.036174491121935 14.943318404394558 11.797320755651986
Pt 8.452181845842537 12.098521762072233 13.311945044052626
Pt 9.073087105415444 8.017262308486895 8.259067271404655
Pt 14.495767076373038 11.878808959821031 16.84854326126369
Pt 15.061313297805093 10.108758663717076 11.04220582618206
Pt 11.962543516229372 14.981892193468274 13.496388004952077
Pt 16.33610945079429 11.8458453393207 12.645948289593104
Pt 12.568867157280927 11.76455360984008 7.834838260799
Pt 9.143292353376852 15.199009303719048 10.06519556438037
Pt 14.688587087272541 9.133949815671356 13.454395392266782
Pt 16.108700828869082 10.689863600988385 15.047111063348757
Pt 8.31745225168286 13.276015537871688 8.522122648373523
Pt 10.66832921670392 7.687828713386586 12.439465555722315
Pt 9.871093578938781 10.486534768846441 14.85238940000512
Pt 11.172064130020239 8.06811428236844 9.83010844424508
Pt 7.111485352806839 10.828040787471462 11.38083650586126
Pt 15.656852300949387 13.279939854243882 14.917953004761129
Pt 13.029726137297196 13.616649949815107 15.446512494526976
Pt 8.064031851122778 9.379482660201376 13.323779112923859
Pt 9.781695408763811 12.53505155913566 10.810168846924906
Pt 10.031495891126081 11.659905657444359 7.244421484124024
Pt 13.531478244551314 13.786551724458965 9.40166041940334
Pt 12.95254437329366 8.708296808867095 11.582395018162586
Pt 16.45068158339256 14.548009359384425 12.81533265527285
Pt 11.310093795501691 9.326390732997536 7.463616349158905
Pt 15.050036456738 11.60174938795953 8.83302763775821
Pt 10.954856018841495 13.730967922455948 8.65009801107045
Pt 11.936103616867186 11.164266312298146 10.293299656635423
Pt 16.03185596802297 13.393885750445952 10.488442755544378
