44
Energy = -220.14346189 eV
Pt 6.522512761422362 11.741641058250766 12.827036697911934
Pt 6.416503236958806 11.661547082564834 10.215711933669207
Pt 8.513839891320712 10.544139389232406 14.092639764021195
Pt 8.332444643679475 13.268240536966799 14.036322451136554
Pt 8.180968077135246 10.094043781315017 11.505194392769727
Pt 9.14961278297276 12.02062108860746 16.193485716095317
Pt 7.999148711629323 13.37835275692333 11.390974741816146
Pt 8.094626111207164 10.29301971755763 8.79870383589628
Pt 8.034087945734452 13.102667347831124 8.642266412952754
Pt 10.369930650262758 9.203466649082737 12.765928701878497
Pt 10.214634421735012 11.913351223896376 12.534830661791116
Pt 9.99811855730259 14.67083247381005 12.57736716206044
Pt 10.081422476185594 8.91476241680293 10.145663154854592
Pt 10.942505693525423 10.435393599362776 15.091422592257334
Pt 10.818291875330706 13.666642733979367 14.870337394184316
Pt 9.813192528837552 14.57657530187304 9.865501026639219
Pt 9.997592528806589 11.742074251442345 9.859434511457172
Pt 12.376041852111934 8.105996897727403 11.353207186134702
Pt 9.995345626647044 9.160887792958304 7.466273653764496
Pt 11.614533958260232 12.246802365283942 17.006292813153273
Pt 9.780278169215523 11.837210206597081 7.157289539253822
Pt 12.259744363989972 10.66658875326467 11.008852332113088
Pt 13.285702795393583 13.852595534724328 15.804834268579091
Pt 11.730780969252573 15.920019907501981 11.055119100401011
Pt 11.994640526589798 7.961516407038561 8.634347232244746
Pt 11.701709804859654 13.274718746087656 8.240318436141937
Pt 14.960744823494549 10.983188193689472 11.260719002760878
Pt 12.905298171916503 9.36886043484214 13.67495001720064
Pt 13.50818722506186 11.15252467920121 15.568060686881656
Pt 12.702194504063833 14.822141427555323 13.36299971703707
Pt 14.855239589286187 8.484156530707454 12.11805811903319
Pt 13.467927575021362 14.750820424767904 9.475069701228286
Pt 12.739775312985849 12.126121642599522 13.279499645961334
Pt 11.952043999051352 13.226828399209584 11.021504177357746
Pt 12.04424500260521 10.627126302279173 8.112873376645082
Pt 14.279335426631382 16.1016199321524 11.626640712505251
Pt 15.01364116083349 13.180339427281236 14.035589572274029
Pt 17.288472558257688 9.646794028754972 12.33327733690834
Pt 14.034979409804773 9.357413542892854 9.340921423880927
Pt 15.349668101018962 10.464225773557397 13.920319246481165
Pt 16.425767583028456 8.93925820571711 10.027727531607699
Pt 14.859700496581926 13.572217085340816 11.394184085185094
Pt 13.92564396131616 12.123318922960943 9.155984335877589
Pt 16.889072128943624 12.229464226109883 12.560600619916398
