45
Energy = -225.93497579 eV
Pt 8.718372733128177 16.661472525047913 12.968286435201094
Pt 13.809901125811512 12.473802441105631 14.142543340335491
Pt 10.712934765589315 16.73940328495466 14.720800916681636
Pt 14.926333420240184 9.568290166065982 8.06226398441406
Pt 9.644137166775554 14.459560781796485 14.032246706726067
Pt 11.507181711085105 14.034350199491179 11.762868315436396
Pt 13.63396059496171 16.676579691745268 11.06297771948315
Pt 8.565362222139498 12.102809857256407 13.483330367800873
Pt 13.998176443620174 8.077125366497219 14.345606458249932
Pt 10.178024968837995 10.857976252923264 11.818664032714203
Pt 14.068869184264097 14.339126702403444 9.92501030290456
Pt 12.516665437079311 10.309210961865254 12.730179332910902
Pt 14.01773899794066 7.928671425764376 9.931622980624516
Pt 9.747920882911233 13.788052272888573 9.657156367628396
Pt 10.070344805890691 11.310398663897825 8.950731455089787
Pt 11.741470303615596 9.23611364191697 10.545623767204543
Pt 15.447790200145546 10.073758054675238 10.610298736553816
Pt 12.319625778323589 14.606797671653807 14.733851194599026
Pt 12.036985174250711 13.142116808382006 8.385603000311026
Pt 11.738540977151596 15.522692831193119 9.593717353702544
Pt 12.341453306316552 11.860357556276295 10.636511988717984
Pt 11.376036274186056 8.364686436526222 14.120396725092446
Pt 15.037887610069989 10.257759916024504 13.240661532678255
Pt 14.772022813091212 12.376846903191543 11.674059730604291
Pt 8.959463835608396 9.140524660280676 13.515570096776594
Pt 11.63413932868292 6.655537019052384 9.76383570610982
Pt 8.303289297744257 14.278734713830744 11.82844666948128
Pt 14.50978658681084 11.977128420181344 9.012223696983002
Pt 10.384188606314803 8.693705872371057 8.389362131988232
Pt 11.172995489697323 16.716896718010535 12.031655403096327
Pt 10.25927865602535 7.4086932057157755 11.890328430172742
Pt 9.283216508239683 16.256196368258774 10.355468436577109
Pt 12.832737218934371 7.170852687731377 12.161348492706205
Pt 13.913368212957439 14.616256311845644 12.645773559834044
Pt 7.668203605958175 7.685858998965604 11.806704834928713
Pt 8.589288632072723 9.429152708127623 10.112062487277933
Pt 12.419204680712115 10.50792693754339 8.100290710810391
Pt 12.884354988053852 10.296843092994932 15.344151082527096
Pt 10.182200820426232 10.502066056161983 15.26554684096309
Pt 8.071326696091017 12.021274833375818 10.630402247866257
Pt 11.182506838576453 12.419404405910774 13.855673241711369
Pt 15.397456293764234 7.908535835804013 12.102986238919947
Pt 7.028443937303446 10.237587559984817 12.192716793473279
Pt 13.13176089764019 16.924334072054776 13.707589634211796
Pt 12.799705225411195 7.919182362705194 7.687503772370193
