43
Energy = -215.1751078 eV
Pt 15.611114561021788 10.46799831697763 7.571073149487468
Pt 12.034621253734256 14.009514934180288 7.594726350660893
Pt 13.085515202138774 9.652495332000834 7.083023632769662
Pt 7.894639525502228 8.622469063875357 6.941403519281786
Pt 13.726766744634606 12.138791786435668 7.758686216308448
Pt 10.576183196121857 9.049546844162315 6.8326479044449
Pt 11.276212755503655 11.620342004660834 6.928993761494748
Pt 10.886456592334623 14.755328243890675 9.798347579914415
Pt 9.559851638299923 13.327605167923451 7.951233951902854
Pt 14.059698641936784 9.841094451973449 9.557301379837684
Pt 8.827019222327944 10.921097007006903 7.47581369302506
Pt 13.257555146205943 13.63194755984084 9.878427569615454
Pt 9.28892836146873 7.846432157601156 8.94879499649621
Pt 11.754741392853054 8.732696597916828 9.205675193151688
Pt 15.460386587622258 12.089669744704599 9.786359178137594
Pt 8.235178035520716 14.846938594599765 9.61393964970876
Pt 7.860802407308909 12.176874598091576 9.54151038897347
Pt 14.404971348564885 10.889003862029043 11.893073835207952
Pt 12.773145204661022 8.925993400688803 11.594246313728664
Pt 9.550496513415132 15.415388012581289 11.834661330292962
Pt 9.961864739762886 10.538621634520418 9.877862456920523
Pt 14.8180165714227 13.457761076560054 11.906974614980783
Pt 12.266553147664187 14.655530038567191 12.257272596421991
Pt 7.3545472205554345 9.539162228571877 9.474429405967596
Pt 6.6347762712824165 10.981295613999206 11.53648920711035
Pt 10.479102873144663 7.564129972750021 11.182616174615704
Pt 11.134112169819039 12.51962542318691 11.102156875859116
Pt 7.836189810324774 13.352725166899523 11.827932033065814
Pt 14.345476716429038 14.807355103299162 14.005638357417352
Pt 13.210013816552761 9.895401042760177 13.967799352157575
Pt 10.790320623517552 10.350013540066078 12.377449949915198
Pt 14.632739201396303 12.125073578902928 14.213160093881209
Pt 8.266953537648744 8.931824453663696 11.868447226189094
Pt 11.594824278955954 7.785223070207284 13.627052728221635
Pt 8.520753392256564 11.292782819518338 13.313895343827193
Pt 9.156493345130913 6.761624541682133 13.254612817366867
Pt 10.018268062667726 13.416380034963698 13.371237154519651
Pt 12.339376416671321 13.250856126937759 14.456427655236158
Pt 12.918496962011423 11.345074960918366 16.16782204438467
Pt 9.24240291322351 9.081031463618778 14.417635812923415
Pt 10.550845362410675 11.406820856855223 14.929057153454341
Pt 11.578003164917192 9.199410649104458 15.976725339605052
Pt 10.223593669498417 7.028914422947436 15.732817994439348
