48
Energy = -242.51923641 eV
Pt 12.812020493508896 10.54179127971073 6.6643591158585
Pt 11.216886053709048 12.680805834378438 7.058906588806405
Pt 10.621040487284048 9.817907137581406 7.9445209796827845
Pt 13.920016503508469 12.93030284746927 6.99583726919621
Pt 13.056157323243761 9.058979048482264 8.852004694497618
Pt 10.953253355477626 7.794215232034119 9.973853680330526
Pt 8.783159911992458 11.66377412500705 7.587247954482987
Pt 14.953548334062704 10.904514562962357 8.360455557660412
Pt 12.597886442297314 11.721333686021401 9.209799554963254
Pt 12.701786444748999 14.501424702158644 8.676671153903976
Pt 10.169782062174747 14.880622426874083 8.214993033839852
Pt 8.856463296398289 8.523213043385201 11.779106697618342
Pt 13.330334005693151 7.93269369432259 11.145003083650366
Pt 15.28063888442771 9.184990465388593 12.520900283374763
Pt 8.43393440978774 9.745432298578324 9.46635494129612
Pt 9.172819524021874 7.731719568732635 14.292034416503425
Pt 15.06745477841129 13.467308671124387 9.359159010973078
Pt 13.03383419634112 10.39880057159348 11.786169976430944
Pt 10.706018981311209 10.272342186121442 10.53087967209476
Pt 10.174365560070676 12.634342229934978 9.587062561555896
Pt 9.535797557612298 11.915550766167684 12.243654639422562
Pt 15.526216310542518 11.189001289155039 10.8613934507752
Pt 7.6196944525105135 12.567739860158273 9.798213954029372
Pt 11.195545083007524 7.3075570954792255 12.603855969625792
Pt 8.371528485888925 10.299359795954139 14.070615124569537
Pt 11.811032656529932 8.24373627239413 15.003294879201054
Pt 13.293108057331745 12.917529455005381 11.37680662044796
Pt 10.883324317328448 9.871154385950726 13.142809946092715
Pt 15.880403064057457 13.702606635545068 11.847088894479823
Pt 13.790224064468044 7.3062098970692535 13.658725752326355
Pt 8.78759447390276 14.969016811701753 10.500668980192687
Pt 15.149314531489418 11.772032395585535 13.465490323241157
Pt 7.428786269314497 13.527437024673302 12.259164820780477
Pt 7.295394634717838 10.741681926171701 11.68731570868919
Pt 10.994354046647155 13.990858705777766 11.580028469992586
Pt 9.915075722171636 9.614108212184169 16.032380240151053
Pt 13.92804184280722 15.370349982592222 11.030201654909286
Pt 11.423256290245778 16.118436285754605 10.250259901844199
Pt 11.89080137220117 12.208411150412429 13.504160450466339
Pt 14.027740604538158 9.737811255404779 14.729473696383462
Pt 13.882690398981545 14.197840275583944 13.671081063405234
Pt 12.455880443058325 10.109451139280752 16.7731328821725
Pt 8.855467733099614 12.9281833949791 14.498115996731025
Pt 12.025333945309988 16.004221063968114 12.858201573831643
Pt 9.366866256161575 15.209443284362024 13.165028605459323
Pt 13.487871477839434 12.230206116318747 15.513854183944424
Pt 10.834049531902526 12.010175572518529 15.925950237319284
Pt 11.290352774110831 14.366667427570844 14.821083416962159
