41
Energy = -204.1888328 eV
Pt 9.290398608987655 11.355330897427063 7.286372779969362
Pt 7.5994542121112705 12.144335219112119 9.20597053813395
Pt 11.399584205409264 13.362730731772519 7.051555061192819
Pt 10.171467130625627 8.929932755857246 7.220480477900109
Pt 12.154496970960096 10.579310539427063 6.795479929117262
Pt 8.910437629651913 13.92018497478089 7.653599808176417
Pt 8.124181407122425 9.486869631938973 8.864190844270718
Pt 7.69571619333883 14.763166117967511 9.844371163461295
Pt 10.382801287320685 15.028984586250436 9.542418797718577
Pt 7.166471753089561 10.413330721818967 11.299532776158436
Pt 11.236134717887456 11.637851554346545 8.92389926504451
Pt 6.657293672565244 13.012717746452134 11.550116376772031
Pt 13.887178021819096 12.47971033529176 7.327641088635191
Pt 10.222629321609572 7.703289764150082 9.43489653483691
Pt 8.180222024943404 7.944258736527192 11.209995318148271
Pt 12.518914620603367 8.471968394841964 8.446777427157004
Pt 9.696102746848197 10.25837855958174 10.717630728984586
Pt 12.721513909876226 13.829338442979607 9.344015405489335
Pt 8.868286880322174 14.527877439742525 12.251118098116525
Pt 14.599147035301462 9.960576964022966 7.929729089971249
Pt 9.7491627494858 12.805018664376028 10.592139477533275
Pt 14.332582345348008 11.651136114366592 9.792084368306814
Pt 10.859174747560003 8.610816985608066 12.319286053662056
Pt 8.377056745935278 12.028504399686101 13.221385165670913
Pt 10.122700497378633 6.02372118074984 11.35744434034583
Pt 12.276121369823677 10.020504289092688 10.58534087858904
Pt 11.573760229909983 14.330793898377095 11.844487395741584
Pt 9.007700288178135 6.818435007675281 13.561539422540898
Pt 14.08548136527535 13.519450751586566 11.530103117033653
Pt 11.189251987864065 11.561550512738844 12.401543028422418
Pt 12.535761953569498 7.0534546777738365 10.739443786748408
Pt 8.516324841288462 9.440817215659514 13.430957710638088
Pt 14.571982491438737 8.906064278592618 10.402494931518651
Pt 9.982513200969153 10.99977400286263 15.029314571536233
Pt 11.812999533552656 6.488317227841658 13.434349177949231
Pt 10.627537534377819 8.473624630021623 14.916028874799807
Pt 14.252091371151813 10.987083218035789 12.394374681213483
Pt 10.36485456415317 13.494450549847862 14.18624570934289
Pt 13.5104669686413 8.46831404888199 12.800980756056926
Pt 12.911596847051594 12.901581490641897 13.774555500463569
Pt 12.430288258598205 10.322530069461145 14.311611838994047
