40
Energy = -198.55001031 eV
Pt 10.149291907345072 15.662887033738064 13.800334314313876
Pt 9.112425451103649 15.054302847072968 11.40136697166047
Pt 11.582378879057913 16.043228028152818 11.57166945048095
Pt 8.629180896009546 13.461254483478564 13.728311649823096
Pt 12.675261784220982 14.756401400526732 13.705850047123452
Pt 10.831478319185537 13.698007865702332 15.401021833313726
Pt 10.84295514774449 13.296978683936233 12.40210563459016
Pt 10.913264099401726 14.381054086206284 9.64068443583789
Pt 8.593203506097526 12.760998432735455 8.752049112756726
Pt 7.682527137462524 12.976590519357341 11.286736754261819
Pt 13.190469251446954 13.911281077160757 11.248946259062853
Pt 10.769213347196498 13.522078313532912 7.250785847356057
Pt 10.04746916426947 11.331609823787876 14.575839178517576
Pt 12.569413156956553 12.128856885843195 14.072588394917018
Pt 7.817449864714896 10.957100874347313 13.203955757448814
Pt 6.689011429629245 11.092703321984631 9.94250698969567
Pt 12.991976684070751 12.983769505716001 8.771736713920495
Pt 9.550578869357302 11.287010101646864 6.5968077950821895
Pt 12.309901098272837 11.323825073311143 11.265322068399831
Pt 10.861930297671023 11.421855154184229 9.108589188384295
Pt 9.617903254783736 11.24853839879411 11.374523318482117
Pt 9.430567137908236 8.942874475368495 13.783608670394624
Pt 12.012521903450407 9.581811693125013 13.988384366622657
Pt 7.952735011033845 9.159219959742686 11.1436355347907
Pt 14.236203274550304 10.53446523730812 12.83237850799632
Pt 8.6179180169866 9.957860374972245 8.687714064808105
Pt 14.72037330968739 11.826486183037039 10.523594803401298
Pt 12.178548489334027 11.269343918847694 6.792474823921384
Pt 10.826039907237154 9.05867922478943 7.5105587014229025
Pt 12.608080423386198 9.412525572367553 9.453965105553392
Pt 11.00374186671072 9.05953312956658 11.584419661895554
Pt 11.303260931721445 7.01371303383167 13.718987316194585
Pt 9.176006195463932 6.995301893378678 12.067924013429502
Pt 9.795698455792571 7.811539944858367 9.616788857166819
Pt 14.356910543084078 10.754186913587466 8.129954759769362
Pt 14.881381200274166 9.154885569475445 10.562662611690442
Pt 12.169795129205907 7.0431575132813675 8.618718738762375
Pt 13.429186038535537 8.004439436722421 12.405334802264434
Pt 14.131094432311265 6.630492232517033 10.278193357583108
Pt 11.6201875260019 6.439375383658084 11.141485072266798
