44
Energy = -221.4856901 eV
Pt 14.528496876772493 11.01751326693893 13.179667596919307
Pt 14.366050300182666 9.21355272070428 15.131604662835775
Pt 13.666987076768418 13.415153149195609 13.50966739891416
Pt 13.006935978715598 11.55998575106089 15.253217466311646
Pt 12.352822983415896 15.731622832615281 13.641484794549692
Pt 11.947501753042292 9.400191894080267 16.35966811161108
Pt 11.406056328121835 13.622709427526273 14.929861789915835
Pt 10.368977781223993 11.416994760939543 15.883896004094625
Pt 15.621477315911722 10.117698010378458 10.919988325784862
Pt 14.747606135289246 12.711137757124055 11.219644986539832
Pt 13.670226805927141 15.13697580616433 11.442325096934264
Pt 11.222040203000502 16.0410363421276 11.272761778925236
Pt 14.550991056029227 8.385862089359048 12.644453626632597
Pt 15.975180182134777 11.962942659273871 9.0738966780226
Pt 14.879665059759207 14.487681455859262 9.285142844279235
Pt 12.871511856848032 10.23638963393679 11.218325079927094
Pt 12.154258432161814 8.516596725238792 13.957452214257302
Pt 11.465427650728419 13.33074750540984 12.088650506596567
Pt 9.78400298769807 8.873763933882978 14.809897282214658
Pt 11.343892673442557 10.976548109653756 13.212048091721606
Pt 8.793591938509314 13.366754027216881 15.218640228875302
Pt 9.749738367690659 15.090830822815972 13.437827518594462
Pt 14.365224903438468 7.849798860846636 10.092352892869046
Pt 12.193169195814002 7.508269476886428 11.64261387337291
Pt 12.140584140320806 14.603266719116702 9.176048732890555
Pt 13.716018882389355 12.579229570318091 8.018373203403065
Pt 8.63126223686716 11.039021138635563 13.97325370127557
Pt 7.939520141396486 13.162958941586643 12.720118612476547
Pt 9.387149811031978 14.2999492062515 10.94057776701988
Pt 11.680671879656664 12.04709350838675 9.851703225391436
Pt 14.144496454814789 10.065032159650587 8.682198724130313
Pt 8.447549312932606 8.866443687326647 12.599697480756413
Pt 10.048480480700539 10.478541136148886 11.042046596616476
Pt 11.981033919281417 8.707141469341098 9.217125281521605
Pt 9.851502676979027 7.865114037207741 10.61115434798496
Pt 11.572984145619955 13.26235632496233 6.773331577254229
Pt 9.7922782117783 13.422057178357413 8.611267331043615
Pt 11.869681541079451 10.711224292221019 7.526548821378975
Pt 6.819167717751834 10.850266511625493 12.075161823506066
Pt 8.083620449010855 12.216029174312062 10.223087376281201
Pt 9.628153609779604 9.577916341318387 8.549830626023999
Pt 7.538073386937144 9.14461731397248 10.163481047417333
Pt 9.45686530414655 11.630901319634923 6.859771036451852
Pt 7.378678829921677 10.870802938492501 8.15903425902256
