43
Energy = -215.22838817 eV
Pt 16.284003662564544 13.540963366431669 8.634100900861956
Pt 16.079069333388365 11.399097551324017 10.040175167367257
Pt 14.966753902138096 9.302278451788093 11.111102627694576
Pt 14.10911371503573 10.312431277759876 8.838650968383417
Pt 16.125467866401912 13.75126303150353 11.273288803427695
Pt 14.015838996298399 12.721263170250271 7.76768171530972
Pt 15.14891178973007 11.606437829002688 12.501678461041397
Pt 13.466776762800945 7.395484674749806 12.212505622376991
Pt 13.511930177028892 9.751294354701903 13.337714564075672
Pt 13.660462138226524 10.541956657967827 6.27198928121915
Pt 12.619370687337359 8.407608621908498 9.969963663023696
Pt 15.23717262642622 13.927230113689037 13.74757455736731
Pt 11.650472408245871 12.084595174954629 6.864747030594533
Pt 14.031473300939245 14.485074155399403 9.688345606427713
Pt 11.757529256600277 9.514031811952531 7.7928326192675375
Pt 13.222631469127125 13.184718220331462 11.822371243940653
Pt 13.503483919329764 12.113653991583181 14.513882971450517
Pt 11.873986545009855 7.908422797582355 14.273596017905604
Pt 12.56162513641979 10.839415696346236 10.949692391802751
Pt 10.884449138570547 7.643084673480522 11.827888397131218
Pt 14.421907429855308 15.78668664951349 11.924377227827273
Pt 14.866900248453533 16.414204348309845 14.457805266238752
Pt 11.681813884267742 13.767234253917135 8.82438904845137
Pt 10.687097228282974 11.407144748408784 9.240872561645451
Pt 11.603304532850302 10.417885906635949 15.112830039662278
Pt 13.337528990956342 14.554237865456969 15.516460780964401
Pt 11.162001527700765 11.911193546549663 12.870784777741957
Pt 10.010169928042725 8.88771416884412 9.638865055142713
Pt 9.803847481852504 9.322400369010413 13.52924028555672
Pt 11.859174220889102 15.206664335251634 11.04056190070033
Pt 11.220438800975254 13.018840115234086 15.491892553494822
Pt 8.362924477675957 8.32286782619025 11.600489696534014
Pt 10.024560994593912 13.319305832702598 10.890911803605274
Pt 9.04215536611593 10.883822609019605 11.19259718263852
Pt 12.426375058788869 15.940129189348221 13.544980128040686
Pt 9.1871642639639 11.433285984510587 14.917635935767661
Pt 10.760963660263688 15.593350465054238 15.534001391706193
Pt 10.18159167487666 14.776800865593625 13.085004850199727
Pt 7.37200435228996 10.217814538946612 13.121409720313146
Pt 8.283629683951927 12.888870741025931 12.737989195540889
Pt 8.68761372825657 14.0102773661 15.147454599688414
Pt 6.738583430157778 12.335478436283372 14.734914195610873
Pt 5.048781997623518 10.765142506974518 13.8257771458263
