42
Energy = -209.11742976 eV
Pt 10.74304182320599 14.69592002690035 8.087614128195545
Pt 13.873597625882484 8.363408087199373 12.800470478485321
Pt 11.506346534850467 10.205670173538088 10.982263319797285
Pt 15.997417229652688 9.528889311266452 11.761798528633403
Pt 14.227879219246079 11.638491934286161 9.155652049330891
Pt 7.240848728305573 12.637379451032064 9.45952793408418
Pt 7.590702664606063 11.450091968552835 7.2248579311170795
Pt 14.661764582983592 13.25336963683708 11.171127955199205
Pt 12.457690016019587 14.151834804568416 12.269053641685657
Pt 7.2175844031226175 9.035689459677991 11.7519076620465
Pt 14.137906536056907 11.837385888299087 14.924917790243542
Pt 9.02090976521387 14.524582156627185 10.010795554280284
Pt 12.67551444669717 12.953713205957717 7.506546768162013
Pt 9.944836215227296 13.522236703768709 12.198129734601753
Pt 10.239535382064856 9.983877644517309 14.382447805510028
Pt 9.44141072672284 9.831114388121764 8.200818414955645
Pt 8.260626810195134 14.054923947178143 7.498415285889428
Pt 11.735442655999114 11.746688150629764 13.08331528183742
Pt 10.909469796910617 12.532691369852973 9.978258045640997
Pt 12.857854887947454 9.635772127782776 14.890441087127945
Pt 7.391238941145114 13.623181057134907 11.878405050572646
Pt 11.45958280603017 7.67508972411117 13.984561131000772
Pt 13.704574902335327 9.051437996155864 9.934023820760098
Pt 14.683799253964532 14.150372740693863 13.693708113985982
Pt 11.881262449016525 7.565587974876111 11.416375322104823
Pt 15.475498752064045 9.611994727073622 14.436532825550408
Pt 8.79553330657164 7.894601813532597 9.871761160256955
Pt 9.625688526015727 8.512355638563633 12.331638255115802
Pt 9.047661398327625 10.830187229481806 10.61387168579902
Pt 16.52025949913276 11.595890235460624 10.30308515502467
Pt 8.21594387879782 11.263028098256848 13.036375549883147
Pt 12.759646447923803 14.357103518067625 9.718189924512798
Pt 9.823474485502325 12.585064170029469 14.672280121319613
Pt 6.127504999611457 11.35368463628889 11.383335819943982
Pt 13.852070373913936 10.88344858703587 11.98416855284143
Pt 12.312250200619832 13.683077915828404 14.829490031137148
Pt 11.29211907955589 8.252664110924409 9.050183559526165
Pt 11.68417037530049 11.508560734716458 16.230644696182214
Pt 12.041654073692035 10.564745944266955 8.183969557866128
Pt 15.994962160133305 11.905539812508474 13.054354567492863
Pt 6.947859212965695 9.859107159789955 9.244942179553966
Pt 10.131023781171539 12.184124537453465 7.314446488875747
