42
Energy = -211.48973377 eV
Pt 12.282304288471646 7.522113321763321 13.399292247654738
Pt 14.638624377704186 8.502625804852388 13.276729193581376
Pt 16.91771721056824 9.669140733795373 13.21260994287124
Pt 10.223924510199813 9.065340349200044 14.170017401446843
Pt 8.189058170806891 8.54215088837839 12.547009279196129
Pt 13.100349159301139 8.338971365546897 10.907677900980524
Pt 12.663487869154341 9.74566179110817 14.769039542478092
Pt 15.56566880093025 9.684651896238298 10.909382924945282
Pt 15.11446309598155 10.77391205752556 14.760627792155345
Pt 10.611851170487329 11.574338931722766 14.959820820769401
Pt 10.57539442274932 8.249601989249099 11.602054197541209
Pt 13.90872804896489 9.905172071974679 8.894862697144688
Pt 11.208661564250246 9.368530393185448 9.359907910018597
Pt 8.510170611893804 10.985112853424077 13.446090433433923
Pt 12.012297189841691 10.55041707753958 7.138529188520344
Pt 10.813576825655778 10.945415364226262 12.09875900173115
Pt 15.722367837378284 11.92496339939463 12.447597887428978
Pt 13.125496090824324 12.03353477580771 15.951164829053493
Pt 6.537168235538464 10.335341484861676 11.620173504811653
Pt 13.41978841113889 10.618432330422 12.11763224682722
Pt 12.499276114949879 12.623817637341403 13.4246623721525
Pt 8.821114457418304 9.989157964138045 10.420315197887046
Pt 14.85895461691004 13.458307778615561 14.357907063782987
Pt 13.498708925900226 14.661749571301122 16.23813497016047
Pt 9.521639770844356 10.853611019454286 8.051841503778242
Pt 12.352758514105528 11.715301458607666 10.049961541462634
Pt 15.040367263154288 12.22462490695655 9.935201812195452
Pt 9.243212657847968 13.472071772411931 13.580215140051106
Pt 7.517014962116148 12.706562721858424 11.71298922782302
Pt 11.218310827117909 14.199855966289059 15.101682982576614
Pt 11.122240438918071 13.481547055389045 11.467711209470298
Pt 13.911358303832904 12.295741241363727 7.55666162376012
Pt 9.131392770533958 12.802944228381007 9.708051256565476
Pt 14.265775057332606 13.99525313287886 11.781789094703392
Pt 13.143646203659303 15.489243667333218 13.738627200271187
Pt 11.219963320758898 12.898047879520208 8.036613708670723
Pt 13.246457735338918 14.190677282372548 9.308231695000293
Pt 10.523494264950683 15.796868043872221 13.158928509671258
Pt 8.686917145041553 14.933928363486988 11.293562450018548
Pt 10.65500921316783 15.091205688301244 9.316219143574516
Pt 12.38742712853698 15.754305705647816 11.255287525335435
Pt 10.090845226483836 17.098039716650824 10.959681355468396
