41
Energy = -205.37682394 eV
Pt 8.612024512669535 10.486055427616908 14.375766193739137
Pt 8.26099559701739 8.737137612570706 12.346108266577367
Pt 10.940677528717545 10.595909760411237 15.518600360133213
Pt 10.331617170405524 8.575313228703118 13.940164474797902
Pt 12.208293975837051 6.7473776978921896 13.530845865037572
Pt 6.392827967964895 10.501400954382659 13.042134085680518
Pt 10.248647866138535 7.184369091825119 11.678080735804928
Pt 12.956388282366733 9.20782243947548 14.532841184634844
Pt 10.122223837212488 12.657457853399062 14.040059106609721
Pt 6.445635845528105 9.503469406776597 10.611254535849197
Pt 8.733838451976826 8.349785921994469 9.773634863014536
Pt 7.448936563736265 12.797864219821351 13.776096283300243
Pt 9.23401529813341 11.172904325345254 11.717859282070394
Pt 12.889180369858064 6.649124773641579 10.962230822287072
Pt 12.673548749565173 11.912240843551306 14.136653243313841
Pt 12.104568660097714 9.048608643271418 11.990851679473664
Pt 14.529533279695526 7.832112955191083 12.872594686908885
Pt 11.000604806637352 7.164807228102409 9.088817678525848
Pt 11.05333236973269 9.634645474219937 9.684224631537601
Pt 6.892227356369932 12.173521471098585 11.115222631357057
Pt 7.9924244504007005 10.890953878196026 9.032512330749134
Pt 9.01223832729834 13.781605986280532 11.860572549808126
Pt 14.458438480276776 10.492048855305077 12.663431716448489
Pt 9.699062079820505 9.489901069305342 7.550762789228824
Pt 14.256496396102612 8.999391837328535 10.481253036699604
Pt 13.49678452595272 7.419697249385696 8.489090572024129
Pt 11.79116537170077 11.539580875548362 11.696466454726611
Pt 8.120804855783224 13.564283200237965 9.279370415167955
Pt 11.623876315892248 14.035195016934994 12.29765377081717
Pt 14.185922516934909 13.135173588256693 12.37692973044583
Pt 13.222775235983688 10.009209003508417 8.315312013689054
Pt 9.388365820302015 12.169197517323544 7.250921509830743
Pt 10.590418064833404 12.134498147125617 9.556295134599496
Pt 14.060861607890695 11.659604985284757 10.232411347976862
Pt 10.51933049261977 14.728482458338712 9.986292265197434
Pt 11.621517112643666 10.87805279686052 6.416977141573364
Pt 13.231023110742735 14.201326059964623 10.176296252838386
Pt 9.594146479186588 14.827434417774251 7.51442398850379
Pt 12.742188856510518 12.548713720195561 8.129609845097693
Pt 11.343168565273952 13.500148847000988 6.069954268809749
Pt 12.1735009028975 15.144693532840028 8.00955629509332
