42
Energy = -210.48622739 eV
Pt 8.170743644515145 7.828356964623817 9.925247641065754
Pt 6.996695914889077 9.232596477567904 11.826897949244543
Pt 6.2650679317895195 11.265483884885695 13.363003485149504
Pt 7.892677949920093 10.390631425323209 9.565188063526168
Pt 9.540229146485812 11.838092306687678 8.147118723092929
Pt 9.546759268203369 8.46592692130059 12.097671151038936
Pt 8.359065018975839 9.737596802454112 14.168291256229542
Pt 10.850119451689974 7.953146747008748 9.928767212493263
Pt 7.339880164633827 13.651969920210894 12.530469580575158
Pt 9.601293399629212 9.137628169380358 7.95634354809314
Pt 12.081770645580132 8.088747106387526 7.58986341443829
Pt 10.90796997642007 9.198753230546009 14.207032690984633
Pt 10.615947868606263 10.695383268633522 10.316987722159924
Pt 8.212753446323187 12.982364725179016 10.10462563400502
Pt 12.144091672160553 8.133771793471965 12.163457411329125
Pt 8.394097712169506 12.370292750496407 14.536802208427055
Pt 11.763072078899807 10.658717570950397 7.657396007763287
Pt 8.619439935317605 11.273121780597439 12.021951093035565
Pt 10.950096769092742 12.990467652932772 14.773669390864718
Pt 10.671687731886962 13.766638527197259 9.459923494373294
Pt 13.365670890235387 8.591078976696076 9.849635425846786
Pt 10.721562778149474 12.786343247975418 12.032165626958374
Pt 12.94776589302831 11.787596647495164 9.934887940198447
Pt 14.21883775912485 9.657228103373614 7.536470844610655
Pt 9.361172505308538 14.982211216332363 11.473689481343856
Pt 12.348356639332845 10.815297030332516 12.33260276912413
Pt 11.72460639031794 15.857500827482403 10.661235167019619
Pt 9.984665563506105 10.877078641938324 15.963455123451364
Pt 13.63131068063835 12.37309881755597 7.416005795794799
Pt 14.553336056338058 9.34003478161253 12.085348601028466
Pt 9.186420717026152 14.845857129386147 14.069080723454334
Pt 12.541864304695558 10.988288947570128 15.327426195413041
Pt 13.48425557354106 8.652477790606508 14.43263549971058
Pt 13.42130269386007 12.912487399701872 13.6787201367403
Pt 16.09601688209398 11.462501919250146 7.616738360184403
Pt 13.54545576293925 14.094350728723937 11.337460987422912
Pt 11.737883365934293 14.891527620739573 13.162236288870707
Pt 15.336422983429964 10.338001126968326 9.848464326575005
Pt 14.918770938352532 10.856947812645398 14.238884008850857
Pt 13.016419751010444 14.508142837769173 8.754329271973559
Pt 15.192965037453416 12.025288822751275 11.893008111016487
Pt 15.215916768006887 13.115205283794602 9.509258178052185
