49
Energy = -251.18070035 eV
Pt 16.09060556702705 11.650782055868515 12.636049927097755
Pt 15.130666603629109 11.115698601047393 10.239350338368201
Pt 15.476102061179951 13.630447255412614 11.02598051562829
Pt 15.009082857946838 9.23514171607899 12.332526867170127
Pt 14.151377538688006 12.868463538711898 8.490865796329912
Pt 14.895412497704127 8.573109689830588 9.781267927303823
Pt 14.31989262984198 15.36554084336445 9.36903551978861
Pt 14.417666980091422 13.464362875394958 13.555390627969736
Pt 14.303182608604926 10.916290864704235 14.419284847796563
Pt 13.37169350907687 7.333008305545997 11.610891159179685
Pt 13.046138363142258 10.920273600723242 12.15041311820067
Pt 13.607876804627573 10.259548647535484 8.139443664363572
Pt 13.58832425129043 15.506410489348255 11.916998107122255
Pt 12.919317516109487 8.572287526430564 13.913604374985555
Pt 12.925502163044872 13.24778425962979 10.794074452536359
Pt 12.551172246392836 7.950440293408823 8.97605709980641
Pt 12.513165539758514 14.723440768543693 7.5099063560891635
Pt 11.443764860324976 5.989836702087819 10.368544058373148
Pt 12.55205651985129 15.15218667553322 14.300566092706081
Pt 12.497272469345505 12.741088734383997 15.355637929828978
Pt 12.216778711155703 10.197349966270167 15.819191297465146
Pt 11.50285241920072 12.917217182403071 12.942886216678994
Pt 10.702724819882375 10.502904481717552 13.215718073010496
Pt 11.762755977177774 15.637688061907458 9.877160394141686
Pt 10.351384105351999 8.566409764767814 14.84383376582094
Pt 10.380920821899963 13.240039844726573 10.64774577761007
Pt 11.830227064068945 11.163387521252552 9.738869613506346
Pt 11.378473270063097 9.033270097766497 11.157671409630487
Pt 11.019567641646757 6.976096596045866 12.807210825578672
Pt 9.996766945008282 14.21286312840939 8.24435333557543
Pt 10.899038222726949 9.718373297475075 7.739108769532389
Pt 10.0110713217812 11.544198778708985 15.47541098750512
Pt 11.674760444423468 12.247362226239169 7.41228150523931
Pt 10.170653180608708 7.235635643076609 8.32503902483817
Pt 10.87630070428658 15.68088782819481 12.386757044062426
Pt 7.9381293046679335 12.726995821401802 14.375519961993216
Pt 9.450057307778986 10.787766150959378 10.960176909081522
Pt 9.234789699681516 7.413472069423764 10.746582383059533
Pt 10.089576891902217 14.183710935367126 14.634359405293104
Pt 9.160379258627787 11.679718760678401 8.20786759579765
Pt 8.19296169085193 10.196685150972264 13.895887562119105
Pt 9.191606784512963 15.758842688308837 10.324131819571614
Pt 8.49068688281904 7.693299862338635 13.202953462894612
Pt 7.283823505027964 11.950945370859406 11.977220916118148
Pt 7.88375855092303 13.538155808901216 9.8366564880947
Pt 8.530107549885573 14.313573481620935 12.42564591949128
Pt 8.501979142118685 9.174664558365405 8.841253863978281
Pt 7.427352563222853 9.253562975928014 11.386420432208498
Pt 6.919833427810798 11.118370299119693 9.545788256249
