46
Energy = -233.72294202 eV
Pt 15.046961215720255 7.5275467118624855 10.47092607222318
Pt 12.596309623703858 7.250592147539268 9.381631899411133
Pt 14.292299424120122 9.390774198918894 8.74484480677052
Pt 13.016380550348622 6.421340494166386 11.789487125938757
Pt 10.538123616544368 7.16728814079309 11.020698345830898
Pt 15.606047434599308 10.004250279123324 10.958079223840285
Pt 14.170727468980074 8.554556520567347 12.847769300232857
Pt 12.317620425755548 8.586481740850322 7.169275469979318
Pt 12.690352680855133 9.477913898054142 10.847876427283047
Pt 10.212571960757142 8.42553212957624 8.708460163234847
Pt 9.102561085664032 7.492364383761564 13.170227476131677
Pt 14.450198998342927 11.947126410749798 9.289025235549031
Pt 10.345041031542664 9.817814140467217 11.950500146345355
Pt 11.70854923972846 7.939355356487215 13.45510717329293
Pt 15.2242160478781 10.88044583355025 13.515623355051344
Pt 8.362478817710967 8.629303931806904 10.578236457863808
Pt 13.448185789110953 11.671860212313792 11.899211101316551
Pt 16.18929860049702 12.521557539718211 11.201815119986891
Pt 10.25414922035661 10.09952449892344 6.643808269925241
Pt 12.578267137800562 11.17551941279961 7.650498319579966
Pt 10.922426352497917 10.85125017405108 9.635983994226212
Pt 12.742364083902844 10.202188289593582 14.45660028484757
Pt 14.814102578181435 13.571699516571732 13.160823166628354
Pt 14.18753713474984 14.217155545374135 10.649142187895356
Pt 12.853004195368666 13.07913430721771 14.74342967951078
Pt 10.159672520298239 12.503303743482924 7.698851954642569
Pt 8.393500773207455 10.454102689745762 8.572128204483581
Pt 9.98476708864398 9.521312835497815 14.655607343720487
Pt 11.60339033383798 13.062757762062938 10.828954697326708
Pt 11.142274249177246 11.957546931548702 13.119148118869322
Pt 12.543346839886576 13.690215993837587 8.494059492300591
Pt 7.82553246727022 9.72288621824704 13.082540078089817
Pt 12.231015145343585 15.857909018571238 10.232244297799854
Pt 10.874953031175112 11.73137821783083 15.790432156704503
Pt 7.00387360058829 10.904177199910622 10.74774527481144
Pt 12.507198076600872 14.856770710653814 12.754343156116626
Pt 10.142189219874462 14.688894579463872 9.160770313003363
Pt 9.236477356363997 12.130763915093628 11.220147111894663
Pt 8.023279214044965 13.047743933419143 9.1258165218932
Pt 8.68534636041376 11.944170469619772 14.388248426962367
Pt 10.342184110073807 14.143252076857507 14.222393935135338
Pt 10.120011406023929 15.346530351449388 11.813159090016644
Pt 6.42436804536113 11.893511217444951 13.120399647945945
Pt 6.221899114644935 13.456559242646115 11.023029189260841
Pt 7.91557389270575 15.365694114884771 10.391545550897394
Pt 8.136206934882784 13.9799033660908 12.748269543572256
