52
Energy = -264.31236211 eV
Pt 9.352575616335809 10.15009688389154 16.033006206288345
Pt 12.065085978982008 10.985947204673936 16.13213831165779
Pt 10.76787338291265 13.255723065477353 16.050118889576247
Pt 7.421554979624742 11.212864163689636 14.660513467908206
Pt 13.530084358465928 8.903238527730585 15.65655998241421
Pt 11.028305371146216 8.590759786952885 14.761673787782485
Pt 8.583426904794562 13.516679914866375 14.703883479308162
Pt 8.648521311641757 9.05870103383236 13.686877787114389
Pt 13.028154536617786 13.808879043426849 14.875373626539583
Pt 14.309553651514344 11.400665960076777 14.665124042069259
Pt 10.589647703962715 11.490667753942736 14.12331050033207
Pt 6.386597026517159 13.208537393336249 13.297296924104817
Pt 6.907321948682575 10.820083612934098 12.116607417249158
Pt 12.909911833617596 7.277085775931254 13.50183846314085
Pt 10.751449898215755 14.880418063597224 13.911066642067762
Pt 12.608035705617583 9.826525670833297 13.004362614664368
Pt 15.082060670899066 8.930213085363334 13.597367363464123
Pt 11.39377983246849 7.7686098101175 11.21380308131529
Pt 9.063494356113763 12.37505250684453 12.289422651936242
Pt 10.279365569466421 10.035555467722858 11.91629251589455
Pt 8.320642979135537 14.928308350408276 12.456734844370681
Pt 8.172366448895307 8.799489393034191 11.03679969670692
Pt 15.116072717486192 13.521161886022432 13.313932305643327
Pt 12.5768906199971 12.429031391859958 12.773283441602288
Pt 7.008938002179772 13.220737766982236 10.748834523834201
Pt 14.101739909408506 7.70512551672721 11.197086445268438
Pt 16.210429184093297 11.186493590109174 12.722856987151202
Pt 16.57839471125206 8.856247920336964 11.46303677247691
Pt 14.30741341552877 10.373718835097504 11.116253489252948
Pt 7.17383293703984 10.735885062808546 9.479318741646582
Pt 12.749854796541648 8.9565836586336 9.24272522656826
Pt 11.000602500848776 13.652968944871038 11.112356622309404
Pt 10.126972645975087 9.148735142895632 9.264092652292836
Pt 9.460769005949142 11.743831955005007 9.859479707688736
Pt 15.41730296258451 8.623644263423541 9.061817050039515
Pt 16.672879661165975 13.31707717346199 11.125814203031233
Pt 7.719681624931398 13.110336416300532 8.240439975590373
Pt 13.011920513300636 15.172437628631597 12.436376199927485
Pt 12.01130341673894 11.384187149754823 10.370235134925654
Pt 14.180250122018 12.913882609179204 10.709890239280387
Pt 9.022876572350652 14.847873913487204 9.825857683700999
Pt 16.544648842773544 10.973829403906704 9.822949219101146
Pt 10.539198699140828 16.128465675300856 11.601055253525637
Pt 15.598840150995583 15.645370707092477 11.817914216184224
Pt 14.297628730393752 10.909313467351138 8.26590502316042
Pt 9.107306643445757 10.94376354488884 7.419658336252058
Pt 11.548422956362225 15.335339605240694 9.129475807992286
Pt 10.376514068936494 13.33504986108315 7.8963126897076235
Pt 15.64978503348141 13.196958387896723 8.586233162931384
Pt 11.71852423154008 10.919080307938351 7.7452300775469825
Pt 14.011427932881693 15.291742898827765 9.830104304481692
Pt 12.986686725766079 13.258610891312916 8.231132894142585
