54
Energy = -254.2181945 eV
Pt 7.601242372119064 15.044078238464259 12.098657796572768
Pt 13.169232218537827 8.976453957472787 14.443163328847389
Pt 18.492693359503907 11.354873809839393 16.55630149523438
Pt 11.06166874627304 9.65593380534468 13.042488669189336
Pt 10.294388754534499 13.72170192635 18.062443489082415
Pt 9.024703641891797 10.844313828157551 14.84817589298192
Pt 17.972062056054103 17.51952413698463 17.086867390723704
Pt 13.660316262008728 12.167616647400342 10.41741048054516
Pt 11.239195525073061 11.606318582059945 11.222094423068995
Pt 17.656348264666843 18.259657308001504 14.742688102911806
Pt 10.483103642239625 19.029610373507282 13.111035120020322
Pt 9.408292468202795 10.939266777976618 9.545778852821643
Pt 8.957928589317024 15.308747938196683 14.263828374522626
Pt 17.887938815012145 17.31327936043289 10.479113345497675
Pt 12.0671351864594 12.379139359384457 8.192431892029184
Pt 11.147473865931058 15.419679869087005 12.33894512099604
Pt 15.72994900438744 11.103283030560144 11.506571353214868
Pt 8.25994987880704 12.893026415738545 13.475132804042524
Pt 9.493265736088611 15.493657905182875 10.257012447242117
Pt 8.644627004497979 13.008802547011113 10.896271144297332
Pt 14.512310737700552 12.69604770631417 8.005195018440803
Pt 17.88346890464994 15.782522240345092 15.300585203751744
Pt 9.701884624868503 13.599281719706628 8.542039468867733
Pt 9.926849879987884 13.328411886712926 20.334405153037757
Pt 10.244125391904372 15.666310395152081 16.507737028605227
Pt 13.427686095877652 10.784801945515374 12.665828483653044
Pt 12.74386115948458 13.399586405008291 12.613170745851765
Pt 16.247154650595874 21.307876132775217 12.071195836706183
Pt 17.532735905452864 14.83551170911244 10.900775703892222
Pt 9.989631885253624 11.446336621746871 7.114412269749183
Pt 16.118389693525092 13.026801487526876 9.85615835915351
Pt 11.685338521251914 14.01663514019816 10.253153015625612
Pt 8.854268594114519 10.689478055065292 12.075430300392041
Pt 18.055161651384005 12.339289220620422 11.480989137216053
Pt 18.56554896711738 14.276547665796533 13.224714619581574
Pt 17.323942740741295 16.491099558358695 12.848005073665979
Pt 19.089728204622844 13.627581635077878 15.690223528570185
Pt 18.590383010477307 9.010180628666781 17.272361458283545
Pt 11.83299369991491 14.531875821443304 14.69685796478154
Pt 17.239904367528656 7.548448678052774 13.374227920002875
Pt 17.693324867592363 9.434129193139118 15.002697706008059
Pt 15.473726870141997 9.384791356557082 13.490993643468505
Pt 11.018794637138853 17.04234257487804 14.500254615210592
Pt 17.06749819595898 18.925885741066956 12.209943568263368
Pt 9.1486704234002 17.111028288326878 12.286527265358211
Pt 17.84444042901308 9.890679186572733 12.41681517529493
Pt 11.224045434536457 9.72071357355647 15.859259291264642
Pt 8.744726865262557 8.56521201009197 13.523278718605269
Pt 9.03740939535108 8.497854127633994 16.028771072386732
Pt 8.164569242876995 7.280999098302324 17.80644662681233
Pt 16.19988839725146 20.18771630574317 14.23999538022358
Pt 11.727248481494561 11.889849429522423 14.505360058016334
Pt 9.708222487850465 13.133063738649849 15.714995586666266
Pt 18.465734496423234 11.83198332352855 13.994244814102892
