52
Energy = -265.86864284 eV
Pt 8.00481774554539 11.650160822681906 14.868562190990003
Pt 6.862145999598777 11.13217529310753 12.346416899606064
Pt 7.693811919846033 12.668997200980893 10.410239765654964
Pt 6.658236642327256 9.47179689273252 14.387531729396878
Pt 7.855266841743076 10.06163522356876 10.055937007317715
Pt 7.889179773377229 13.537629801599742 12.918796105063748
Pt 9.633607991766889 13.676847655874012 15.105529244014397
Pt 9.406459982098417 15.669355676688618 13.344991625670868
Pt 8.577869490920355 11.603219377112724 8.014895630313395
Pt 8.492951021342195 15.06411275651137 10.856210971581103
Pt 9.413074835657444 17.42573030297106 11.319314772618183
Pt 10.583497783941992 11.072251019542831 15.461908754133992
Pt 7.89286154271292 8.560944263008805 12.303311191713524
Pt 9.447521009357109 10.743817370190468 12.776140201183381
Pt 10.152104536668164 11.70126884646968 10.539124547621524
Pt 9.231737209813232 8.94494680765949 14.676651345307956
Pt 10.103322196937691 9.617530011332764 8.709219757400405
Pt 10.554595288438124 13.070332857866443 12.811410678255616
Pt 11.838349348475855 15.05233217821858 14.189163683419288
Pt 11.654311508765531 16.908145037602406 12.406009863119282
Pt 9.725856229854683 13.796267392903001 8.851046897926228
Pt 11.706298488975085 9.898612751465341 11.958905906521654
Pt 12.02616466864753 13.213355173955199 16.034201676390484
Pt 11.03133683028499 15.538103095040157 10.31231902933869
Pt 9.020667891564425 7.660302619978286 10.20985775511865
Pt 10.434142596836022 7.649071530592115 12.53709789638543
Pt 11.847410421759776 8.88305944666037 14.441470271607736
Pt 12.85115482688992 11.9388697269135 13.212608779831196
Pt 13.091008969586975 10.958409162631929 6.175019052246486
Pt 12.415975330623574 13.259517411900237 10.91810990038371
Pt 13.17845486099124 10.78823195675089 15.58478410210834
Pt 10.99829040100307 12.273600234816385 7.101834397598088
Pt 11.598847276261877 7.922711642683078 10.102515226105037
Pt 12.285047492048724 14.292549288487292 8.398919939143031
Pt 12.28609674154062 11.378314885127331 9.121721324279383
Pt 13.124862587152583 7.612184674951486 12.33151286241291
Pt 14.190041211037173 13.95362917184874 14.361612018258267
Pt 13.886080217153248 10.796206584747022 11.011240491165461
Pt 12.543252826151619 9.085153106635627 7.92491801343377
Pt 14.558307267031317 12.744639457109983 16.597250151742447
Pt 13.621940065219839 15.207598329451317 12.171083004307365
Pt 14.210633718080505 12.5970097243 7.876903541031082
Pt 14.39308678555688 9.479587038865334 13.69418690322089
Pt 15.59484070921327 11.70457362397247 14.397016318497712
Pt 15.497152794288224 13.225077348467783 12.154718522827004
Pt 14.99818918326594 10.079901709140236 7.9066921660403695
Pt 15.712982524391 8.064845571741888 11.938961009379762
Pt 14.590271021919383 14.245577923344179 9.868308528687082
Pt 14.145867038570309 8.424522268856975 9.897757412457942
Pt 15.884809517475526 11.961222646830949 9.818451059587751
Pt 16.305656522346887 10.660411519743452 12.142135887261043
Pt 16.640795975335543 9.426466684967622 9.810837839305865
