52
Energy = -264.0600405 eV
Pt 18.281426699755908 10.670800784885692 15.406528613816624
Pt 17.243602551477753 12.538142983834081 13.827626890509784
Pt 17.917873213968583 10.317054917214985 12.76397374827737
Pt 16.435281544167864 12.295004047432652 16.391731910088666
Pt 16.196215060472728 14.230188364241611 12.27929539639427
Pt 15.879667667872452 10.8750317775985 11.204826908280923
Pt 15.961692355857059 9.644120946630183 15.792514785785814
Pt 15.700661956151203 13.14515550372577 9.870870171573074
Pt 15.844015829052411 8.90128179145241 13.114156639051101
Pt 15.944981023753845 14.558975519402475 14.907925320005843
Pt 15.085500154890902 15.911187369853478 10.613537575115938
Pt 15.139259473226943 15.066750667532034 8.093585226245178
Pt 13.871539440315203 9.078343370972767 11.263745146085876
Pt 15.014016572178983 11.219675327064294 14.012309694474911
Pt 14.515949671032251 13.83050454880585 17.15787750415637
Pt 13.471994409369442 9.13767849325424 15.036647693113911
Pt 13.693072294082741 11.13289368131464 9.671787706964361
Pt 14.10260043223787 12.664930649481592 12.128761936155046
Pt 14.512960948882343 16.08531513360593 13.163618374041778
Pt 12.055351916602376 12.84623894388547 17.24974092240936
Pt 14.047377818103923 12.694048606953302 7.662272602140789
Pt 13.463443040075145 17.03583706102696 8.779645167861252
Pt 13.951352486366002 11.177317473468921 16.65153672263854
Pt 13.27187450986645 14.17165322915586 10.023074996927898
Pt 13.705752989264882 15.892635780007295 15.693103925544756
Pt 13.834226134937195 7.319728039490573 13.219951440935699
Pt 12.167350596306928 14.479526712097806 12.553754755142423
Pt 12.605180217370494 14.886036200374184 7.348585361792773
Pt 13.614176616223157 13.370392035367082 14.662157058723947
Pt 11.368659544920739 14.708424990402216 15.611088893103902
Pt 12.279782230835076 11.313170337187524 13.784254547322279
Pt 11.427132733631584 10.561105503309852 16.087344326308045
Pt 11.967961190606443 16.72768342918458 13.880854851287962
Pt 11.484313672544227 12.795947711152603 8.562366437194294
Pt 11.553716208358889 9.769548535264342 10.292609548614436
Pt 12.745466269247885 16.994385016667017 11.352540322154605
Pt 11.627396651529034 12.226472140976984 11.289738428301197
Pt 10.300298246066378 12.898713691150993 13.443235468672125
Pt 9.779826260717499 12.646322212033931 16.03624492657385
Pt 11.760322229593054 8.88865337304572 12.833365896818933
Pt 10.226835167436956 16.06812382088688 11.822526918144625
Pt 9.590514358980885 11.304346972182989 9.525622702917753
Pt 11.289025235993293 15.709272151555142 9.474326829111794
Pt 9.475641327911655 15.896366458471867 14.389567274219187
Pt 9.824709212073861 9.341785985454889 14.554499178659077
Pt 8.335289305214939 14.431042166455185 12.536202005605622
Pt 9.676690147033462 10.292234140256898 12.065289872629217
Pt 9.608863935079992 13.919400907079964 10.253443058955874
Pt 8.287107080595359 11.314731270988649 14.086581312362613
Pt 7.827098875948359 13.986404021499645 15.077457868366
Pt 7.89960194564049 12.120674703651366 11.281001440792322
Pt 6.352433707869781 12.78320069529258 13.215216411376735
