55
Energy = -276.88200161 eV
Pt 11.425218631169427 11.286854379417695 9.744387694536112
Pt 17.63463248695661 15.071465208683229 9.833291332874998
Pt 15.858909824774077 11.842787214414251 12.374323802396045
Pt 15.608491678689411 13.520888605790715 10.354655027992797
Pt 14.574844783396005 21.4937992634964 10.803488686467851
Pt 13.309719396192104 14.576421857306139 11.163177207880741
Pt 11.45667415152595 10.936193872047706 12.347632009300847
Pt 11.034292717699016 13.403257290443198 11.088974959544842
Pt 9.153780646519829 11.590981869139046 11.304452840005853
Pt 17.279054882776425 17.408317897890743 10.700794633832572
Pt 19.131838581274746 15.818397163288989 11.88558617693481
Pt 13.35129608722231 16.901843521425462 12.344207253461114
Pt 15.855102063767836 19.381676885849366 10.1310623980616
Pt 13.619235453923281 11.907042922815407 11.056336485777083
Pt 13.482847889300237 19.202327234405693 11.31756972240112
Pt 17.937318733204272 13.402034344696798 11.782003134103281
Pt 11.267678322128797 15.423928187323718 12.715736588380995
Pt 9.446591940097926 13.589362267580512 13.1716323634833
Pt 14.66067931898518 20.75293793797211 13.240337345690845
Pt 9.07882775288518 10.983928519711803 13.830048654677201
Pt 15.691065543717992 15.671740263271417 11.957847371375397
Pt 16.677415868113183 14.143259632473928 14.038623867893719
Pt 19.310811300211572 13.961492410579927 13.999107574288203
Pt 17.43946985561594 16.886847622606304 13.635830527898326
Pt 15.737408044161766 18.51010787917048 12.595396870502242
Pt 18.163161644443136 11.637713444719768 13.688205459049856
Pt 13.636145458794823 11.348253423154631 13.659513954502506
Pt 15.894381630955914 11.481614859565626 15.001508103545236
Pt 9.35138854580396 12.74896694942445 15.758767626057004
Pt 17.96961747913146 12.697229813224931 16.11544485441768
Pt 19.897598182946062 16.474093282504846 14.292079950828025
Pt 9.20677010855768 10.243152870176186 16.32823501556306
Pt 10.274284554865787 15.195889205548474 15.102934511786401
Pt 11.865221416154057 13.234710289652403 14.339188467050887
Pt 11.464206777985916 10.617158844348484 14.950547058375163
Pt 13.110697949029309 18.875820757494463 14.061596429537317
Pt 15.181861612661734 17.466134929111007 14.89532212329213
Pt 14.105362679222772 14.278674823719403 13.653649987863378
Pt 9.453548301985414 14.614472332774243 17.52835843574825
Pt 12.647055349512828 16.480897117618508 14.93070735226
Pt 19.269959807232645 15.087326107626604 16.385244134184244
Pt 14.948037182162878 13.869590655911889 16.077140780116054
Pt 16.873998586948133 15.937555525089389 16.094377710751626
Pt 13.616342664488966 11.481542299934977 16.252391014435595
Pt 14.363786595099091 16.23025589232505 17.06863448520645
Pt 11.54477061825418 12.966531059708677 17.347763531755042
Pt 15.954511419822623 11.722531810521355 17.61966202728622
Pt 11.854233598165287 15.55315446361288 17.22742730776816
Pt 17.63586136302699 11.706984195703521 19.586008807837086
Pt 18.532794291114076 13.72138329314094 18.36417462780474
Pt 11.461743074179862 10.431895853776734 17.589409894373137
Pt 13.641696963464106 14.120772454653222 18.527597952556825
Pt 16.212904775135822 14.760560413289472 18.322010969193446
Pt 13.452953107170744 11.511082098370345 18.845735229179063
Pt 15.392606514493309 12.836864888614775 19.97056587503264
