52
Energy = -266.29969081 eV
Pt 12.162220077366205 10.882388686452156 6.291851959219374
Pt 14.303898824647996 11.028332944160438 7.830866963329575
Pt 13.170659901314645 13.269162614590856 6.922923054335584
Pt 12.425963906134893 8.946912798646288 8.109363696630474
Pt 15.91019875155073 11.336807475867806 9.894491041838341
Pt 15.922832292215885 13.682519815146389 11.245377559547403
Pt 10.75219494085744 12.803998948198702 7.530590283614152
Pt 14.484085628349339 13.449098919475071 9.111284278296683
Pt 10.084959545076762 10.21213499724687 7.729904422857667
Pt 16.44476724080242 9.151947490748979 11.40503922259398
Pt 12.264613457303431 11.287482004095988 9.398982610949922
Pt 14.484152986411187 9.081224151607248 9.716285046639547
Pt 16.286823398343504 11.429253096167283 12.634536814618219
Pt 12.256404489859758 7.8093679420705175 10.529544180363725
Pt 10.133989676689934 7.895893804695735 8.9229541601636
Pt 12.09519879090627 14.834630124724004 8.875092171045413
Pt 14.023131035598938 15.525557646907506 10.6924642669176
Pt 13.887005401503133 11.136929185871969 11.515949339874824
Pt 14.057604859661161 8.394404009956583 12.371378417565785
Pt 9.380757838597603 14.143210532588796 9.368175357788406
Pt 15.944844129592498 13.64854793485148 13.921293205637694
Pt 9.59216045364092 8.257887952246731 11.418193506027492
Pt 8.2508876046367 12.097458079362049 8.025470485373909
Pt 9.828061712837659 11.428312787108002 10.228496681540987
Pt 15.963298589862065 9.157823188319103 13.993573653088069
Pt 8.151863938274174 9.630296298552977 9.46787676106378
Pt 11.551225291049942 13.30741100166722 10.838987561056685
Pt 11.532966539119657 9.985932139518656 11.64962194580765
Pt 13.579193582943725 13.630943842590938 12.426026041007217
Pt 7.407114612991706 12.347534659682665 10.477354888079928
Pt 12.599637652430106 16.137379403847255 12.765826558500514
Pt 11.599592562370953 8.074563263476598 13.316662275916554
Pt 13.42255391997221 9.25396033071541 14.869105336626317
Pt 10.646014560209712 15.705772916069842 11.056971879697615
Pt 15.071272511569259 11.385296112679718 15.063739217439807
Pt 9.08683912179028 8.656715955937575 13.926628269099345
Pt 14.002355499689914 13.739438829730572 15.549546122752645
Pt 10.251252937599556 12.03792174324691 12.743168520488208
Pt 8.017562582545587 10.275374325603039 12.115552792060353
Pt 8.66251595445643 14.20230490976356 11.983944735961286
Pt 12.752599878546171 11.528035832238595 13.796115070658809
Pt 11.536436987847821 13.77388400294019 14.086583002153336
Pt 12.753781803266016 11.405217401836474 16.439194206387246
Pt 10.884204645776352 9.964782205838278 15.303252751861546
Pt 10.036342750936173 15.78276218745544 13.646436951898602
Pt 6.9173236555751965 12.48657962777691 13.015044269011685
Pt 12.41435888472924 15.838979118161282 15.359738613875516
Pt 8.444105504362012 13.776178197980686 14.632461730238123
Pt 8.590824857126089 11.132953695220111 14.612801354095597
Pt 12.132093765073819 13.95154742590803 17.27532641834405
Pt 10.317247364630562 12.456387996647416 16.086023189121562
Pt 9.949835153061617 15.119633279049236 16.23370908022601
