52
Energy = -265.28904373 eV
Pt 17.828411926750395 11.712338943645552 13.82504561337735
Pt 15.788097154132357 13.41790541271118 13.992849331452998
Pt 15.70168305003018 10.70360295047703 14.928435356026009
Pt 16.492195088461106 12.286539126143598 11.655896884432254
Pt 16.686823001362136 9.753113475612851 12.391935267855484
Pt 13.612166976214738 14.904375275933297 13.981180700329565
Pt 13.443997342699245 9.848537842911043 15.732467009640683
Pt 13.653958125943847 12.509567653369555 15.223519917852695
Pt 14.737667448068441 14.28032150288762 11.653952021196128
Pt 14.390551439445801 11.064749827342222 12.738938857778939
Pt 14.506145487849077 8.552671611779196 13.442569778058731
Pt 11.278299102823286 16.188421090807275 13.798111173233734
Pt 11.29238292515896 13.739452183674487 14.722231637555634
Pt 15.154373731699557 12.697901027182287 9.544374926399785
Pt 11.112206066502539 8.988903312052296 16.605476979178967
Pt 11.389706284940027 11.522577522233851 16.118046612020915
Pt 12.914300611205784 16.160202930373764 11.598595946128466
Pt 14.752772714102235 8.987645817404479 10.769966439389687
Pt 12.00383287722561 8.070091478444334 14.262918312421077
Pt 12.582391636228277 12.813475384581348 12.4643020282598
Pt 11.810850604966525 10.60801649864107 13.612513883971754
Pt 14.44900587253509 10.323943939309379 8.347543557318868
Pt 13.434967770450706 14.690499650703032 9.430343500192727
Pt 12.732655659649277 7.578168248175121 11.780574382646067
Pt 10.591572121708948 17.502820169583277 11.54823721790847
Pt 13.174120206577241 11.21672100162835 10.44372454984801
Pt 13.375473437357554 12.695090200033011 7.588988142228439
Pt 10.12082445425088 7.573235871206293 12.50521459945307
Pt 11.413829433465843 12.982758998717971 9.704978047736583
Pt 12.773431831314035 8.421867166449458 9.103706838634977
Pt 10.878804691314434 14.580635399848477 11.782072270393126
Pt 9.563572032612768 9.117245212480894 14.586640972653791
Pt 11.248868191339357 16.23362957407368 9.412749776428758
Pt 10.887061450198162 6.80493877469286 10.075004729017625
Pt 8.755652181661295 16.553104706830272 13.174937119518471
Pt 11.269170915254554 9.690611726046214 11.287734851549356
Pt 10.163064873796824 11.930541518984684 11.87570838628446
Pt 9.344012464766253 11.99846960729518 14.579093886722378
Pt 11.9350316409048 14.951520112068337 7.290324663977277
Pt 7.7559648574684035 8.97953271652402 12.731390174308364
Pt 8.778608349424605 15.630031257066168 10.62907013856577
Pt 8.576483813617779 14.011914624095805 13.006722027418187
Pt 10.832956101674892 12.699833495771673 6.677528901226325
Pt 9.559927490765274 14.325459729717899 8.476555073376085
Pt 11.824242302497922 10.583786551090123 7.939330714060785
Pt 8.355410230772101 7.706041051646204 10.573513623375204
Pt 8.194207659892154 13.016078865058462 10.418868093294291
Pt 9.437476034396145 11.568646364053247 8.572429948074745
Pt 10.040760309969208 9.032871479342957 9.025263445183372
Pt 7.297120415012575 10.3550489854214 14.85500685028181
Pt 7.459864707832032 11.713541112985158 12.644125857641821
Pt 8.287255690865324 10.355465694721946 10.541450912090916
