50
Energy = -253.46509956 eV
Pt 16.200096987185052 8.969891215682116 8.236566528814771
Pt 14.915547069472026 11.356245926855987 8.187412872515972
Pt 13.624284387316726 8.872600365452822 8.227148738566799
Pt 16.058640351872434 10.34244973377823 10.417676790663133
Pt 15.047181541580766 7.649493501221189 10.218935221924353
Pt 13.455689775494323 13.56033825462521 8.32927566138831
Pt 11.096422003137938 8.685807916660504 8.088066967771612
Pt 12.27424684414293 11.142455577499188 7.605082442658274
Pt 14.786567940971024 12.683458244728469 10.489193985063386
Pt 13.538705232975717 9.825347444925564 10.647899532413508
Pt 15.864612391595552 8.708050533573624 12.528541625511544
Pt 12.385037354784787 7.2585392533995465 10.11519039571711
Pt 11.907754579812986 15.646994035259782 8.557472713373436
Pt 9.619513621854527 10.902594774116073 8.256315431583891
Pt 13.269617963005988 14.871300567759961 10.691566856770367
Pt 13.684551995021206 7.314851083140344 12.470933363623274
Pt 8.429216989537993 8.541194611872676 8.442236895793387
Pt 10.706618945211718 13.277410338004454 8.259418940101051
Pt 14.888373829410051 11.15057240932891 12.648191867388293
Pt 12.144212329584418 11.907385768482559 10.080097253579318
Pt 9.749328164995402 7.395046462460118 10.286873579317287
Pt 10.329374646379376 17.73691508833041 9.067931649073744
Pt 11.530424112359933 16.79821225512506 11.113329281145898
Pt 10.76750395041652 9.79696432472366 10.421540828297028
Pt 14.023088388935477 13.567134810293796 12.855953981079786
Pt 14.015450856324705 9.2228198278113 14.338808780878763
Pt 9.388678673150778 15.288696223302772 9.38039454711539
Pt 10.777054877405762 13.892687114221605 11.129018104797233
Pt 13.454714900087437 11.832175805063775 14.773499280001515
Pt 8.601465046092633 12.83931529268895 9.789900541008013
Pt 12.740055572939175 15.80400919041702 13.147029180214457
Pt 11.953049070033776 9.4184504997939 12.710581237526029
Pt 8.882633150378254 17.083360476109025 11.236236857430765
Pt 11.098726717459943 6.912990987716039 12.471650418450247
Pt 7.972368195100129 10.299462471355001 10.301682845481501
Pt 8.736713882629056 8.068630297950174 12.544293771727837
Pt 11.862362534944147 12.105726141529402 12.660710551976953
Pt 12.191075396408209 9.832901743009087 16.041454437904882
Pt 7.990596283193747 14.640862328027335 11.668595668778968
Pt 9.584499433225323 10.68910347310334 12.521066855877049
Pt 11.593279423519917 13.950492534206955 14.620399648743147
Pt 10.11039846882984 15.582419840636923 13.073125479895875
Pt 11.882807864404349 12.434102850914167 16.775153438269676
Pt 7.290629842973728 12.167545192995112 12.015123585039376
Pt 10.335549655625638 11.361684935358813 15.054710926787278
Pt 10.384573740165278 8.603636007449623 14.628994053540437
Pt 6.684888776679801 9.673229171529684 12.546886051448288
Pt 7.748723088731922 8.5973586319962 14.844508313016584
Pt 9.131408589838244 13.246715212593104 13.654903281835514
Pt 7.82326383528863 11.11526679891763 14.46968143177765
