54
Energy = -268.18113728 eV
Pt 18.280946905670202 11.986652926069015 11.533949608149774
Pt 17.437106085370324 10.77846083324895 7.1806769463724045
Pt 13.848204590824501 9.97138230120315 10.2777503561957
Pt 8.327861437434825 17.0193341629904 13.970417954945678
Pt 13.672056767298642 13.974487325766699 13.06147283421967
Pt 13.929407422295888 16.280668273003442 14.293583199287582
Pt 10.030706335025043 15.531157759975084 12.432862282049872
Pt 12.943644987466428 18.5365782393634 13.433824968106798
Pt 13.052006499721255 10.968589241164159 7.896592751844538
Pt 12.961239278551982 14.75875013036299 16.152512861229265
Pt 11.249464663944659 12.768811206836107 8.869669879878224
Pt 11.546452454461077 10.357902181272548 16.276540642042672
Pt 16.49884003882756 16.425655277908458 10.420646277002477
Pt 7.095809335177993 13.930716281436084 9.585395003355277
Pt 16.781733934742565 12.116658789017125 15.92394131319021
Pt 9.887975926922149 12.362757243674189 15.588263500005912
Pt 10.77192237217155 10.671023585307813 13.775339891861384
Pt 15.010618525341487 11.312706843177711 14.154919221251655
Pt 9.33562614772378 13.763514143239144 10.632092708970248
Pt 13.735327787669181 12.918464090812867 9.49327119076631
Pt 15.619505120562929 11.368035454222682 8.976311616044725
Pt 12.037998122059602 12.836457859901477 17.709585177073635
Pt 10.30761613819102 10.715677535033873 7.488962864863784
Pt 14.292959751239916 15.173155728121843 10.600255154139184
Pt 15.913467229668925 11.198717580350008 18.214946912618213
Pt 11.337053087408016 16.311803689258724 14.89833333600828
Pt 16.565662250505515 13.820693038979911 10.80988455913123
Pt 15.753156501415189 11.343378296532313 11.562200741283089
Pt 12.349237338115966 16.576550572201967 11.858486875719649
Pt 17.95785901870721 12.396097270644225 9.038999361466395
Pt 14.789392493226833 17.550584691240168 11.937513265014582
Pt 10.466808165793536 18.040309418595427 13.213764528159421
Pt 11.771561491380929 9.141786821987235 11.924809196244244
Pt 8.728822748452714 12.334459804292917 8.570954938541236
Pt 15.04328972235442 11.3080224317657 6.4551853792063625
Pt 11.409890991800985 9.602807495096839 9.477678815763001
Pt 14.414244714445722 12.571766828948949 16.751202135411162
Pt 13.10135603500856 11.56499804184099 12.316836182292032
Pt 10.835878266991068 10.618198657630177 18.672770925769033
Pt 13.375148058185406 10.668579690387151 18.23878482057706
Pt 16.132702651275146 15.496592344335456 12.85697520491933
Pt 14.826448853137908 9.088800392932173 12.54738016945488
Pt 13.051600876639199 7.278451109963746 13.133605814001312
Pt 12.515039998384847 12.423339555115916 14.854470799097214
Pt 9.113072496577912 14.782088756803688 14.841965008787689
Pt 11.9000180421314 14.095556579064615 11.142350879559586
Pt 9.844941736868037 12.998431816008132 13.064019667221467
Pt 10.492792248887438 14.737473289827005 16.961771562170956
Pt 13.118588957971971 9.494637176773335 14.48817372802782
Pt 8.599688112378052 10.99722853846811 19.690462293459536
Pt 9.444667555495204 12.803347153844586 18.16046610826283
Pt 10.660586694984422 11.41227411715762 11.177420316048313
Pt 16.941555469263022 13.004647637152953 13.463548857883174
Pt 15.417191924536375 14.341363251966039 15.093939518638198
