5
Energy = -17.4947099 eV
Pt 10.80206163391192 8.723569069097838 10.10585666033089
Pt 7.709360301515595 10.174171864819515 7.00969183045596
Pt 6.34178522018115 9.31617060553431 8.83487424455123
Pt 8.740433697127326 8.75711274818054 8.740736387278352
Pt 10.068139293380334 6.690755858484369 8.970621023499895
