51
Energy = -261.58907219 eV
Pt 9.133384771600175 10.24335343245686 15.490563258142474
Pt 8.288145327288982 12.338416643350923 14.076744871857038
Pt 11.708574163201348 10.797655207851019 15.775508910693627
Pt 8.10224825454339 14.292767085330151 12.222935507833785
Pt 7.971467135186772 9.850208899722421 13.151416808453462
Pt 10.096400057098219 12.755711619520271 16.02538309022322
Pt 7.0771936194411555 13.817884619134016 9.818205124435647
Pt 14.296093447887655 10.323101386442525 14.964242451925347
Pt 7.039954063413575 11.991096709543504 11.741060918786932
Pt 11.892491731851925 14.699027799747874 15.814854361143743
Pt 9.97482259787922 14.404540130550076 14.04735992674511
Pt 10.259439400382474 8.351644420568542 13.26323722504019
Pt 12.268357845850932 8.451629413036942 14.93636942005498
Pt 10.608448267485928 11.130189752487146 13.41201356894303
Pt 13.418288733083402 12.694402060332713 15.507714792139383
Pt 10.084013215378992 16.168054733529072 12.163480693996751
Pt 10.5777438676679 13.274622602805653 11.553703655898335
Pt 14.713288801536029 7.911316461346744 13.993872504276402
Pt 6.675442341889474 9.502680738520755 10.868645427061505
Pt 12.894138771434928 10.12676909829844 12.727358378462146
Pt 9.462878720078235 14.992463436162906 9.886250349529309
Pt 12.351314845407758 15.435960699822095 13.26199741380041
Pt 12.662135053469019 12.683903936578751 12.96859317351514
Pt 8.837677856191501 13.248943770975476 8.016505929680221
Pt 8.301182271030056 7.645298098707743 11.710905627453815
Pt 14.50340098524662 14.82908210411217 14.487959513114015
Pt 9.385439113192728 10.975668558933956 11.11148795142735
Pt 13.173208125437961 11.81568504688403 10.574113307156217
Pt 12.066279539876092 15.279468242914389 10.624128834227179
Pt 15.539025586712977 9.996708451547356 12.50595942673675
Pt 15.263641362106094 12.406770655211757 13.556525286326387
Pt 7.546976500661184 11.266845999408526 9.142221677387244
Pt 11.613091759281133 9.720860315003973 10.5170654504664
Pt 11.419115616448023 14.307397717971696 8.235239638541257
Pt 12.679360175179694 7.48900549315576 12.430841228132394
Pt 8.831767795217699 8.899394824582359 9.410767245717665
Pt 10.7031238794291 7.317052546077563 10.696022946687313
Pt 14.393858805715581 14.392632300592505 11.830483895295465
Pt 10.948570226319102 11.984336809651156 9.314944641255323
Pt 10.62373571793065 12.691739189401908 6.230961345352113
Pt 15.166011412324988 9.606379927457402 9.959244454975206
Pt 15.666930166460704 12.148581693412893 10.90956396341974
Pt 11.211151765759043 8.614089880014431 8.219768421154997
Pt 13.94084270824065 13.93347522663729 9.29624784615781
Pt 15.23723163485783 7.507657280298865 11.474559045323652
Pt 9.519307423842653 10.58089099234491 7.507301227535522
Pt 13.263348874594042 13.193523453822309 6.785410374848422
Pt 12.17203167847751 10.830862635322003 7.11056010240371
Pt 13.19835388024276 7.733025665907722 9.828252063701614
Pt 14.541806899721205 11.508017997930773 8.359235908571332
Pt 13.889511188086015 9.024308828399015 7.690093036322218
