50
Energy = -254.37823365 eV
Pt 11.252748258318041 6.241333521100034 10.179135987930263
Pt 8.917515239368495 7.623578771750004 10.095922905123876
Pt 13.215436674908682 7.887537660961661 9.839036166782627
Pt 13.201995209800279 9.901567686127628 8.166100833958271
Pt 8.560808909026234 9.276739218476864 8.037885552730609
Pt 10.547325818422978 7.514445617459665 12.357563234769065
Pt 8.061186261577454 8.285763348515905 12.49597624325442
Pt 10.177856227451375 13.262145968344587 7.049823238198318
Pt 10.845833923045326 11.973937464479773 9.816550602843071
Pt 12.660446800468666 12.418025297428708 7.4446477926284205
Pt 9.412653446621452 14.250177990155816 9.349777333356991
Pt 16.767122397233397 13.439706794352714 12.448198189017173
Pt 13.049046103375991 6.89015775941416 12.185556660778065
Pt 7.912664906949491 10.095833633559607 10.535901768687676
Pt 14.470540589379198 9.148004402218882 12.336511333151721
Pt 15.288792148171941 9.43998789357545 9.783773244489758
Pt 12.4369799705914 8.696283708164191 13.941097596230987
Pt 10.584619510441822 9.566254019515696 10.685449305951925
Pt 8.03222111687677 10.862216176950406 13.059904530502385
Pt 12.921453211554525 10.576137857606465 10.749166407564319
Pt 11.005623810792187 8.270560984067366 8.439179454545032
Pt 14.129840228675107 10.608590801135342 14.597712237740929
Pt 11.653684246340163 10.492674227538451 15.610033099652883
Pt 14.925501095652113 11.876766385387493 8.71432273870448
Pt 9.11226669506555 11.436685059970666 15.463837538635225
Pt 9.827401582178027 9.155508258156484 14.268933070117361
Pt 10.823870090325924 12.37272536405041 17.34128319443813
Pt 13.161026064826467 13.16786948779268 10.332825102773535
Pt 13.114599508085401 12.153150319359225 12.841115975642952
Pt 13.244120903444403 12.666156448034764 16.16524435533953
Pt 8.5067640165372 11.833485974405932 8.665940591121226
Pt 10.616050451772516 11.137299739981973 12.677839772653103
Pt 15.087247850122644 13.083918746113572 14.382917646236145
Pt 11.170856265968657 12.938296364950082 14.581585752861484
Pt 15.502403717246322 11.455456435700897 11.418204629229464
Pt 10.745260338534143 10.672230772871824 7.471475485745892
Pt 11.133628624244842 13.645930119185955 11.885185227023854
Pt 8.651293901227628 13.353431452766383 13.629558939928248
Pt 9.097690198066282 14.05112593227383 16.126801659451615
Pt 15.772872820695 13.995382709789126 10.118942986260624
Pt 8.146423865165284 12.728202592339535 11.162242095497422
Pt 14.51210574318883 14.792453146744524 12.370808274905652
Pt 11.557589469548866 14.841882479771904 16.606884601492474
Pt 13.043675286909808 14.860639834390854 14.481046189337455
Pt 11.81535381141973 14.733750211990639 8.533955538290535
Pt 9.084538686053932 15.19109954378027 11.762916836476265
Pt 10.391744763337462 15.479032145375045 14.128047317820561
Pt 14.424529713055746 14.343966603701165 7.885093082041576
Pt 12.187642850322986 15.973157711659459 12.219104552145943
Pt 13.625770165562736 15.767652028531916 10.043006882952962
