54
Energy = -259.94528771 eV
Pt 13.636179048216338 9.384065875955935 17.001330895707863
Pt 14.156198063414076 19.847045796838326 13.831889690149046
Pt 17.451651641445668 7.698386249810724 16.094359701171854
Pt 17.686331050989043 17.28648100651943 14.647478747968435
Pt 14.559149567388086 10.359446016021277 14.729220477607377
Pt 16.375945829520546 14.544646722426874 10.952524941795714
Pt 19.70076137256143 17.05243545452813 10.97762074609136
Pt 14.975060231226118 13.09068817055223 9.388479487445988
Pt 14.997659072395596 7.8793390604114935 15.488634157922565
Pt 11.110143525467397 16.668981840066607 15.999860987503418
Pt 8.898664274838278 10.874889692487418 12.435200522272076
Pt 18.76996945279187 14.832887946946997 10.337031418770296
Pt 13.346821417746282 10.442454389422291 12.422075792476825
Pt 17.909463656916223 15.880876719750617 12.523035878610301
Pt 12.193979429945593 14.202609680120139 17.556505516496276
Pt 11.141066639047592 9.890904870088228 16.941704149715214
Pt 12.111239419837016 11.850874447082317 18.488852640072086
Pt 11.100714414342875 16.107787984685714 8.511510962058177
Pt 19.124808920011233 13.787302435143014 16.90997427407831
Pt 13.468705568859201 16.326475893341957 13.157463846851256
Pt 10.380063924234555 14.369797647256897 10.250925352993322
Pt 17.055917293666507 14.93101797698483 15.701049033586813
Pt 12.29518591687123 9.36214447379156 19.186079706928023
Pt 9.280687198563461 17.329221250460147 14.3056224409984
Pt 12.075631473545283 12.203718207031887 15.749867629911895
Pt 11.341623443517134 17.955684652103475 12.833857465930386
Pt 13.96937223436911 14.168770564415466 11.495930399293716
Pt 12.35465335593363 21.29382018297776 14.75747663091829
Pt 15.641588120121797 14.764797134059924 13.485669195733385
Pt 16.70836319606804 12.726303067840037 16.885161471542457
Pt 11.115547841816463 11.801523051552257 13.057773152546272
Pt 11.624971084979693 14.40100598424899 12.712417293306723
Pt 13.279930900517442 16.57484406934162 17.36849593466954
Pt 16.265847064817873 10.074622551309885 16.671102604997408
Pt 14.336294017144798 11.90597967293312 17.166318053832622
Pt 14.782940087735506 14.460237450798605 16.87049317406343
Pt 12.154467529117953 16.49907864834791 10.785967147870963
Pt 9.1973346525146 13.334490821077196 12.209523370081069
Pt 13.568339112758196 18.503250730964393 11.677347070754536
Pt 9.625057220644367 15.955094858588792 12.179610589291519
Pt 12.75161765961355 14.740336894413167 15.039609760176772
Pt 13.652021573929735 12.709286169426267 13.637650358600625
Pt 10.400917765156974 17.01403379753023 6.511483946767497
Pt 19.505197982014234 15.357908757097187 15.003533835237535
Pt 15.73321484686505 17.939181285146965 13.103622543638659
Pt 18.822131188287774 11.318896865885227 16.674428653871036
Pt 13.092269354350552 18.24067997261545 15.377942976666848
Pt 18.48856566502965 9.132945528603674 17.760192893516887
Pt 11.879348205025659 9.910304051482994 14.525056082503639
Pt 15.157551358796857 16.732584651296378 15.410964318166352
Pt 12.802991506292827 14.373455163296853 9.220456237170419
Pt 16.324924102616233 5.950980579613843 14.727003431197243
Pt 20.00370378534086 17.280953462612736 13.450850691976791
Pt 10.82992679078543 19.34332443880301 14.893505329165722
