52
Energy = -265.7096235 eV
Pt 6.6262327608011855 10.726948127101164 7.657369987745249
Pt 8.801236701029746 11.371993288352424 10.637750751503086
Pt 11.822584020026282 15.07679917975683 8.613652002442482
Pt 12.372181027795872 7.013137734089363 9.166621579854342
Pt 5.782527546752172 9.516059030640651 12.648604330403247
Pt 7.881271568804595 8.363631946988322 6.847692756882236
Pt 9.923636879819496 8.925707494496558 11.430969101162102
Pt 15.0152146004671 11.839264729311015 11.236679343510179
Pt 10.23759240505721 9.081656870877326 5.8900188686157176
Pt 8.099367340249007 12.931230372785139 14.053790898538573
Pt 14.470488917628867 8.225581197754249 13.161441194005873
Pt 10.576297102218541 13.732705196922002 13.456574009954718
Pt 5.808287361978592 10.367482055466713 10.107868034523966
Pt 8.599861402869353 13.799587035790422 11.585137828502084
Pt 6.692383352257072 11.927583019840657 12.023338920679436
Pt 8.143099087826283 10.584535648149 5.4477436343170265
Pt 6.488155667405681 7.8073389854976005 10.809309194982184
Pt 10.01514122910706 6.469092378117335 13.055524880129052
Pt 12.21879042077424 7.3374229417152215 14.427898981957183
Pt 12.28266692419543 9.376454683940748 12.509275351930585
Pt 7.855691737164192 7.903998935480484 12.970174346392248
Pt 7.779646360048067 6.622335365890526 8.91294305031637
Pt 9.459250872471168 10.883835022594118 8.008303982157486
Pt 10.094408597082687 11.374395456258679 14.83395006910048
Pt 14.38572057387343 11.413520616223527 8.370303184944412
Pt 8.253335298922458 9.152476542847742 9.506332621595966
Pt 10.024465344416859 6.482266687935715 10.413240824394196
Pt 11.188218341978356 9.330169702033766 9.10011420895705
Pt 10.080874319684987 7.182211573865688 7.833923524042945
Pt 12.485132038604672 10.250171761449248 6.866470854790892
Pt 13.23441856623171 10.254654984165334 10.330419013851094
Pt 12.246948730540435 9.913260108885664 15.200761457374176
Pt 12.998172209533273 13.0679037320808 12.469116485082184
Pt 10.819479497895378 11.408006703474513 12.288326799367912
Pt 5.67214921967131 8.310863576743479 8.320064210732243
Pt 12.354369736982067 12.786056330283902 7.425224187914236
Pt 12.49154906896027 12.497176036658185 14.954743652975903
Pt 10.00917127605627 8.79171229783282 14.273964728324957
Pt 11.283802037105113 11.951852606598758 9.788811227764084
Pt 14.218928971002764 8.70447932332612 8.090153063531247
Pt 10.327093031890636 14.185324083266584 6.609170196340764
Pt 14.427408831692938 7.971874249016399 10.577099266110832
Pt 12.319545935822246 7.639547559645692 6.56175581821476
Pt 8.105488460102281 12.80857734687575 7.000018286518647
Pt 9.355340759417889 14.050565660593039 9.062200827447105
Pt 10.53297731954982 11.719889132653385 5.775579837011598
Pt 7.029071769783055 12.767336118406465 9.44144747212291
Pt 12.297427940180103 6.855526712718315 11.763122595476185
Pt 13.470205214610907 13.458213833557767 9.891304786774668
Pt 7.91675976781743 10.35421181272678 13.87555337821257
Pt 11.152293431780175 14.430109171472008 11.014331961040222
Pt 14.117149844207523 10.846776458990078 13.547323851624848
