5
Energy = -17.20622275 eV
Pt 11.346988501310419 8.76902523380753 6.322967079064504
Pt 9.663851783679892 8.938029890820836 7.918237384423686
Pt 7.602766140751832 7.973710293396016 8.913113106509867
Pt 9.058333364364975 9.406974405031438 10.277399124283402
Pt 6.627294703762656 9.21149467081395 10.867517799588311
