54
Energy = -247.03915478 eV
Pt 12.483921175036784 11.655981175632224 16.285012285532645
Pt 19.885776690288584 16.381484991846563 10.478714618964862
Pt 19.643839628491897 15.987167906822787 15.614957264684024
Pt 18.14130716591373 17.695127474701824 11.861903875927272
Pt 17.275023309113056 16.13382238247888 13.691760043203203
Pt 19.176767506572386 18.673986151774734 9.741369982999586
Pt 9.997584365640591 7.649709636853877 11.640332218175757
Pt 13.00102329039482 20.258208542998585 15.159721230433892
Pt 19.38009820100835 20.152708964416988 16.13329175058156
Pt 16.92245439254829 11.705158082408872 14.5273364269475
Pt 11.14127639286694 13.367587621108633 17.74193687390531
Pt 20.02646349862314 16.53205756880766 13.122790683574918
Pt 19.563584439457266 15.540453151707721 18.24451813516953
Pt 14.599302597088872 19.477062493813857 11.413814740648446
Pt 16.703484172980062 18.861292114362012 10.221509581953866
Pt 10.497053370173298 10.35306514509456 15.092591264150267
Pt 15.2563792753225 15.1098032766859 14.811251520755343
Pt 12.242181612944906 17.84008625158868 15.620892023036236
Pt 12.007827785707045 13.597255758877946 14.53355350058178
Pt 21.011984924080366 14.510760594466396 11.623400638048256
Pt 13.697163207208849 18.33184554013429 13.572256027283592
Pt 14.466089651336361 12.599850165376616 14.721905481049406
Pt 18.058200260741273 11.526047986122222 16.808412259332894
Pt 18.144139500221954 13.478085714639851 18.506365995388215
Pt 11.162249240168308 15.586098603747253 18.83865491154334
Pt 10.341965011650922 10.976808755033376 17.54096995158987
Pt 11.855263845049118 24.82850739909694 23.79804001268567
Pt 15.144651529171739 21.30800629494999 16.11505615277965
Pt 20.297870714610944 17.53745120104469 19.462676583849476
Pt 15.180624368904093 10.840918728517622 12.976646676192855
Pt 20.127058555652997 14.036685429747376 13.973572264518825
Pt 10.576700702200778 12.073580842708248 13.180889293371772
Pt 17.209783388202737 20.49176698629144 14.970791157586092
Pt 12.828756720998499 10.651372799926529 13.782404807008856
Pt 23.759655323434576 8.388507389280692 24.78824428112275
Pt 16.231490914964596 18.51973782882759 13.305736656912336
Pt 11.386085313007527 15.50814649546068 16.25791737612258
Pt 16.059104476851722 13.230247414458539 16.926807096693985
Pt 9.223055115513866 19.724652592847573 18.044114718450075
Pt 20.94915756629917 12.106501929144333 12.503541494553007
Pt 19.203459954465476 17.935221673926108 17.252148953332977
Pt 12.924870621335867 15.937064428350384 14.063716266026683
Pt 19.576242263798335 11.630875446162376 14.66349131345947
Pt 14.998381738341585 20.832065169765457 13.571722110014846
Pt 25.08783454567322 7.828266473273093 22.97001419002955
Pt 10.446655159927529 17.61787859215499 17.58088454027007
Pt 19.930125450098192 13.530628931385346 16.572165071874952
Pt 10.82195571986699 25.89273196865506 25.58334313262111
Pt 13.641282829915365 14.087440556638937 16.73299814702517
Pt 18.509009195489416 18.205986697652953 14.697275750743547
Pt 17.724582428916687 14.095235043182347 15.146924282939073
Pt 11.55958951307503 19.906699848426182 17.217179804179924
Pt 10.774245586618003 9.592658472603265 12.684754596279072
Pt 12.850315356746759 22.088203123077786 16.90815116643155
