53
Energy = -271.4455039 eV
Pt 7.301951766590552 12.328398962063757 10.223304599376238
Pt 7.580634004306856 8.58571790402232 12.346303294763196
Pt 10.178069564242017 15.305801170831707 11.986751739814254
Pt 8.55359984226417 8.139969935670333 9.88010452629144
Pt 9.62355080391388 10.317104952948998 13.466547172480913
Pt 10.761358260718426 12.533848519627782 9.80365446629116
Pt 12.006647804916241 10.273774520251504 10.080206245400369
Pt 10.964529166914547 11.816724044416954 15.66617329856832
Pt 9.042876818817195 7.9460366821286215 14.481279414783922
Pt 8.327592695924768 10.38701694543805 8.451687973580697
Pt 8.205043658306565 12.930570706909375 7.795632076091714
Pt 12.051969967670717 15.7715388570279 13.781758417161287
Pt 12.719629707332272 16.05701365186049 11.198679165377229
Pt 10.867911225962692 6.865842795973819 9.855268365576352
Pt 9.336539477884413 6.624826176764388 12.109788797093941
Pt 10.672838017871062 16.23286619190695 9.569391450903996
Pt 10.461682388854069 11.515214132965843 7.31308554265523
Pt 10.029333330926404 14.059949500456577 14.392403806339095
Pt 10.789941278005882 8.723531884261105 11.780507160378935
Pt 11.468531331165144 9.219805692853033 15.2197486877049
Pt 10.58375805588815 8.987550919481045 8.256557186264772
Pt 9.194147879697276 10.606848162013065 10.905047745447884
Pt 15.03003524936964 10.030486507787794 8.925307893294
Pt 12.853768321018851 7.074066029770162 11.613523081200386
Pt 6.471772070096847 9.79062184172239 10.314493383450154
Pt 12.781201539852962 10.182654696539261 7.418806706885405
Pt 6.933626299111673 11.217458188236286 12.556979373820576
Pt 10.499414847150717 14.216022785901064 7.815618239474845
Pt 8.828748890901368 14.40565767148538 9.947938037834106
Pt 14.810871658960721 8.731074619360903 11.307980694485611
Pt 15.014145678672866 14.008416288371636 7.766341104708342
Pt 16.806088348079506 10.427888421392483 11.02478579892978
Pt 16.15235773371844 12.413016158407514 9.475152752803567
Pt 12.208160084630984 10.622433038556071 12.866988587159288
Pt 13.172803535515511 8.140179765921756 9.21063711596359
Pt 7.001156361090679 9.71375547369131 14.71019435778685
Pt 14.069585931188808 11.33811642549564 11.27563810421933
Pt 11.418029810586686 6.970150364208609 13.826326412524436
Pt 8.097257282527663 13.62291870705797 12.45936753014449
Pt 13.410344187175188 12.246274903613335 8.93445865210059
Pt 13.578487907164812 8.54716045770214 13.706805323284199
Pt 8.257720499697967 12.127314918296884 14.745574532032162
Pt 12.593824534534997 13.119545597525638 6.704846444047649
Pt 9.133993715837626 10.003268181816503 16.236211237442763
Pt 12.815574913549339 15.151140600913783 8.640432004990425
Pt 15.413233923376158 10.493898365805677 13.369375499933708
Pt 14.832629042379088 14.525615289318505 10.37521043475496
Pt 12.659671900594313 13.36225654235667 14.439006569401645
Pt 16.037778400210467 12.775894326784876 12.183056843692091
Pt 13.505413337067862 11.021607901008851 15.062939121869693
Pt 10.463919145099867 12.543151952899942 12.369894002842344
Pt 14.370311835323642 14.630309388169197 12.96933574967889
Pt 12.661713696692567 13.47782756849215 11.386430639117224
