55
Energy = -282.63673464 eV
Pt 11.241530030671745 16.100329190248406 15.199502513934549
Pt 12.881100484853425 16.499920001008302 13.162134299183062
Pt 13.587918361374811 14.965396217331254 15.243613114523315
Pt 13.821726603625159 12.71928063587772 16.722157223895906
Pt 11.308882092110345 13.669737809908325 16.27773942992539
Pt 15.223175951795971 15.210770976645415 13.121545475796458
Pt 15.479960541383976 13.100233358898814 14.725294451843215
Pt 9.22573495030136 14.528669077987077 14.797766216019633
Pt 10.128884473789615 16.202492578417942 12.837770788669513
Pt 11.746306457372434 16.360910880925047 10.513186702023619
Pt 11.855515014311946 14.392492508008402 12.126195985206909
Pt 14.322367874801147 16.423924943860772 10.94662524741801
Pt 11.823323182600985 11.04294650859211 16.2681144926168
Pt 17.112685284810212 13.397380975072906 12.726939795004611
Pt 12.526967291895337 12.895352196579246 14.11232925564096
Pt 8.204582623789392 14.394038197365226 12.271024722648697
Pt 7.331781921393349 12.805430318553851 14.137015449921666
Pt 14.128221953287092 10.788854348697003 14.927843838032196
Pt 9.414058935488054 11.898047690791776 15.57422315385514
Pt 15.78932711222852 14.295516373583814 10.531960821083233
Pt 14.083965201207256 13.073860655243871 12.086181221338961
Pt 9.195917435648655 15.900844903189945 10.414494144130854
Pt 15.720562096867466 11.084682292762006 12.863148066806152
Pt 13.41202664226971 14.559712147327835 9.335777175005813
Pt 10.070506223441585 12.536254222587793 13.146808755259219
Pt 10.700675088193401 12.6199850681257 10.614425261022003
Pt 10.784212787059253 14.497064996942914 8.79711376318661
Pt 8.378501453059904 13.523849498357189 9.740327810368301
Pt 10.256579728674582 9.358064746672486 15.053122610954683
Pt 8.156746313475034 10.333811112138939 13.768287716943814
Pt 7.451086199212242 11.843526054461929 11.664565125379477
Pt 11.875229123289115 10.53177588297722 13.29137729034537
Pt 12.906935023425557 11.185288248482998 10.900918300549858
Pt 9.694267118565747 10.385950130839039 11.602739000429473
Pt 16.83011647243765 11.883967459228751 10.599968476091107
Pt 14.671108260250893 12.273633039469743 9.139231249481796
Pt 15.135493275562384 9.828370222458878 10.54788722264389
Pt 9.228731203597917 8.11145283413611 12.785098655249765
Pt 14.13942210031701 9.009366802805504 12.993867313171908
Pt 11.8033056817307 7.76362619364195 13.740004916788257
Pt 7.548748121336507 11.17108315678638 9.151511001061586
Pt 12.393737497162922 12.604619199874072 7.908242374170598
Pt 9.725791451922479 12.151489796260256 7.86248778753855
Pt 10.94967049609778 10.313626280062557 9.318113548483327
Pt 8.030951837694406 8.868616796651803 10.371860171900197
Pt 11.820925934066308 8.814010446808874 11.21723363655682
Pt 13.554776292204545 10.067609118966628 8.346414508481214
Pt 13.584092282910568 6.655373449546772 12.091029482671264
Pt 10.968910140226724 6.348285783571387 11.669958062381978
Pt 13.711445424066437 7.818048222031313 9.755892440202006
Pt 11.434342676264563 10.443485583229586 6.671165011945217
Pt 9.05775728779316 9.398808129100429 7.888325180305484
Pt 9.947608641315867 7.449826880413819 9.5650867269014
Pt 11.778869259891492 8.122375539647424 7.788500374832036
Pt 11.9981417821128 5.931138012080484 9.241060335413769
