54
Energy = -277.0680076 eV
Pt 15.656640133730102 11.01333563833089 14.95408038157274
Pt 16.017601828030827 9.247342102761236 12.946607301241585
Pt 16.033332420352565 10.09234402245998 10.510359685420411
Pt 16.18526844909763 11.914370351452181 12.463342780041076
Pt 15.948701273310876 14.42152109377258 13.319753850153575
Pt 14.109079338202363 12.936688340777259 15.696306111483919
Pt 14.918226458511842 8.451584361608385 15.182456794369239
Pt 12.381172987878612 14.745481080033752 16.519179800218748
Pt 13.763174841721275 15.383401200554204 14.385598767552466
Pt 15.229543705297367 14.978616322813078 10.984662836904256
Pt 15.719246228922932 12.687089260363958 9.913346915254035
Pt 13.19038158632552 10.401240871591964 15.925868188537377
Pt 15.363618196063296 10.73905268854369 8.042768891969901
Pt 13.669671837335308 10.365302733618414 13.29174296887527
Pt 14.406568395607366 7.840249111601552 11.373950398366356
Pt 12.4515586258533 16.782062206972952 12.471732756182197
Pt 14.598324484854633 8.391436330640916 8.945045153151456
Pt 14.729481107042579 14.901554343000065 8.459143198761117
Pt 13.644524579581143 11.083070606381376 10.666697352519252
Pt 13.820893803458382 12.97023479663561 13.08095618443841
Pt 11.625254835519494 14.338993901202347 13.006995213474655
Pt 10.10509114573518 14.583240946831872 15.201463806584236
Pt 11.432145806576722 12.371345513235546 15.876785423387133
Pt 14.166315884193502 6.561250219808925 13.552265320256435
Pt 11.610581728537994 16.77453234910161 14.964997128227612
Pt 13.246870375020656 16.425725410847814 10.058684284260213
Pt 11.384484134934931 11.712802452040192 13.307965854767797
Pt 11.826056567614877 9.614385774000173 11.723737311626403
Pt 12.887185816744655 13.693605851316198 10.770468374652207
Pt 12.39999734483655 8.159613599620375 14.657316158272547
Pt 12.051119730004634 7.975372907127375 9.727744749344458
Pt 12.78586787191989 10.103161750786937 8.215359198317092
Pt 10.6047578314464 9.984631549231807 15.197147378078528
Pt 11.974063402241091 14.616023018440313 8.462137307954338
Pt 10.75241593406511 15.770259067478758 10.560559963619216
Pt 9.779904493009736 16.29224132398884 13.0405158313247
Pt 11.037059570861194 11.879645306352593 10.569047700063221
Pt 13.585209058666539 12.616801385495746 8.128003037407659
Pt 11.929715314247574 7.059391374868116 12.248371635692658
Pt 9.001405812196683 12.184191445536182 14.770100433456443
Pt 9.949625532438398 7.808877999069699 13.845425338561384
Pt 9.477339694770459 13.22936474352702 12.153929978204856
Pt 9.583023200008626 13.855760551797767 9.249631056726383
Pt 10.25692161947924 9.727707082439792 8.940138976105928
Pt 9.715832154747012 8.322271848529411 11.173714001115428
Pt 11.0584881264332 12.092055163126345 7.892918913905721
Pt 8.77891258963675 9.992816698616425 13.201857980009018
Pt 8.242768663595657 15.338931961056122 11.08615925544015
Pt 7.918542637710067 14.485331545173247 13.79610406816819
Pt 8.456787316701531 10.623003982106367 10.711574270119604
Pt 8.473161762585496 11.623825148910557 8.291064003626284
Pt 7.2295192529102605 11.988865448908394 12.71885370177466
Pt 7.248167454060593 12.94305818347913 10.132411020847986
Pt 6.013152676434005 14.25797388110564 11.965592842334553
