51
Energy = -261.46454628 eV
Pt 8.025691677203675 9.591980131749253 8.60634682708763
Pt 7.342508952818481 10.539883499806026 11.207181398912642
Pt 7.603295867310043 7.96900136469634 10.83447522649271
Pt 9.79166659547757 11.139243146169665 7.3702721873427395
Pt 9.756176885695057 8.566063404578939 6.816165576148014
Pt 7.209919967964168 13.158632478202053 11.557371904873126
Pt 9.96157671098251 7.160348029753778 11.826839101806051
Pt 8.160172943045872 12.250818321773858 9.215329013699762
Pt 9.593560169555186 7.354569703213136 9.20907851503287
Pt 8.484196515452462 9.007854028095228 13.130339726857857
Pt 8.37296189068398 11.673364571432522 13.423724500149817
Pt 9.79536163475638 9.732067122047832 10.429587085951525
Pt 12.070056111871514 12.349411267012824 6.551105541676471
Pt 8.946835697077296 14.618554187509655 10.094530983550065
Pt 12.11908645139635 9.799883789433565 7.029472759627201
Pt 10.035779712166079 10.150140323821548 14.904886909783146
Pt 13.861968746602509 6.066136169519942 8.590145333164866
Pt 8.560950642925423 14.258163254852985 13.723562598633993
Pt 11.860577873736514 6.309665784455558 10.288992290420829
Pt 11.788613286424397 7.320640774185544 7.749826156553812
Pt 7.414545022428511 15.742983011785721 11.933946998377357
Pt 10.39451323178248 7.580006823444438 14.391879805458721
Pt 13.16203992633208 11.073302241078087 11.402649864613728
Pt 11.289486859798004 15.665755387938356 9.447250147288903
Pt 10.796034981240867 14.445960900035747 12.259963282818907
Pt 15.851853946344814 11.366419333534422 12.440469770722196
Pt 14.525763299799676 13.551226680792555 12.940221954224631
Pt 14.006706512942468 11.27769593647962 14.308839281475494
Pt 14.811994797249097 12.719879070450853 10.35568271877466
Pt 15.268069221006941 10.041200564617206 10.198670444096495
Pt 13.025979587205905 15.629267867758335 13.450171718506622
Pt 12.624242908098038 9.063627520387593 14.703958728565357
Pt 13.065228756828796 14.649561306685804 11.026328121121754
Pt 14.509927496616786 9.09957165195557 12.777660897595798
Pt 12.136381706763398 11.28789982736014 16.113962340132804
Pt 12.765342149190152 13.615953533227774 15.031039915634453
Pt 11.645543236296104 12.158153893345634 13.14883398580374
Pt 12.97432752754864 13.635540020590396 8.676314234250311
Pt 9.91465714802329 16.684514252197935 11.415587153021901
Pt 14.03846318863188 11.25415151366048 8.145584935349568
Pt 10.103843150063431 12.743911699891548 15.17917531546722
Pt 14.323373670217117 7.502458129661009 10.7663345213566
Pt 10.762575277112559 15.34293361448408 14.807989337191946
Pt 12.514983657534435 7.252174024667798 12.733401543517568
Pt 14.213967155155599 8.645605924421641 8.254658854349625
Pt 8.960172596628313 16.898146005553137 13.806882572424021
Pt 11.272297360679685 9.656481361958662 12.529263891221488
Pt 12.21817195087073 8.94699759719477 10.075739708530154
Pt 10.326089193636609 13.545261019156522 8.192079848338688
Pt 9.880068756932786 12.176315703475662 11.227601366866669
Pt 11.557131454174396 11.42535629017819 9.393357165416376
