51
Energy = -260.43319834 eV
Pt 15.858259558052223 9.063171932286295 9.972681557184092
Pt 13.959134572639416 7.271910168670942 10.573257027039938
Pt 14.994185928548246 11.416587124523211 9.05583695996845
Pt 15.983834872452968 11.182610259287843 11.526436021924695
Pt 11.826944808812113 7.135323379624628 9.090737747605543
Pt 16.097063518109795 13.530127023200428 10.253821230083759
Pt 13.62855175169969 6.854131239080332 13.194221391927822
Pt 13.549006777480187 9.238509550299417 8.820523235943794
Pt 14.96573018874693 8.979792458735503 12.413230791192369
Pt 9.60431733822199 7.292120951835073 7.676408973066675
Pt 12.690690733721793 11.47978547275685 7.712177475217774
Pt 13.484564071361529 12.198356562793673 11.215832394482128
Pt 11.508931497880718 7.30876872643888 11.737705090395304
Pt 15.585834307623358 11.001538127200073 14.14590650847393
Pt 11.16915923360693 9.377814365090964 7.8240094668389615
Pt 13.969391855670468 13.801149784720513 8.595133425541178
Pt 14.234011105088747 8.796310916121032 14.89209682394986
Pt 15.442629204843607 13.380715647262015 12.87147901469935
Pt 13.983505905496182 14.875801917421672 11.060312599399145
Pt 12.540756835787834 9.771102787336705 11.267316324317836
Pt 11.692691160023742 8.409282563108484 14.113947369367883
Pt 10.406809883098907 10.726857996657902 10.095593567686548
Pt 13.039948785630447 11.104612005226388 13.612583007222428
Pt 8.429460568069874 9.572242578767778 8.344689303594992
Pt 9.97455842387772 11.692442367773753 7.533076673810866
Pt 11.65077712132947 12.92245231237544 9.543083254356262
Pt 12.291008171769025 10.197938998268798 15.970770696008012
Pt 9.548352345688366 7.979485834494194 10.19271388835556
Pt 14.166106236661319 12.917267691294828 15.153937132370618
Pt 11.734687539658477 13.388208625875754 12.77487627778101
Pt 13.611588437127716 15.049143940942221 13.6714302711832
Pt 11.867276201235912 15.433621837150628 9.39119232018388
Pt 9.471027163944578 14.13773099788073 8.495668046728694
Pt 7.968855136901503 11.972590498103816 9.259620415028415
Pt 7.84262431398634 9.853999926562082 10.925435714856912
Pt 9.442890791892102 8.567575681497317 12.726250266549078
Pt 12.329891837637106 14.593905281294191 15.923653622644098
Pt 10.574197664457492 10.935779364249717 12.688707139476197
Pt 11.810693428746422 16.019521356925093 11.915194246379839
Pt 9.689076730519863 13.057051066792726 11.187469117856454
Pt 9.804666276947067 10.061065515967218 15.057201167287209
Pt 11.043133700580162 12.40762193644147 15.468587147313617
Pt 11.690233409660513 16.72367041391707 14.428394612510825
Pt 10.060785529440158 14.635499577106724 14.473992662677851
Pt 9.516306003147978 15.701987628492375 10.611998036154832
Pt 7.278695206927055 14.299559228430823 10.198753149286905
Pt 7.163604588111261 12.253586799999493 11.890971159970688
Pt 7.54066539408921 10.19783123678348 13.49567250730461
Pt 9.51403523697297 16.82357033690763 12.990000272542755
Pt 8.770755210001226 12.399109698822791 14.089987147022056
Pt 8.12840635077743 14.61335388536261 12.71489928119029
