55
Energy = -276.91192061 eV
Pt 11.06537151454842 13.137588507676366 9.648780086210161
Pt 13.652260589907725 13.733362798240078 9.519344816324015
Pt 14.023532679396482 16.377461683471754 9.242783905688038
Pt 12.343919271633789 18.048659237606284 10.102356285312334
Pt 15.825096164062694 15.1721986410638 8.014053440775891
Pt 11.714432435321601 15.51535958167069 10.519937276335654
Pt 12.806128261307489 11.375600922513025 10.375642973694944
Pt 16.15437340194518 13.219604962749964 9.593555064770946
Pt 17.44728975538157 15.511137701536644 9.944312200990813
Pt 16.57477601757402 11.150802585183168 10.990835423881363
Pt 14.468476015286678 9.50908715597586 10.631967993029601
Pt 12.377385679257152 17.16086249668725 12.601352745210221
Pt 9.782639160147541 14.223819600547014 11.705141082448625
Pt 14.196730560828984 15.11852669270399 11.859117090414339
Pt 19.002432727727275 15.62317477905035 11.907638748821222
Pt 15.808497891037476 17.049893768430145 11.10982013237032
Pt 12.235119577970124 13.526524221821303 12.386504352380541
Pt 14.56277572722419 12.513209339159271 12.034353172054963
Pt 17.849426293423264 13.362394363082661 11.673279178748313
Pt 15.11559793587265 10.15381681855069 13.038915795088588
Pt 10.435891182913128 11.556279309896397 11.703279850331676
Pt 8.420218262078134 14.295346870910237 13.83611926295232
Pt 14.163380007816363 18.848259049122984 11.732221517426845
Pt 12.620361087173016 9.819477802657836 12.626355704136387
Pt 16.031019110530828 14.06598806184034 13.488143715699813
Pt 10.933276107718372 15.397168209337444 13.862611732395655
Pt 17.370370191709316 16.815342283279207 13.337252105870533
Pt 11.796508376410424 11.769251799508828 14.18777965884672
Pt 15.789044031572491 10.519354491152034 15.429851891442064
Pt 10.001694709895766 9.484165962659624 13.25481301411378
Pt 17.23666000525935 11.672512663149279 13.564231706521133
Pt 8.816155477124054 11.726406656018721 13.686263121517612
Pt 7.509800566064073 12.708210627148198 15.669328872141307
Pt 11.834264254684706 8.758689009927567 14.851648849092037
Pt 9.99982526620903 13.296625526694058 15.626038961884536
Pt 14.042697126900084 18.942940305277006 14.239236059181648
Pt 14.889475755355928 16.422730291433574 13.965791643179989
Pt 12.598968354792417 16.951442516357524 15.20935524673413
Pt 13.113768610130592 7.549001329422789 16.646023042813653
Pt 14.765679220694247 9.354647905440395 17.461573893362377
Pt 10.138474449643523 10.615450755160314 15.887177606548851
Pt 13.628498517072071 11.777534639523072 15.997164593134718
Pt 16.354614634260777 18.02907827339652 15.390737308717172
Pt 14.568433982673582 14.148622280547738 15.626636897683811
Pt 16.90031995104934 12.9032423036865 15.811688449071891
Pt 14.079113716484896 18.546468972521225 16.807135529248615
Pt 12.036731681042932 14.64423338322025 16.159771430496225
Pt 12.271323053023776 9.898509350080072 17.225946715285442
Pt 12.962786926320007 16.339067949311406 17.899204130408613
Pt 17.28229632135198 15.480823904305526 15.634856668792825
Pt 15.392291733817295 16.39149750582542 17.21648100057822
Pt 15.535582893457462 11.78234031652102 17.894841426685804
Pt 11.580673930046895 12.356313712298716 17.48285084529222
Pt 13.797690039308995 13.810234660586335 18.09726046749089
Pt 16.506980689559448 14.250787348060612 18.00176720036935
