54
Energy = -275.90068566 eV
Pt 17.437220538590253 12.474802639120606 13.0152343637934
Pt 15.887600559356699 14.605469131196822 12.962938172489718
Pt 14.787689642700148 16.416213231322423 14.320139185294478
Pt 17.052333395086826 13.769256594176873 10.740933846963413
Pt 15.656810343392248 12.591642430333826 14.94270402238354
Pt 13.885957082705515 12.259775100047069 16.82372020506978
Pt 13.787770477181528 14.55508003295928 15.644106031675932
Pt 16.263836186861298 11.30561457979426 10.85123193076918
Pt 15.973437503096736 10.324538904678601 13.36720739247667
Pt 14.953501098909802 15.20209840502692 10.539799975956281
Pt 14.414381669225818 12.337488434459555 12.578401706701316
Pt 13.851318540248942 10.512642367892377 14.975748796858394
Pt 13.017891020318208 14.670554862346574 12.360652431799327
Pt 12.673845543012423 17.115464388302545 13.179741196150282
Pt 11.694455756800442 13.686641969875794 16.91258590095
Pt 15.379183796507208 8.894832889859458 11.153614934115879
Pt 12.932997212564327 16.688787131553656 10.55303786137119
Pt 15.090387690692147 12.909521281149445 9.108075363655036
Pt 12.360021749509482 12.835614386848203 14.166570568791956
Pt 14.104183422427315 8.505282601807869 13.416368048514851
Pt 11.359526311538335 15.427800835843348 14.982050613501423
Pt 11.394166737723326 11.14662034150861 16.094230332309664
Pt 14.323689093386882 10.394125859454995 9.226524896559873
Pt 12.975094728230443 10.325048943807563 11.741155327542627
Pt 12.969748708849396 14.679872776306386 8.81685511796279
Pt 14.272782821016952 6.506563877900025 11.602703487692553
Pt 10.781377297836299 17.80444783595166 11.434157157611793
Pt 13.23499130492166 8.049223839630734 9.780409591328075
Pt 10.158843491684571 17.472794238691566 13.963663042741059
Pt 12.792096815526216 12.730082671375875 10.533086470971327
Pt 9.357627278346223 15.68528910636839 12.19523955784361
Pt 8.697431588817738 15.452500466026502 14.752043488192728
Pt 9.751851384942444 13.171964786757592 15.311825060577416
Pt 11.121867671536057 8.370828419606271 11.239812150340612
Pt 10.701232854742509 13.26648919623494 12.122310100952122
Pt 12.142371203942881 6.8313242929981515 12.933334911075038
Pt 12.918671993098725 12.184968877276361 7.846378085003332
Pt 10.91504372706389 10.859460604437084 13.199301340064194
Pt 10.631659300894956 15.614835552890073 9.935999937930948
Pt 11.86363768329355 8.866138031384285 14.74616604844497
Pt 10.881498589781735 10.92248726035037 10.305170726666336
Pt 8.509091165593224 11.182431077714329 14.255596671700157
Pt 9.452874867131415 9.250519720529468 15.590540860119564
Pt 8.227173911416868 13.47684466194687 13.078466339495737
Pt 9.964334084996674 7.030979851059974 14.200405735134058
Pt 11.93219545090061 9.694242232941848 8.293446309862366
Pt 8.81177458060314 13.753825659049141 10.424286583368595
Pt 10.615459202650374 13.450028367717332 8.545219819002062
Pt 8.283997504682816 11.293421646239942 11.602359092941516
Pt 10.551078179166469 11.481363897258158 6.8789594510493535
Pt 8.843366382645808 9.111925130237804 10.203493360680831
Pt 9.045265787728619 8.972517392373538 12.805588547904085
Pt 8.751009268235878 11.520414158485268 8.977766698880915
Pt 9.439906445245741 9.262006803482578 7.7047655632902
