51
Energy = -261.07482587 eV
Pt 14.960932282966999 12.93137771744141 8.949194773282654
Pt 13.13627910823141 14.657815275704879 7.542018749434047
Pt 13.559186873531324 12.208038939011338 6.708933586376881
Pt 13.439783627089893 14.966931180177468 10.115392004634758
Pt 15.238355750890088 13.633346976364514 11.504208767304743
Pt 14.313312750550805 10.327303838793817 8.423913135730642
Pt 15.799683323218499 10.81953542944242 10.524147712274447
Pt 10.949878141022785 13.007814330264354 7.078567377110118
Pt 12.975613152184799 8.056670982980306 8.128393732581705
Pt 12.377314530916065 12.49151809055734 9.168845912979219
Pt 14.204007062829056 8.57518407594579 10.454973900940905
Pt 10.91977112096668 14.981853737216223 9.014234447278973
Pt 11.847307402770687 10.285886949497822 7.125158332150116
Pt 16.452396866587346 11.825576948923583 12.91450460847859
Pt 15.111527149095298 13.912533771570267 14.123740461718379
Pt 13.537339856906506 11.699269215470666 11.358986354405502
Pt 14.925696295358486 9.687294485692743 12.774202852293042
Pt 11.416887528942413 16.235231781026744 11.296375786154504
Pt 11.969904359883653 10.05569249963583 9.916778002505003
Pt 9.925706836832529 11.815382998646296 9.869928767608908
Pt 11.79326151838067 7.407426202197875 10.495781501173676
Pt 10.350956063442068 8.507255971320394 8.32948909809079
Pt 9.324895809194102 10.92127019875626 7.5351242113111985
Pt 8.723347645316997 13.647506939834582 8.590260440140806
Pt 13.227758671310722 15.009191197157147 12.728196047959388
Pt 6.9750677232975535 11.604317271320054 8.486753780771236
Pt 7.932279426068688 9.193502431016489 9.100883755350939
Pt 14.618715939431066 11.488103145496448 14.802202739760533
Pt 12.371696750834213 11.932761209104031 13.653719531307344
Pt 9.65471015906888 9.586011685953768 11.054621181399813
Pt 11.42758432842675 13.312270085866846 11.463245243674264
Pt 9.228698298853537 14.719623200042843 11.112865554942546
Pt 9.116865445721217 7.099812479348914 10.2832743957358
Pt 11.80120416209876 9.734095733493655 12.58001779574693
Pt 13.84799769130716 9.029790605525216 15.086902131690094
Pt 13.196927212926585 7.655722301617961 12.819016587116772
Pt 10.621861096312426 14.791346948390899 13.489277711518662
Pt 7.549161386583769 12.68563283891502 10.850711612095933
Pt 12.616276758091285 13.978439549265765 15.141743327630683
Pt 6.194652103583862 10.36811215517062 10.652313186073217
Pt 10.149714919230002 7.509993745368282 12.714123891304162
Pt 7.581093203559938 8.541733201573292 12.058393637385748
Pt 9.891237536719823 11.494736231505115 12.818836666142873
Pt 12.368302966873225 11.251344179269399 16.09625590422733
Pt 8.272817030607206 13.481503960870063 13.316302129909236
Pt 11.318607826665385 8.664321925878452 14.852012053506112
Pt 7.086347729438234 11.054525356437296 12.923485179250832
Pt 10.195152147023041 12.840081441602681 15.227361471775865
Pt 8.839089680542832 9.394410855781203 14.219282552614223
Pt 9.92317223472166 10.402510487516336 16.328566975717546
Pt 7.863144643373596 11.658760173796901 15.285303927039212
