52
Energy = -264.67784971 eV
Pt 13.24787189246079 7.938059760035133 14.537143687623933
Pt 13.328355235796302 13.925849621245233 11.99434307903183
Pt 8.13568064449768 7.006841423097915 9.880585895424131
Pt 7.9067537319167664 13.291432940318584 12.386213489425446
Pt 8.067091014034744 8.15797646647488 12.183734887958106
Pt 12.984648240643597 10.479271167922287 15.402156366491424
Pt 12.893352462113524 9.912978263039012 6.450684364234088
Pt 10.009230577361167 9.315285440472877 10.782823236127138
Pt 12.53913848094921 12.525239595110085 6.830498215888245
Pt 6.950120483600873 10.953581012521646 7.926502754977042
Pt 7.039497708651412 10.60743956595021 12.559451218137527
Pt 7.793397218509725 11.89676005253518 14.76056155126536
Pt 12.236533264513122 10.759863865855687 11.072046950332572
Pt 9.650331224358348 12.33205986417725 6.606379043264626
Pt 12.063466391538169 11.810215437653117 13.387348067417667
Pt 9.615651586077794 11.107686623719005 12.805457278953101
Pt 6.397155995183237 11.95525860096129 10.358971876735614
Pt 14.179475734592828 11.11577592108863 8.527834687199428
Pt 14.530057311655158 12.260670217636807 13.796429584948719
Pt 10.1853674934683 8.772994931031063 6.198936834292944
Pt 8.166482226455564 10.3245406419113 5.712720011544416
Pt 10.558282020766065 14.296995313406976 8.150091227213652
Pt 11.073902470290143 10.967607418670111 5.012965255357546
Pt 14.351092878028195 9.155987195941742 10.3234736917787
Pt 13.123140437104084 7.447031322393415 11.965535049815431
Pt 7.807237902296135 8.310046076527138 7.604689538998061
Pt 11.981994130359352 14.988923155068147 13.920774776555572
Pt 10.990970823314042 8.682333262718606 15.641589377774878
Pt 10.258783672821213 11.194958477403212 15.568630111189467
Pt 9.452352239109272 10.154167302848387 8.297509345380528
Pt 9.868542331018665 7.1128939281013945 13.728369882786176
Pt 10.77960423186686 13.137238345795613 11.560164794676773
Pt 11.621828006652255 15.284877258454854 10.429355275323372
Pt 14.504932147038517 8.446683105599778 7.859448257662264
Pt 8.931469990262562 11.789180756299768 10.225527260674411
Pt 14.597187119967472 11.797089615529691 11.075404496097885
Pt 8.579550638004767 9.328905345433679 14.521890517656821
Pt 8.94369361169467 14.667376670757164 10.27905743431525
Pt 10.626373092018337 6.811357943630806 11.083984480692045
Pt 7.04463628871357 9.40076127172625 10.129060033734476
Pt 13.281636529293882 13.509340191118147 9.295078759600404
Pt 11.209859560901492 11.960224733571334 8.936698574757138
Pt 14.210084642434381 9.774148737140624 12.86352349347795
Pt 11.876083693848361 9.443277877904025 8.84670136851121
Pt 7.996611758192166 13.327874207066069 8.306297491102594
Pt 9.786978030059052 15.421867149605514 12.558574059352608
Pt 10.195190337313983 7.164024505673278 8.404288270200485
Pt 12.732874259678646 7.0232417151316815 9.418618808091644
Pt 12.25039106609433 13.028365168209548 15.635353753007998
Pt 12.27747940574066 7.366645987965008 6.815699756457073
Pt 9.843368610661512 13.520337102426499 14.386434918058107
Pt 11.353286107129254 9.065534396176094 13.023463809477834
