53
Energy = -272.00611141 eV
Pt 17.229028620649732 14.349332400089827 13.025529769129903
Pt 18.830081760006873 13.128707012120609 11.30410495856562
Pt 17.593566950442455 11.548182880857738 12.981798446953785
Pt 15.824102768630619 12.689632828990277 14.679585889900581
Pt 16.951531219886096 14.620143492387008 10.289733116459452
Pt 16.986114066288437 11.504672036966532 10.359555494504379
Pt 16.160472965758846 10.090323334468684 14.539374393429414
Pt 15.402256640804895 13.022151781698772 11.720171735003445
Pt 15.303265125472285 15.262604702973288 14.54051748782099
Pt 15.33656350126735 13.055325282089719 8.88187928163178
Pt 14.014719236686739 11.005207695684707 15.717053700446089
Pt 15.544483921111112 9.932669955294726 11.981096835832373
Pt 13.188204680218444 16.229121547081157 15.822207751451222
Pt 12.980748274388215 16.67054167547602 13.14712589980686
Pt 14.731894519770004 10.393370906183144 9.520805431362945
Pt 13.439756522002693 11.742387710827895 7.579898425823426
Pt 13.6575406093582 11.514708780067103 13.048561337043951
Pt 14.883344099145688 15.665010635482279 9.200181437230928
Pt 12.021691319653678 9.345959177849817 15.760848658565925
Pt 13.649230966859243 13.610174555769529 15.954889046893529
Pt 13.240145365117993 12.264598571430797 10.52868374797925
Pt 15.152808188322364 15.933723873077348 11.869760440323892
Pt 13.880164074674017 8.890312253219712 13.833221802192107
Pt 10.907788584810033 16.854653341202273 14.682635504386937
Pt 13.510802043917417 14.187106393622532 13.052162077493763
Pt 12.814173502580713 14.138855589925114 8.634513814559678
Pt 12.681901494857394 15.899840192653485 10.606650948635762
Pt 13.16283551471629 9.025431906378165 11.238423933569921
Pt 11.642046712235333 7.757852785974888 12.9388679818065
Pt 11.599315097696103 12.757642248681892 14.180101937213013
Pt 11.32560528220892 10.298321017652817 13.3986442810361
Pt 11.616247182396876 11.888454599077171 16.580079125157578
Pt 11.366879580263197 13.649412501670577 11.714638646581557
Pt 9.520408957436544 10.216660832349739 15.438193088001137
Pt 9.042188931401546 15.192376603001867 14.208934523320966
Pt 10.218115924931961 7.611641883193931 15.173242699253986
Pt 10.97955108122324 12.311128077755562 8.434743090728668
Pt 10.94295435106966 11.138144315937978 10.974242218726175
Pt 10.50199826842649 16.053589479371226 12.124227039517061
Pt 11.130992665422989 14.58007767945368 15.992718200811305
Pt 12.136207503452185 9.866891114179031 8.915230065810464
Pt 10.498596100909468 8.57969724185837 10.649592863940482
Pt 9.426806948324176 12.213654698577052 12.739664546883596
Pt 10.373157856238095 14.69750220798626 9.648785575414138
Pt 9.259694606873186 12.804648371184443 15.498443347769179
Pt 9.139061252939712 8.612138166216605 13.032967495559097
Pt 8.443513195565641 14.42529559661234 11.622850597278347
Pt 8.750728418758225 12.538129686245744 9.749702860835722
Pt 7.2515202313048475 13.380174562683901 13.873608092049754
Pt 9.455221485067948 10.13249887280665 8.703447207092239
Pt 8.304379752165431 10.136722215342477 11.073338102957768
Pt 7.602073115553673 10.680421412116097 13.626111155282008
Pt 6.809892423838845 12.268434657443102 11.517688789452743
