54
Energy = -261.5025552 eV
Pt 14.53431733053229 11.203791221827101 14.138497858632086
Pt 14.997321997666992 11.98193121573163 11.121290273071924
Pt 13.164850588745294 16.321786179577526 11.107847378568252
Pt 16.503883570070315 12.802176079932686 9.213683866181919
Pt 12.567753746807673 17.711273878687905 13.210451936584821
Pt 10.04002502218525 10.22638065983794 18.051494409222467
Pt 17.580018335979386 17.74948362288089 16.884173149093083
Pt 13.20491630914043 12.629445701172932 18.10549719699598
Pt 18.248154185224173 13.410063311568784 18.21135078916018
Pt 9.885028014415301 9.342635972804626 13.184562010057363
Pt 14.57177031716235 19.356372139216575 13.194102211767726
Pt 15.736307851488274 13.18666797011995 18.70082976974589
Pt 12.584072429573697 17.078655999187923 17.62086789304407
Pt 13.064578485661519 15.09634379567662 13.69949502943343
Pt 17.73595478453489 13.713528548238664 15.741705811773844
Pt 13.748685021627011 9.933117976037577 11.971355496440813
Pt 16.27729911628546 15.966125026711403 15.501213662306549
Pt 11.533234220084019 16.648517666479187 15.291780310281807
Pt 15.220309426567772 13.782874416899034 14.449643737613522
Pt 12.095622920019576 10.49794194427731 13.88729522093058
Pt 6.4584833859679165 16.674215145695044 10.734952466531634
Pt 19.041409635114686 13.051127509128099 13.590155443919631
Pt 15.068649981843983 17.39413508332281 17.418653003578964
Pt 17.498267483563037 8.82213507057841 14.238068480176103
Pt 17.411795288733632 15.032650556079268 13.414090828692354
Pt 12.596310190171163 6.090795111093136 11.64579005874905
Pt 16.79874739914588 15.510156020120288 18.061372718332684
Pt 10.843350788985115 12.181501184695927 16.721990299207906
Pt 14.00164948487064 13.409342925256015 9.234451193604988
Pt 10.072059605879065 16.565598233348076 17.390901441558032
Pt 15.305681209861874 16.8039976669589 13.156569425898365
Pt 9.032573663387016 13.944657382580166 12.860136968410801
Pt 12.898810651970061 12.914109081397964 15.340033897541316
Pt 16.270034090065565 10.161900266575145 12.436968449233687
Pt 10.528054107292952 14.144655072759974 14.916155052808566
Pt 17.34641547841754 14.981508249687066 8.297038302359057
Pt 15.208293646595498 15.679645947866085 9.593816797835432
Pt 15.250113545333573 12.100034805400714 16.468512459498097
Pt 12.70091998928034 15.53334745300195 8.711446677098131
Pt 14.984695376658724 14.474015760180762 11.978273003561736
Pt 10.71507197581239 15.924908999100127 12.879090087478023
Pt 8.539582347862023 15.75280967362268 11.256089342310254
Pt 11.700138542590908 14.586315656241043 17.225782840661264
Pt 15.843041774361835 18.540563588476434 15.14094465748743
Pt 9.79932822581177 11.833153979394744 13.980569520131953
Pt 17.38904228528092 14.970192565141662 10.894179433178568
Pt 12.255629376566322 20.17566218522248 13.163660607303598
Pt 17.16570011767253 11.305042755484068 14.931785331224583
Pt 17.62422367984985 12.472516860785 11.548054224926037
Pt 18.808141680745823 10.559643495683488 12.916701139673659
Pt 10.760654945515876 15.988067683387388 10.256295934302898
Pt 10.235070942477115 9.845522469785248 15.63948705644724
Pt 14.134985115191771 15.093063556901573 18.133414653925822
Pt 12.000773177550881 8.220372473208206 12.403290727690754
