55
Energy = -283.4364409 eV
Pt 13.312126433582648 13.57260368065199 13.139286669163944
Pt 8.924452873495671 9.604992281278156 12.288254753923795
Pt 13.04499374055415 9.431237917471814 15.572518048540452
Pt 8.855708333859878 13.629133388638182 14.542506559798085
Pt 13.342239593857641 12.245027841071899 10.779095986733905
Pt 13.257870649107307 12.25178248287563 15.506049530240222
Pt 13.238280183713595 16.258940559477107 13.169394118976815
Pt 13.564620863696584 15.354092758281226 10.649468624308799
Pt 15.35494641865377 16.189559385375556 14.713458539856287
Pt 13.318568249073085 10.924589580691785 13.143268725141647
Pt 13.57996225315178 9.13651053825784 10.65884319650497
Pt 10.897050530383785 13.734477128310361 16.23194947147449
Pt 8.862406842879341 10.85046388477447 14.546646606933543
Pt 15.564942382269878 13.640693928799466 10.19304768949323
Pt 8.818268236494596 12.243125938714245 16.76711859506889
Pt 13.257544313271797 8.238103019289012 13.181523064519329
Pt 15.571977274781908 10.858175935675726 10.197124519792423
Pt 15.767438711513178 10.96367140009835 14.733659634851357
Pt 11.108255703632873 12.244177689330714 13.84746310139209
Pt 8.681910588696027 13.535086068635389 9.981499189243191
Pt 15.373969073726869 8.322353126015894 14.725515505647468
Pt 10.908318353077586 15.307025157535154 14.037443424366513
Pt 8.688575060326773 10.929816811298197 9.985431278910637
Pt 13.031842981903859 15.071114261175007 15.563783931735648
Pt 10.922983273269807 9.181037940367153 14.046569870199807
Pt 11.195614807968663 12.237866735203442 9.11570189660063
Pt 15.761412163103428 13.549918800997636 14.729747722863163
Pt 16.037183823305572 12.253894885261037 12.443057700579622
Pt 15.618357894260583 12.246330696702481 7.972724773047269
Pt 8.993016564677708 12.229926628147837 7.637740745884558
Pt 15.535488307573688 14.888790157108602 12.438323702714893
Pt 11.413823269505587 15.207238426124125 9.132669434637972
Pt 9.181776680232806 14.821246966305733 7.707261153824298
Pt 15.548080947679496 9.616654413149433 12.446237131807479
Pt 9.099691851572892 16.18352876343314 10.014864747882692
Pt 9.195006224998524 9.639934282316638 7.714854402885302
Pt 11.141679085048192 13.571287350654657 11.4596555301035
Pt 11.428559510515127 9.26932345600927 9.141653597214772
Pt 11.341009218947068 13.659622924513238 6.893113332383004
Pt 11.214953158441656 16.24709043732635 11.574184985146875
Pt 9.11939926039146 8.283307345108865 10.026530115579172
Pt 11.348289775032297 10.810446229183041 6.897595615248025
Pt 11.148142598534891 10.910410699830347 11.463554037066865
Pt 13.547140606394313 13.881091713284412 8.458652195845659
Pt 13.442675693384816 12.239293152236522 6.371916669406359
Pt 11.234348165441851 8.235386060375648 11.586200931982825
Pt 13.55548064389468 10.603192305375572 8.463555383580397
Pt 15.39712377225224 12.259271906879826 17.066782492209
Pt 8.52454609955508 12.235683622798538 12.27049585722391
Pt 10.903951119278698 10.759742450167472 16.23651159808861
Pt 15.188944209242527 14.841737648787664 17.01492375719507
Pt 8.911952586123228 14.868080578888307 12.280452942967756
Pt 12.98437959602699 13.547912064396876 17.832848601996226
Pt 15.201178610876873 9.675627687245434 17.02275195561078
Pt 12.990027859932113 10.960855931264621 17.837003374772877
