52
Energy = -264.34031924 eV
Pt 15.200202325149963 14.333526896196465 9.904345961465248
Pt 15.6038594026968 14.416496689114174 12.592639604013819
Pt 14.246363537019462 13.544621833459152 7.581225013104474
Pt 15.93299846567125 11.794844612460553 13.131055632917965
Pt 13.534712780000724 15.743636426347985 11.396097327855964
Pt 13.013698929821013 15.595834033691306 8.709572272868385
Pt 14.82421253140271 11.796910004249261 9.416456604017784
Pt 11.267363038280699 16.725520851506353 10.501748876601795
Pt 11.686075514449335 13.654939406427737 7.1891864676913455
Pt 13.572819778520806 15.455187072177152 14.008259629783067
Pt 12.803076575028033 11.318038125660168 7.7974370766963474
Pt 13.723047962055652 12.903014063821177 11.792239854755277
Pt 13.815265549922275 9.338982506840809 9.187022604579562
Pt 14.668840786569001 10.417893140356009 14.996996772425476
Pt 14.440872656079058 13.164413791590299 14.825822176476903
Pt 11.269582082360307 15.571075380607923 12.865932983920157
Pt 16.07186632249864 9.095182347061249 13.132051624411009
Pt 10.115539894230867 15.231806999648658 8.76534438839297
Pt 11.872463617085119 13.904033299193935 10.201530137607952
Pt 10.413398603184877 11.301312992144062 6.769358864957737
Pt 14.486487578230092 10.33221668426712 11.550416575967404
Pt 9.137196459361393 15.201595232797665 11.375063112071526
Pt 10.108153321079895 12.048718075977742 9.240575230390224
Pt 12.02430935982394 13.170887099798659 13.813898851788117
Pt 12.599899194727238 11.666426624219437 16.035331610222357
Pt 9.078247861976191 13.672828066211451 6.948096133990231
Pt 7.609933102306305 13.052665216030686 12.060382499818196
Pt 9.309341812222941 14.115358830007485 13.842311226032113
Pt 7.983258988067567 11.430355708068053 7.871875130385353
Pt 14.427942231729926 7.667909325331712 11.356347956977299
Pt 10.236914352866805 12.814598072582807 15.897307032669271
Pt 12.40328037958641 10.530628418468467 13.626606873841784
Pt 13.726322365947219 8.117134226390748 13.90711883624072
Pt 8.035327170752122 13.70170330127131 9.457251007169182
Pt 12.002922213441495 8.969262500325879 11.593775555914412
Pt 12.73127501229125 9.002838074247977 16.21440127975323
Pt 12.17521096755414 11.279155741253026 10.539791592622594
Pt 11.074248526469537 9.410434281048087 8.687660597011181
Pt 12.422760588693743 7.164124753526704 9.638608899114962
Pt 10.21590084448871 12.765618464648966 11.748112207313383
Pt 10.426289716898804 10.167108203261924 15.558323373737316
Pt 6.636866755452637 11.5423748761971 10.110264175961431
Pt 8.536234285603385 11.560518775510953 14.342189613674977
Pt 11.160015991276852 7.835034411068278 14.528577883999992
Pt 12.177397451414723 6.517809022068326 12.344077811132596
Pt 10.034562539906144 10.375574506299138 12.544781218691202
Pt 10.017273152879152 7.671338746405612 10.485538681112692
Pt 7.350818299172152 10.437576352835215 12.321047578035204
Pt 8.60817856771458 9.788084359182019 9.853002727175959
Pt 8.640024200029467 8.799870526086433 14.049527267307779
Pt 9.62743075088092 6.593571472234059 12.896583531404755
Pt 7.779493128221576 7.95282591502841 11.660872359215405
