52
Energy = -267.13667984 eV
Pt 15.301924252833842 11.031684245691618 9.90113335792682
Pt 13.933577626227367 9.759205998186166 7.93783286310838
Pt 14.481232173463717 8.463731303088819 10.14865941031454
Pt 14.792741451147831 12.177067941512306 7.499863646055058
Pt 12.403914197058041 11.570260719117535 6.612021297760684
Pt 15.255088731720003 12.592340283977968 12.104218003169073
Pt 15.15112253930472 9.904683255045043 12.322731298346898
Pt 12.783458109040536 7.4294432896218945 8.33813432943655
Pt 14.239262831025151 7.346212368355956 12.527470888397582
Pt 14.696809248630993 13.597547353727474 9.7834259441401
Pt 14.803543144253286 11.489531309216154 14.496476950048491
Pt 12.740869515546171 11.693749659199359 9.665202133835479
Pt 11.46817023187612 9.066757822627896 6.705533858145806
Pt 12.160993311906816 6.966367479793999 10.861843773089978
Pt 13.088877386412188 13.58815456005174 14.486486037366628
Pt 9.927568611417428 11.031945934333955 5.978888981636058
Pt 12.746982124958288 13.806522469946609 7.885319529991664
Pt 10.246955402225135 13.194677559627348 7.387663816337306
Pt 13.531277928940558 14.730436582784565 11.984429531495291
Pt 10.033437048296188 11.722446482695858 9.52170863491247
Pt 12.856005812206694 11.866608415416607 12.657652220839129
Pt 12.541433911088069 9.576582001217437 11.527460829862951
Pt 13.53914546210497 9.177514072882849 14.297216893849946
Pt 13.327505470631928 15.783110899253227 9.506799448827048
Pt 11.390866741079321 9.528382776845891 9.23112082423705
Pt 11.723409381025299 7.457591939844754 13.385686865686104
Pt 11.481773566745503 8.616175112123713 15.840920654324238
Pt 10.161577573816798 7.290345272634559 9.065078621578275
Pt 9.594396450766627 7.231587727409358 11.717857894129233
Pt 10.83381523132296 15.10563629917485 9.156439042948262
Pt 10.94117102160412 10.369555647156258 13.492197375162908
Pt 11.403897522253581 13.341407200202505 11.150764446164843
Pt 9.735778079196775 9.753903678667877 11.297690924494727
Pt 11.576685486342125 16.552619518551328 11.291761981074341
Pt 8.994748184507433 9.552366873646982 7.889426595728079
Pt 7.86226105614081 11.869282782281083 7.691475249686389
Pt 9.411164501691154 8.257438992966428 14.230550293260627
Pt 12.368077996539103 11.196469070902475 15.631537094486866
Pt 11.1760785608838 14.928515761103762 13.296997510745864
Pt 8.516854012714829 13.849019380628093 9.262001040634756
Pt 10.534972016623017 13.02882376298657 14.994415353986486
Pt 7.5468347979875 8.929917943050297 12.456574276244856
Pt 9.75766783559112 10.557265796893958 15.83844541006887
Pt 7.91030008248953 8.410223336527801 9.916526614225182
Pt 9.399808821258356 12.167592536145653 12.36025050016499
Pt 9.248193772625696 15.310967831437992 11.332674046520873
Pt 7.408036768159794 11.099532107435836 10.272452514553084
Pt 7.368980728393322 9.762681271548084 14.957134593409
Pt 7.31839421775877 13.541436021316256 11.520199619709889
Pt 7.963895696258287 12.343473479676305 15.263399004616025
Pt 8.642153109702235 14.321011085577869 13.718504350752976
Pt 7.027055638979577 11.43326891592564 12.979283413815413
