55
Energy = -279.78989528 eV
Pt 7.516539751040167 10.305979076187613 13.59167397550513
Pt 10.220968017756924 9.857109435802222 12.901428526543764
Pt 14.514327463065678 8.104187927261451 10.109367460808347
Pt 12.187330942691009 9.042113031698838 11.076196502613072
Pt 8.20447924036991 8.22954156952337 11.903087392736927
Pt 16.286279659012315 10.0513677453812 9.888238688440236
Pt 14.656321086754243 9.612570531695894 14.996596485491411
Pt 15.472177905969366 8.994671085937167 12.383764784421
Pt 14.146953904325564 10.955961237968332 10.944125304361762
Pt 8.083919283608203 11.050375461534793 8.411648187565742
Pt 15.92180449143187 13.056793936762427 11.292399477845645
Pt 12.835634654575339 13.182901025957996 9.9603900799095
Pt 13.110402282680356 12.404596357176608 7.188716699562798
Pt 11.266487621428658 14.231242685938351 8.048127079363667
Pt 8.80032243780828 13.48421263762084 7.976997472097729
Pt 7.4124833522555855 13.117388754264184 10.108082984768984
Pt 11.971239058731971 15.907630268750568 10.103206815080215
Pt 12.979875526655473 10.41845863181323 13.34784155608364
Pt 7.790311243511477 8.542165009433225 9.29799268234488
Pt 11.497699223505688 8.700875923237554 14.927844533774916
Pt 14.353671714885804 9.90710507689125 8.09279285046054
Pt 9.49716906720267 10.592188171431303 15.490457788639734
Pt 12.469448755222748 14.179714611689848 15.203458220099641
Pt 9.325115688132703 15.116566796165463 9.860208793462945
Pt 14.344439033380088 15.150962580047402 11.187293634878342
Pt 12.408903883695757 15.806043394195768 13.015195715724227
Pt 9.70509561772208 10.104542814597172 10.24440714279539
Pt 12.299416312065933 7.974309774568642 8.51366343732845
Pt 10.251690258975877 13.076974982723579 16.208951885079657
Pt 12.473116911258472 6.513623982236438 10.813730477997327
Pt 15.24513973165916 12.383130696750456 8.855297996654254
Pt 10.420603074156968 11.733903246040665 7.084931875931101
Pt 10.01421401792365 14.936267829343548 14.242729331004618
Pt 14.691149993029645 14.8343859392307 13.90879881421222
Pt 6.478450941337242 12.508361440011349 12.534877741245564
Pt 11.973676473731583 10.78293037170733 8.981884208419638
Pt 11.020444214744138 12.36632795429792 13.839811103592474
Pt 15.76891658629564 11.399762340149932 13.26561851569249
Pt 9.033200462898527 12.098222369136481 11.913388451709602
Pt 6.966177920518099 10.493445124211433 10.88630182157188
Pt 8.884396732535247 8.19399164361809 14.47669773201891
Pt 10.0685184250726 7.369342740342502 10.018438581731045
Pt 9.908759450138655 9.078331277614831 7.75085914782092
Pt 11.549846063911948 11.564749626240362 11.389785783181797
Pt 8.24319731245217 12.831223824897263 14.489823790027183
Pt 10.049076667887654 16.46562234160713 12.028152379826846
Pt 10.637709798071585 7.163986434038878 12.697244578215175
Pt 13.912275187340652 14.791974112954103 8.42058991501901
Pt 13.436694963859477 13.003667339343608 12.657366158987827
Pt 13.288572718866678 7.7020105646020705 13.181232476217463
Pt 8.096952729787375 14.6260045920112 12.30801581257288
Pt 14.403849343381015 12.38354142717484 15.196935055288238
Pt 10.889096138062047 14.02942318238452 11.67164503259793
Pt 12.181817214127195 11.114953629112177 15.914330072581157
Pt 12.206697951529941 9.845323937725157 6.570415491133102
