50
Energy = -254.88865224 eV
Pt 15.941965111601387 10.066947281591215 13.139729954704418
Pt 14.070487211183309 8.127846622156312 13.101443737894906
Pt 15.141818546763146 9.343105228824545 10.722917026474516
Pt 13.855677418382651 7.096147889213325 10.65011600765224
Pt 11.584724119222447 7.144053056927352 9.388873691680761
Pt 16.280362616341282 11.639765505113985 11.042769909332408
Pt 11.659388801829365 7.320498021044582 12.12909509801843
Pt 11.589671158697495 8.513437833294935 6.997918058476754
Pt 16.188142202291502 11.583069113178803 15.24994944639802
Pt 14.008556220500544 10.023793353804002 14.947752967404584
Pt 13.542536803340473 8.913841539454982 8.695993362286442
Pt 14.690017749811291 11.35160945446171 8.931150217844836
Pt 12.52730926888358 9.75356532576418 11.69598109182493
Pt 11.858077686213644 8.629169532281498 14.504769551796967
Pt 14.048686079519582 11.709999551753407 12.555889302496098
Pt 11.046465040829458 9.763978101063156 9.589211604107126
Pt 9.393501601477215 7.858740930984777 10.818823137595693
Pt 9.320615729154746 7.730301554042969 8.15605357239418
Pt 9.731212078594782 10.346908052744856 7.452244183538107
Pt 14.56902167856509 13.599472232265118 10.56103380741828
Pt 15.152258787469442 13.552266039933391 13.931484434884297
Pt 9.484338245729301 8.429664538800218 13.341790026387068
Pt 12.46301539489417 11.033890988129937 7.428487850251145
Pt 13.804570597024984 12.383930200071777 15.998373217786902
Pt 11.808240068677334 11.238091394788809 13.824177334554816
Pt 7.972516174518816 9.594875702477221 9.416409713486889
Pt 9.979524332113995 10.218657181365298 15.375562525357042
Pt 12.44348757617525 11.848620968930756 10.101939036920994
Pt 9.726684864139528 10.441953428740206 11.67715564240801
Pt 13.123424837281178 13.508471724127837 8.260243418767782
Pt 11.248911462612647 12.591662433342758 16.0039074959086
Pt 14.027057615243683 15.398259676440984 12.503221500778622
Pt 12.081074555204683 13.41953454364277 12.195839305194783
Pt 7.949267448092202 10.601835426962472 13.701967478387225
Pt 10.535978203246458 12.83702718290399 7.706402406860786
Pt 12.711870739373348 14.380348769131942 14.593987554834092
Pt 8.192007500230174 12.082471478185218 8.76398049556733
Pt 9.722223733907025 12.642436943667787 13.094188820940792
Pt 12.641264271592096 15.356293814965595 10.294707466595737
Pt 8.603763346575029 12.525929782203582 15.47247220862217
Pt 10.074351638822039 12.79893897986686 10.514135187863989
Pt 7.241857045393399 11.304635309244418 11.213727976404643
Pt 11.183322783350189 15.331385080044614 8.154122828866265
Pt 10.105759321840544 14.618346087576048 14.771427827726361
Pt 11.30556044005731 15.85922345497908 12.717790850071022
Pt 7.139447327434388 13.142463890363725 13.173380405765322
Pt 7.679212711803233 13.918220177845695 10.721520545510925
Pt 8.65847981132838 14.624627660119788 8.35223310514834
Pt 9.966674259901614 15.522518603276755 10.442138492109141
Pt 8.707943172868767 15.329928237058372 12.708554099478757
