53
Energy = -271.09787214 eV
Pt 8.126830578628867 12.210211386802143 7.752657346955904
Pt 10.536318561292056 12.610468182411065 8.524002323187798
Pt 11.019605291721554 6.823424764470141 12.794035952394811
Pt 10.476469019708329 13.297855015742382 11.598892800056928
Pt 9.827627505064346 8.11768433160478 10.80428671265912
Pt 12.478317518112556 16.814705144533832 10.422649245687806
Pt 11.333330512490003 15.417402442017707 8.644914099783449
Pt 9.075256677581924 8.364969387612003 13.851239033763747
Pt 12.091684001241878 11.931974151660471 16.261531150544553
Pt 12.807526408843312 9.833474884129984 14.450219389849662
Pt 10.131928634272354 14.253237948575096 6.63341358844037
Pt 8.349348153161165 10.191752804168006 11.955787131852816
Pt 12.622944612195516 12.947510228203567 10.037802782905326
Pt 14.16388038262542 15.348912345169861 14.4223854557827
Pt 11.291036621271614 7.750548152452583 15.279214333044068
Pt 11.777401436017827 14.258211413800256 15.00779647813222
Pt 12.630894568341784 11.06145745597208 7.634249309417712
Pt 12.587417373541681 8.057194763944985 11.01070358004669
Pt 14.98123391741509 8.986646097735175 11.86455619033989
Pt 11.29929851839042 11.943148372636738 13.664247092976726
Pt 10.966393081049723 9.6168846921371 12.703732901559484
Pt 10.118860688052305 15.903556408213918 11.019617422691152
Pt 14.38021343832187 12.913949362987681 15.30693549114292
Pt 12.920969318307305 13.60774258876934 12.502738582858477
Pt 8.05790227945461 12.732823082303975 13.01533314147073
Pt 8.804507088395646 14.594717753131608 8.986504284045843
Pt 13.457561089679615 7.502684210258258 13.487425840780974
Pt 15.558508790673908 11.485286721017262 11.072691932926947
Pt 8.09269998202685 12.360930513551905 10.40990975462807
Pt 13.086762278978672 11.007235002705928 11.974843593581497
Pt 10.88710814984413 10.991161314017889 10.462819790730496
Pt 14.458212521292722 10.478236135734083 16.308262753331867
Pt 13.831141003141962 7.792381573425684 16.196146347431416
Pt 15.513931907178291 13.496050344212023 12.971780130237981
Pt 15.235977016989503 10.995256683535265 13.688502614910544
Pt 12.824216124244204 13.667182706043464 7.137132126192636
Pt 10.102840251431106 10.15984250524697 15.718332068561137
Pt 15.625659704525809 8.549919484672277 14.45682829686248
Pt 12.095127897044446 9.424064021293898 17.225787846408583
Pt 11.45196125505638 9.027504119765148 8.848938841399294
Pt 9.553044785635823 12.781615248936527 15.301643709145825
Pt 7.855376951281179 14.765627219380317 11.460276968518404
Pt 14.406009782883016 15.605842345429105 11.714917319907068
Pt 12.01119612164137 16.027474725820785 12.935677513820217
Pt 7.948348341930678 10.693464230575493 14.512133287733414
Pt 9.633171457654258 14.888028456613194 13.550631575783223
Pt 14.715686480936283 12.36726165191982 8.667469252931918
Pt 13.9172300545007 9.875947302168711 9.586393832882553
Pt 16.004045774914204 13.955431632140114 10.393651469266377
Pt 13.936303782675061 14.996802496826033 9.123065732460754
Pt 11.321323017749805 12.213066417215192 5.505896847477067
Pt 10.09683932604736 10.46075869352534 7.035215179670955
Pt 8.725740361393024 10.043701479631917 9.307399947675629
