53
Energy = -272.24261058 eV
Pt 14.919452948361752 9.136341612091297 9.448378501385724
Pt 14.250226852912498 11.12257707584754 7.9046963713503215
Pt 12.003307143336016 11.296224655503872 6.413072841508854
Pt 15.469231730304468 9.692006112303167 11.983914126549305
Pt 15.909844606885807 11.540102849888886 10.108006913733096
Pt 10.77075438674632 9.719339793209949 7.9197119171364125
Pt 13.718179357832366 13.318092990225654 6.493143713702355
Pt 13.531354695928815 7.9198223031809505 11.332891502352366
Pt 12.321689944568014 7.845579571445048 9.003904470749584
Pt 15.980298983049234 14.13735606371069 11.05735415192056
Pt 12.052358705065085 7.385143452995375 13.535055177291037
Pt 14.615656873054862 7.910731005908008 13.730864816539231
Pt 14.865490004906832 13.671292020714388 8.800550753851606
Pt 9.657345877384547 7.714792980937499 8.9611836113062
Pt 12.671425730485735 10.23899498426753 10.031937238180468
Pt 11.004875111154677 6.998305912904385 11.117304005151889
Pt 15.60514536387342 12.28611956736797 12.837689074400956
Pt 15.339458062224672 10.36237910050008 14.58674062431175
Pt 9.51236619194902 12.024551025850721 7.6703962837869595
Pt 11.079963389441103 13.780303294942234 6.426584956423205
Pt 12.156634287161575 12.607019640122164 8.840676266975827
Pt 13.135368575679509 10.751206966207224 12.949648350564512
Pt 13.61969019897016 12.455205718411207 11.033004306939361
Pt 11.050909375141842 9.516444564445704 12.08748178564994
Pt 13.656040541688704 15.34920810844907 10.557225627666908
Pt 12.66400539289979 15.133118383416395 8.113206800455554
Pt 14.06477215093605 12.69789861105246 14.938564365165343
Pt 8.328129672514258 10.109126013241863 9.17578920343493
Pt 10.361756403551286 9.100768743346599 14.743286335681864
Pt 14.17882290434621 14.568234810360252 13.018674071861344
Pt 8.673392573072883 8.471347232692715 11.242110465732985
Pt 10.068506259482781 14.37500580492933 8.787525652469606
Pt 11.337870030409436 13.505564074676903 11.395011883412819
Pt 11.291074555415097 16.33123342407316 10.012761795967526
Pt 10.321528546395331 11.349417558169703 10.330088174981196
Pt 12.957555316919276 9.366188348047887 15.148210169866303
Pt 9.465126236079337 7.047536247174541 13.304251287576221
Pt 11.546916083444671 12.529872555317553 13.788915756045993
Pt 8.19002931838318 12.792394849622616 9.941625151460638
Pt 9.513910870366074 11.454595152755028 12.786223764840596
Pt 11.332069372894894 11.154804379348741 16.0238314699499
Pt 12.58912708748728 13.185393965944442 17.014093830601084
Pt 7.300782325941158 10.761350273368006 11.50859805082168
Pt 9.2120714023792 14.999563387394186 11.178673221270992
Pt 11.857538217879709 15.785384414052283 12.525474941765301
Pt 9.78020306315004 14.701286604327011 13.77112242964253
Pt 7.899895767816328 9.155760188377219 13.664029355774547
Pt 12.290803401745956 14.790045954928255 14.88891591064559
Pt 8.820749532749693 11.16471772822458 15.304469397967774
Pt 7.741669287562607 13.335447466295317 12.507903155175832
Pt 10.143442966501329 13.522308669352768 16.155063784309124
Pt 7.773838001892718 13.610554572815943 15.134667423595454
Pt 6.613309177599981 11.438865767444275 13.977171814928612
