54
Energy = -259.01606095 eV
Pt 13.313661138589321 8.227503508791719 15.134962400729679
Pt 15.174703945587941 17.638150331913657 17.249391468178416
Pt 9.339355511674432 14.281173969142015 10.783115711189202
Pt 9.74730203275193 15.604325324521087 13.079619722829214
Pt 13.533340163926436 7.995525972228783 10.468395506108422
Pt 7.530497784994873 15.447735897561014 11.927753223167606
Pt 16.76731077302857 10.981049781076692 11.655678225456427
Pt 13.83037754087259 18.645179588461765 13.289626627088069
Pt 16.047359464129133 17.792920875729394 12.070946476665787
Pt 10.671773434686319 16.979648139768727 15.078496741584805
Pt 17.701167267870723 13.733452455688294 10.099478046079495
Pt 15.441538311180981 12.520725195116446 10.09040763710097
Pt 12.419872904996463 15.275566369971463 14.089511904462286
Pt 14.649709539664379 14.490775370012212 16.84521091647899
Pt 10.912766967737188 12.93302844692589 20.011686913542455
Pt 10.424351541194778 13.167480265419792 17.559029838436324
Pt 15.992273250804956 15.623852362146446 13.651793484244065
Pt 12.037816289983896 12.7561439748009 13.320860891256208
Pt 15.862569883779827 18.008047634977366 14.816435450171465
Pt 14.782148998803764 18.28981810969185 19.578324547208588
Pt 11.308482708317415 13.943009582292765 9.165587925194144
Pt 16.78502347515072 13.319329758838498 15.450851123795669
Pt 14.494114562692857 6.7229993886336015 16.490315038001594
Pt 10.56769256194389 11.384075506038732 8.761830074831398
Pt 12.12553659658473 15.637007400871813 16.892280941238194
Pt 14.448660159188513 13.578592229622469 14.208398613752026
Pt 17.95011305719997 10.981043888583024 16.36811795166067
Pt 11.8045551889408 9.913851687928076 10.589118283899776
Pt 11.81369225887511 14.850064836953536 11.536223426958932
Pt 12.678059620825133 12.968270381795376 15.992133389758376
Pt 16.05154706057786 15.419397492287915 11.046219758480353
Pt 16.6807392132329 15.84498873484417 16.16244795725919
Pt 13.013837299764994 12.052427706910592 9.508886375587005
Pt 19.017150594880334 12.300179895055853 11.701740935223603
Pt 10.076754103872462 14.439241268391847 15.332806228490735
Pt 10.768196085139003 10.355580078287726 13.10390080922876
Pt 8.288004049771295 12.80193876052406 16.183715925972194
Pt 13.777978352328166 16.379463602966993 11.973197468382173
Pt 17.310902952681865 12.828865444270956 17.839900679840287
Pt 10.388525468138514 11.700524934120942 15.26909119679089
Pt 16.024844585059085 20.032630311017193 13.273040326055211
Pt 16.56408172076464 13.295508736306383 12.749874186556193
Pt 17.335799533722927 21.955710275455296 13.115626348049643
Pt 13.098428738955812 8.990876515013225 12.768164567118573
Pt 19.37411108443973 9.655354392806473 14.885504543016852
Pt 18.033309550641956 11.468109756640144 13.867789375739127
Pt 13.776386639410845 14.583785253659412 9.9119571459785
Pt 13.801503489379249 16.109250395911236 18.835980668964748
Pt 13.308369490066529 17.347167203119536 15.402050105834642
Pt 10.582478821889353 12.101626798309029 11.256252763403527
Pt 15.970931478973933 14.798941019504163 8.515785236014484
Pt 12.729524331756965 10.605461199236967 14.871481081676643
Pt 14.463852276818526 10.311463647844413 10.95090180059349
Pt 12.769469139241915 13.744743921367457 18.609846044906597
