53
Energy = -270.47998045 eV
Pt 12.545622767205584 10.868463684054287 7.512361545691621
Pt 13.316038129616205 8.453388790909411 8.496449612610958
Pt 15.107816072555737 10.228022238462142 8.12220386918125
Pt 10.661569668720695 9.000631475851767 7.963085205512047
Pt 9.631886247301026 7.979784660882533 10.098287164558519
Pt 16.822880809325284 12.145569338518003 7.802895458145369
Pt 12.582269173780437 7.536587064860291 10.771899074237341
Pt 9.957102403334897 11.491680556082704 7.724519639941681
Pt 14.312287180582345 12.890581489988287 7.671760120265163
Pt 14.611836743240792 9.259019904144237 10.81913959916345
Pt 13.390477815733156 11.836058029190353 9.882398505472242
Pt 8.132829502061849 10.008668250322547 11.07643504060988
Pt 8.226168354407928 12.134452817959646 9.663368305374256
Pt 16.089997609766865 11.470618829461875 10.217470647284443
Pt 10.666923035348693 6.7320290474859155 12.300274258515646
Pt 9.24949238606285 14.026235069375371 8.140521065480751
Pt 12.519377197396588 8.3614713616974 13.442008969286716
Pt 11.622649458260161 9.855502888559013 10.225486573936115
Pt 15.695545119134616 10.948162615396058 12.657007600759561
Pt 11.822053349832188 13.541528844324617 7.915115706970769
Pt 16.136574225363812 14.041931344987303 9.40910130008125
Pt 8.144583121262386 7.685102736814046 12.34974333268194
Pt 12.967143030628732 10.894621585923852 12.268386435039437
Pt 10.344669139192181 9.368749167848783 12.406579659973534
Pt 13.84013328499488 13.525446949259052 11.711799310417613
Pt 10.817096263870521 12.314620111588308 10.0628088184253
Pt 10.135372663610376 7.933424917207768 14.592142460799618
Pt 16.34440432888771 13.450544300030419 12.07601117575368
Pt 14.072844370531767 10.217381912313877 14.542212388477862
Pt 13.619037442737397 14.90412134577656 9.30936546094678
Pt 15.387029269687432 15.884449066071618 11.036190446431727
Pt 8.81043048584739 14.505856773929487 10.747360789110996
Pt 11.039238003635958 15.501858248673127 9.557154310114324
Pt 10.430884787152918 11.863615249061152 12.643029315726745
Pt 7.818619929089401 10.180764366079014 13.68832945039821
Pt 11.690130831585591 9.829262296134385 15.539659629470474
Pt 11.38650772812713 14.122988219962735 11.836854523648446
Pt 14.981558021560739 12.817006891579515 14.364670439522923
Pt 7.946308511602417 12.433991175614727 12.299161202559286
Pt 7.595467124813596 7.935982396022459 14.953112088352174
Pt 12.272161548755403 12.967690530830156 13.99651250457639
Pt 14.432650720682497 15.389977475798888 13.402867653634614
Pt 12.76315909526031 16.41552230200711 11.38450397999247
Pt 13.154499058787499 11.920715775513793 16.22394012375015
Pt 9.053885936811378 9.912397596959526 15.981025802872676
Pt 10.110553684771785 16.591582128933545 11.820927162121633
Pt 9.172352967432222 14.594411213636453 13.416006524128063
Pt 8.896336389624949 12.34379431470816 14.791814122004387
Pt 13.377015643501656 14.679355207490438 15.655839669498516
Pt 10.490887762303412 11.817988413289399 16.853492647137635
Pt 11.743149532704539 15.86544046015102 13.838630151869827
Pt 10.60828502395496 14.20072333061258 15.587379667963942
Pt 12.039440463406446 13.700295021812384 17.733800619802576
