51
Energy = -261.24193475 eV
Pt 12.682403358211705 16.463304462965993 11.5867076822993
Pt 12.442826672357638 15.171106467845593 9.349227058779327
Pt 16.262284245868962 12.761922732297368 10.346289056652058
Pt 14.153780874199986 13.117305759334695 8.836466352330206
Pt 12.920531953887055 10.984510428063968 7.591335662525367
Pt 12.03452940236112 13.429651453278098 7.358576990389802
Pt 14.64392493059662 14.795379098630484 10.9360469714036
Pt 15.114095601717167 10.640139432496676 9.145595540381168
Pt 10.29160066591282 15.303869015082286 11.037312264518967
Pt 15.753493431996011 10.646728304422712 11.783686296665167
Pt 15.583408198401484 13.092633665147186 12.961744631196062
Pt 12.858606580589644 17.406695290550747 14.02112486775589
Pt 9.9028436299041 14.545889038371158 8.600250127839137
Pt 12.227602055647166 14.034339631275838 12.663548117909807
Pt 9.643178040540187 13.540699526744874 6.178953784438043
Pt 11.450030209127155 12.820974074841216 10.02947076261567
Pt 13.649143595743068 8.591475232172137 8.24156948911227
Pt 13.624630602223522 12.214225800011858 11.422596941741103
Pt 12.344954034524797 10.36224262360754 10.16585283186272
Pt 10.713495476267644 15.978807009961168 13.596017884383452
Pt 15.019537432228866 10.836963761621467 14.355371104878714
Pt 14.354819893549294 8.565209936507346 10.699544960850398
Pt 10.263970540395443 11.360406861163503 7.460631722140546
Pt 15.17272461697441 8.525614626989096 13.135508050879569
Pt 14.335247079357922 15.27129258738551 13.572173254395167
Pt 8.089710767386505 12.586788348185541 8.049196372782948
Pt 11.8322700711813 7.7302712792160735 10.073153818807045
Pt 14.212251864969998 13.190163798676197 15.250544498819313
Pt 12.540445256887661 15.36643435216002 15.560047896954497
Pt 11.021263239717676 9.011654247588854 7.953476996538877
Pt 8.429816954120122 13.50038527475585 10.529847469328752
Pt 8.833778626941944 14.24581629039208 13.036021360101454
Pt 10.3428832467883 12.185784671682658 12.350445435598528
Pt 9.771498472215631 10.802055717458023 9.972463923518132
Pt 12.599194090742339 11.694924633885481 13.765903916027602
Pt 10.376086243819739 13.816094575691855 15.154228992400528
Pt 12.806155353608363 7.51304798677025 12.567571240706426
Pt 13.312362361647427 8.882330541931818 14.854561160939534
Pt 11.458013183052433 9.806993382601728 12.522717268916974
Pt 13.390142544659923 10.96659494295357 16.520088319808924
Pt 9.234483549075113 8.314318334391789 9.901260031276781
Pt 12.22027567203782 13.299883840832504 17.017106191642817
Pt 7.206347580669052 11.143359132934926 9.995732670177437
Pt 7.183258291956484 12.201918489498848 12.402378447134208
Pt 8.777659107583998 11.793422030917016 14.390216386167957
Pt 8.564595776506208 9.89432423914973 12.216193875307718
Pt 10.847085990467892 11.386560166769575 15.902301793505302
Pt 11.194103706168608 7.224788236625048 14.599885607103545
Pt 9.796930379301418 9.396937689585208 14.555989273054825
Pt 10.135364851439244 7.58063931537992 12.216119574501711
Pt 11.489794834673061 8.960264563771876 16.628041680323538
