54
Energy = -276.03769868 eV
Pt 14.68743877432732 8.611569300921438 8.926995179291152
Pt 17.084078485945803 11.620990696704144 12.405631710767937
Pt 15.88144067023339 10.008999495882682 10.728061691114384
Pt 14.953662295089295 11.219564686059153 8.516402244220142
Pt 15.870601662314128 12.812112920325422 10.523307044901935
Pt 12.635284098051523 10.091428565656887 7.777006880098662
Pt 13.18944025281915 12.564169267112227 6.857332097651745
Pt 12.169572334051379 7.977079389671005 9.250575402668904
Pt 13.905316113053248 8.185550331399117 11.511699386948159
Pt 15.360392511897627 9.95213782888753 13.298454469036628
Pt 15.06763599917206 13.83029726804866 8.290696494860011
Pt 13.066621208750268 10.560296421872856 10.36910211730806
Pt 11.863346459751412 6.37110771535686 11.283927751037218
Pt 10.182136555754521 9.621687047156437 8.60126780590758
Pt 15.21252453339327 12.660354450906809 13.892850846272799
Pt 13.616248929350052 12.701537954182058 11.813919476884093
Pt 14.885419049059458 15.288399446570471 10.559467217084478
Pt 10.708401660364949 12.011568948639562 7.728656847401585
Pt 12.6836800860396 12.927713926151611 9.42175359582674
Pt 11.299924696399842 14.491725983031998 7.0764691018426085
Pt 14.194898105442432 8.300288163077646 14.78926825608698
Pt 12.030372235669484 7.639440967675412 13.503010994641855
Pt 14.081451037129003 14.917190051069342 13.045711321870217
Pt 11.030407512953163 9.291761155394 11.316168833411803
Pt 12.72270514651142 10.343224072858664 13.029677160070218
Pt 9.57538859155481 11.472550409267257 11.330310245627876
Pt 13.03875713679853 15.400850515042686 8.720135206286363
Pt 7.7777881660077846 9.14316139808251 9.679372414566842
Pt 9.718430831772617 7.308550371021811 9.900245647838295
Pt 8.453343091367486 11.547147330759472 8.951947873935014
Pt 13.801258604884316 10.931397343686498 15.3596708198663
Pt 7.4162200637948645 7.027592252237441 11.154951697815845
Pt 9.618991426055887 7.322359783473139 12.551633725285132
Pt 11.866192384249656 9.14488229597639 15.646334471518818
Pt 11.26923865818403 11.664485356432515 15.779741022561321
Pt 9.27122062407126 13.976161537965604 8.707671726928261
Pt 10.094134527993507 10.225790087603635 13.706444497499888
Pt 10.621451075896474 16.19616698379233 9.216918169465396
Pt 12.38335684387119 15.870322570176272 11.243814851444432
Pt 10.779710081879575 13.716846490806477 10.859076562960313
Pt 11.255360561399371 12.593191443149124 13.153128435583742
Pt 6.591991109490913 11.263271975277338 10.778411207452658
Pt 13.02601533996744 13.502081013730619 15.027566938361936
Pt 9.588674530998526 8.037503110614098 15.039767008224468
Pt 11.49628005139416 15.240176419716379 13.635770199532015
Pt 7.7931349020226435 9.383567253643646 12.262365105642228
Pt 9.7576449704382 15.978996831682483 11.822519208784508
Pt 8.754546358757523 12.205951965038727 15.379143506509116
Pt 8.040747829586385 15.955933282398055 9.891188584250221
Pt 7.486452445109708 11.930325825183974 13.115332799226849
Pt 10.459193335220288 14.141441049519036 15.795822982952021
Pt 7.70755319143703 9.883200079569548 14.842193888265003
Pt 7.860074398172575 13.622395072754948 11.073682414429356
Pt 9.030330728577283 14.0975277323166 13.498983652605084
