55
Energy = -281.2761638 eV
Pt 7.649735427092594 11.772587525055517 10.240244681942407
Pt 16.25050389717389 12.874692955419226 11.318410492677668
Pt 13.88421517847561 8.717078494792382 13.629269751923974
Pt 9.79650592638147 7.415522958322073 10.85834651415893
Pt 13.868616639589202 13.180777221740819 13.356502987282402
Pt 10.47829789845419 9.264389782596906 15.56276055192658
Pt 12.573539771298131 11.47247919035257 9.226978310573648
Pt 11.113749905945925 13.873303357639807 15.338560036480839
Pt 14.03184088886761 8.830828227101858 10.963229715039263
Pt 10.051255384912146 11.580229361608822 11.023777177487672
Pt 9.60716619289201 11.452887277341771 8.284782265465676
Pt 11.19319969089496 9.407753839330407 12.90315456798096
Pt 7.275173659362516 11.821702559129667 15.511384225056874
Pt 7.318694484780031 11.824933222379563 12.861361316339647
Pt 8.159515473625982 9.674279908623232 14.379932506595386
Pt 12.47112846015022 15.775876130729948 9.025894981447614
Pt 10.074977343930101 15.966581209307899 8.101959706732687
Pt 15.781091881272651 13.34350972324799 8.757648107806565
Pt 10.011575528964432 15.849795784013393 10.707631514047145
Pt 12.277062127345513 7.1462423707681175 12.122206430073103
Pt 13.807368185243268 13.350418106125804 10.685525862526768
Pt 11.928101175762905 7.223499210246414 14.720035580005204
Pt 9.50471388248218 7.627386057752829 13.484705402194999
Pt 11.4338387254736 13.453119899142195 12.59098880232783
Pt 15.353953891635896 10.609441269116497 12.443205923448852
Pt 15.31470047777793 10.861013465734004 9.78635221408461
Pt 8.611154077428477 13.779770394843917 14.420450580777409
Pt 12.391892191547818 11.241412327807359 14.449060312261976
Pt 12.740600175066831 11.200152984847648 11.817244212114083
Pt 13.054176225527648 9.190744050784856 16.17084274800815
Pt 9.736576103763966 11.729082628480597 16.25571516678
Pt 9.913382837976332 11.570346134095358 13.628765786887742
Pt 16.27914255885786 12.701697841190505 13.947878674266557
Pt 15.005987331738888 15.336799972013479 12.474713036695377
Pt 14.87530155416567 15.587229657073422 9.912000414247064
Pt 13.676472800951469 13.365783801008437 15.949149235987752
Pt 12.820090607074286 15.596518746526327 14.322883867476056
Pt 12.482250894488896 15.899603421750973 11.730749802262608
Pt 10.780054424395713 13.611432633153198 7.316049783576989
Pt 11.222983148968952 9.467680974319661 10.272359072236439
Pt 10.242362295107835 15.56358096350375 13.331954288421604
Pt 10.960977101716232 9.153173743141702 7.739790988866199
Pt 8.315784615422249 9.521958565191877 11.742958205755055
Pt 14.855367219373607 10.78424840497304 15.067276016563065
Pt 13.691778677730799 9.277074917091683 8.320970709603014
Pt 13.37497124908617 13.64053252088858 7.7224241095576085
Pt 12.176299634961682 11.574548388636785 17.026710883690452
Pt 12.013924953902404 11.377872099802207 6.767552136140617
Pt 11.288578629051786 13.620291785653409 9.966201987458287
Pt 15.436161143349393 15.013261599965764 15.010854089139444
Pt 14.718691009787442 11.423636394987108 7.215378229524003
Pt 8.544335034419557 13.922371235903489 11.779087943409376
Pt 8.594847645537577 9.25120791176157 9.183434057216001
Pt 12.279474858822432 7.324077476022687 9.460403356421923
Pt 8.722148899993105 13.919869316961293 9.12858067902687
