5
Energy = -17.85469062 eV
Pt 7.975518902440039 6.69520403662102 6.743341365314756
Pt 9.449142091580194 7.668079404648043 8.449632173485886
Pt 6.330790712143344 8.464591961676847 7.204804928706054
Pt 9.94951837392788 9.321613782755946 10.241727314948506
Pt 7.841849074369589 9.397329968759427 8.907313372005964
