53
Energy = -271.65720563 eV
Pt 17.078510975672234 11.223055209248201 8.971287942096986
Pt 17.441971864813997 13.52767863259374 10.146216799496205
Pt 16.45419620394028 11.391488203521948 11.561252040484339
Pt 15.740749754596738 9.30762499014727 10.10564040036082
Pt 15.443686597662376 11.803819400514952 13.987659111522524
Pt 16.086796493319422 13.930801968375683 12.399573949060901
Pt 15.27251321530183 13.286327188476001 8.608743437030554
Pt 15.15878957537757 9.424255789779616 12.730536926744593
Pt 14.323761987472082 12.744520428625558 10.939938067661128
Pt 14.631932066317423 10.722512666322457 8.198560538406571
Pt 15.665477251895087 15.440243300221317 10.166557806466525
Pt 13.477272752628132 7.557092380973356 13.596735607694098
Pt 11.79774907617488 8.078822412768606 9.403472692800815
Pt 13.53212751862417 9.918405006538412 14.81594331689624
Pt 13.837911272276017 7.827699392583254 10.960325878579233
Pt 13.084045948965638 12.276395831259778 13.124555828316993
Pt 14.349500469370252 14.34446036797937 14.242351036836242
Pt 13.256781881553495 12.343653634266438 15.768269672698748
Pt 12.314662999177449 9.865376807431499 7.533847730397361
Pt 11.391972469192785 7.258310684541173 11.951902115719202
Pt 13.83366118620378 15.60336634273348 11.924187730986844
Pt 13.15199069242172 14.787341074598567 9.379255114836663
Pt 11.208350580330539 8.440961720896437 14.443503236522568
Pt 12.769047606195215 12.687267118400914 7.7302499423510564
Pt 12.642557379724762 9.893776050584068 12.078926768729579
Pt 12.665586962269119 11.192799423410767 9.818036402042711
Pt 12.752707613430053 14.977832172770842 16.17350044599402
Pt 11.163331425927087 10.728515834484956 15.7920553908301
Pt 9.305932746000222 7.804784360033581 10.311270217878853
Pt 9.928622552486425 8.820762266633247 7.7223586240985345
Pt 10.809714904603235 13.343585282404437 13.550566138619786
Pt 10.50107721886219 10.100559398507217 10.574693761919065
Pt 11.996656120653656 15.654059428430408 13.774730890038436
Pt 10.781525787463154 13.352712479689364 16.129193921801612
Pt 10.400555172910035 10.74314480858132 13.20801754323799
Pt 9.092761681171696 8.32718701080795 12.854733302267515
Pt 10.69013197220859 14.001737439947151 8.786033704838527
Pt 11.672221227571846 13.241353715293943 11.07855305232882
Pt 11.277676817708873 15.814221005508431 11.267732862319317
Pt 8.899724598539253 9.37338323796226 15.289390968730357
Pt 10.249994610544107 11.49937489224477 8.0060257877969
Pt 7.073927404809147 8.851429187162667 11.225822911129587
Pt 8.245085538561383 10.146728071872268 9.16592161589326
Pt 8.734589960997582 11.977787173289338 15.183090173685926
Pt 9.299109426950613 12.24931230481268 11.394472850358083
Pt 8.557968847648885 14.529433025101346 15.39289696134832
Pt 7.61034333271699 13.398168878556712 13.12511534482335
Pt 9.373757440430506 15.461849946219436 13.123808830355845
Pt 7.624115847046401 10.554693488715879 13.262318745435568
Pt 8.92156635954835 14.907000925671163 10.596672589747355
Pt 8.300642428155742 12.86832839315533 9.05149087863567
Pt 6.766667925429387 11.391551709983851 10.96308504263413
Pt 6.529345829108715 13.921167801601763 10.799311780433477
