52
Energy = -264.38079246 eV
Pt 16.19683089920214 13.013241260998582 10.953439290914643
Pt 16.03969639060983 10.49328987156317 11.724217344535225
Pt 15.330069016119843 12.50849117161651 13.448729198958633
Pt 16.751127283737794 10.997620165375594 9.297250521237665
Pt 15.676787483410626 9.92973026845938 14.219215651959825
Pt 14.510874020014121 14.653173195133474 12.081411759783258
Pt 14.732558728285149 14.48360182657858 9.35403092222498
Pt 13.791404848812748 14.39904566209308 14.615680629031456
Pt 14.96135803802372 9.132272852626471 9.657971484281202
Pt 14.634458143690871 8.324745375550298 12.410301203451397
Pt 14.299935499624999 11.866137679570633 9.567792154089364
Pt 13.899244122425557 11.405536461468 15.386356436602602
Pt 13.032075323510977 10.702552926909101 7.583704332976941
Pt 12.256653391084338 12.981849342008156 16.571616375061986
Pt 13.25305244666425 8.912310938335377 14.604983687037487
Pt 12.768034423710121 13.391384909847945 7.845128656993412
Pt 12.648949622816657 13.051181286090072 11.322901990529937
Pt 11.887366402947249 15.344392554505626 12.655890122143786
Pt 13.378135200188938 10.805035191243258 12.477528136173975
Pt 13.498615090351034 7.145173229121643 10.407717380734326
Pt 11.178783838122762 14.989326909319772 15.233799140702319
Pt 12.329854814743207 15.233139362699676 10.001300732113604
Pt 12.41941809435234 9.830491213357634 10.266526499543183
Pt 12.069519797533877 7.709393349531152 12.478257504351307
Pt 11.479175949647418 10.369855572082026 16.07029879340389
Pt 13.083660366031182 8.076250211256399 8.027300978438332
Pt 11.025668816420925 10.41592463233238 13.535783859799317
Pt 12.040902935233428 12.775058156707024 13.853812369538042
Pt 10.800941533179802 9.301767289098345 7.979432796668168
Pt 10.652252555760493 8.119700272823708 14.609406335387202
Pt 11.17350650834493 12.024825597615298 9.484221747971283
Pt 9.847992469791075 12.632804564221438 15.447979954981422
Pt 9.890026454519584 15.15750794593742 10.933927446270397
Pt 10.378277866182811 14.327478232906655 8.446481087363136
Pt 9.493969300142199 7.401052825235454 12.189388266452326
Pt 9.33498541050307 14.485434738529568 13.438117925836233
Pt 10.666547496373555 11.79009564408466 6.980732034900512
Pt 10.899836736185993 7.532075018551042 9.913826930790444
Pt 10.086938925597766 12.397333463817324 12.027899195048262
Pt 8.947284402810014 10.172941248959907 15.064296633662616
Pt 10.0061938760635 9.862756279286353 11.29942605975005
Pt 7.931209778703748 9.396509291149975 12.786697743025757
Pt 8.67256853786479 11.63643365626002 9.943324554975549
Pt 7.965045165493198 12.118004242607745 13.554714068554173
Pt 8.462129979237313 10.260294649078478 7.779107277222502
Pt 7.91777278657442 14.939003998216076 9.176765313339601
Pt 7.65081809910284 13.767991250141383 11.524618374519903
Pt 8.349396418135631 12.893588492584746 7.5668296155749
Pt 8.361495980786714 8.503198064052954 9.854477615950962
Pt 6.6221855289791165 11.16762611664649 11.459580345213972
Pt 6.242356648810452 10.050043001795652 9.095936926021485
Pt 6.386952082845069 12.756272740930516 9.336225600693083
