53
Energy = -271.80685293 eV
Pt 14.566471574475026 13.938956981649552 8.32850433911269
Pt 15.152219400286466 11.368716231975615 8.699306784443825
Pt 13.145714205602191 9.621080035624452 8.0535372537681
Pt 15.480171077212253 13.255692252933446 10.749888094510618
Pt 12.959072771537949 12.158482050658202 7.246830838710568
Pt 15.085513988489259 8.706365098279472 9.583163721522364
Pt 13.457436653034248 15.004557220869584 10.461942659403295
Pt 12.049746286612063 14.624558355159403 8.176995033005682
Pt 16.67987255714576 10.766094057291406 10.853535966876361
Pt 11.142322455462232 10.399549898661272 6.601762683895989
Pt 12.787199005396563 12.30147259423499 9.869558722657068
Pt 13.265059758472185 12.483374908602183 12.47192693368288
Pt 12.756067733760629 7.35967082505001 9.28766806743449
Pt 14.522788813615563 14.676257829873455 12.908039582467952
Pt 10.305447188849119 12.70753043637685 7.4227305371058145
Pt 14.153551580932275 10.46999016540488 11.083751754201165
Pt 10.912634203739634 15.859839159595063 10.269820492348122
Pt 15.815495136409439 11.932571055146845 13.05553525704501
Pt 9.424641561947162 15.045666632812749 8.167156936817642
Pt 10.57257813652982 8.602919839377869 8.46316597669674
Pt 10.475481968380507 13.278222888402382 10.166332371631052
Pt 15.54891493007106 9.052984867869574 12.690771618873617
Pt 12.095034707915529 15.687271808241704 12.615315085568719
Pt 8.806137543119812 10.450546291265773 7.7294284736824475
Pt 11.700173754187784 9.895773353764229 10.460784649023651
Pt 14.297323356329434 12.905815310864035 14.963140781272998
Pt 13.259459334459981 7.690918947054428 11.780821259914042
Pt 10.822873528463196 13.31330326728121 12.646858900075483
Pt 12.475776672756185 10.034667361924303 13.037194730405542
Pt 7.884145785718452 12.916804421843855 8.593315628126643
Pt 9.424022775298987 11.00932919430543 10.220741813437753
Pt 9.465777107813258 16.076872097918482 12.465755454018035
Pt 8.313777220014954 14.652829336725055 10.578331712987124
Pt 13.771618297977513 7.765796007086776 14.305885158935132
Pt 10.620392430811826 7.571554828589395 10.979272271373087
Pt 14.547487017233351 10.273540572374172 14.811468720171499
Pt 12.93016346253211 15.121265167010842 15.060053060287464
Pt 8.343083676408922 8.699456031252346 10.036795273512098
Pt 10.032709423160506 10.871416562285543 12.644300527376034
Pt 7.2991920559211225 12.258075065937271 11.144791610223063
Pt 6.68020453220954 10.582750021401846 9.246771447414755
Pt 13.21863625390896 11.434664256052544 16.853023758770934
Pt 11.135083238256211 7.8706808003478494 13.651983895425436
Pt 10.270976015431556 14.884207160475096 14.656896295531773
Pt 11.7524969286496 11.894492843716844 14.646042088210706
Pt 12.125482929972812 9.239620845512933 15.750632802013314
Pt 8.252079772051921 13.762348928913823 13.138518786787229
Pt 8.801447227651792 8.60319310395184 12.626985377713234
Pt 11.401519728557664 13.502345082147274 16.558298850874202
Pt 7.675843792894084 11.164505232452663 13.491218066733497
Pt 9.531697312991422 9.690483955988816 14.946351031778335
Pt 10.60143766052023 10.963631654264391 17.059710420138853
Pt 9.18340827293317 12.408196345067491 15.295632385899827
