52
Energy = -264.73019754 eV
Pt 10.16956623314161 16.932321234761666 10.549929154748028
Pt 9.364743206091914 14.638616579395551 9.432881045831703
Pt 11.959160576741766 15.22372769793743 9.459566201458571
Pt 11.038340780539807 13.17805449537438 7.839778552002052
Pt 7.102552604602121 13.598217467422236 10.46830467577619
Pt 5.94371069447801 14.846398494120452 12.436538962153486
Pt 8.226318392270084 15.75952482506772 11.702603949334245
Pt 9.860538905508195 15.670548690494321 13.888634228798958
Pt 8.600393174985193 12.303759615644319 8.760546633673691
Pt 12.338936009065838 16.336102254758025 11.910030131646268
Pt 13.686858785076378 13.46707671181906 8.644738923657018
Pt 10.624597124528297 14.3440506074549 11.798133259170315
Pt 6.301700925741432 12.155135405008139 12.711376829253501
Pt 12.84803509787522 11.109325929488337 7.8422234509281195
Pt 11.454839925536541 12.370101902844745 10.242759639317425
Pt 8.87061489139582 12.467680201529648 12.127129195420595
Pt 14.308507484532676 15.061747584059786 10.71156363006391
Pt 7.088057484893786 10.910515306604738 10.525928500216924
Pt 10.418885005762089 10.532832015941272 8.026882171871454
Pt 12.325902574650492 14.73701026378567 14.03416154240434
Pt 7.878515776620725 13.98305014724961 13.969110342246866
Pt 10.287337907744897 13.114493285931765 14.735105131867543
Pt 7.932426574607944 9.64653086041782 8.399512834086355
Pt 13.172148426483828 13.173642148715777 12.045149191267875
Pt 9.745315151403389 10.425277990571185 10.667494777941284
Pt 15.851138147428516 12.933581272825148 10.189152248372846
Pt 13.758593333131705 11.18321304472096 10.487597194823584
Pt 8.070372930607377 8.462696017628065 10.918054391778233
Pt 11.284384999289784 11.487048107032933 12.785120363704022
Pt 8.285188457815414 11.340642363026705 14.419208825308385
Pt 15.471544223425921 11.39663673340413 8.157879999373213
Pt 10.053713676310531 8.205040825965375 9.074611094796895
Pt 14.756403571042279 13.685466968414012 13.96299463260372
Pt 12.065895314860816 9.406228999512862 11.317839923215054
Pt 9.264604031206998 9.282786228959331 13.151375436064892
Pt 14.227379453967757 9.121110521958283 8.834547060405164
Pt 12.820642831861896 12.37822854308503 15.202575128575429
Pt 16.40094913224573 14.489977385519758 12.169036524746067
Pt 16.49409827226281 11.891201645099569 12.570140805231597
Pt 10.695029992732286 10.441716761931094 15.102871643660103
Pt 13.696824461123873 10.507592600452055 13.044988127128088
Pt 10.355731256892843 7.356694139534213 11.67219156899513
Pt 16.09617186381507 10.142136666084065 10.569849756314968
Pt 12.400707621111506 7.41174827645044 9.705215191053705
Pt 15.31097519901033 11.3640664582904 14.923432675455583
Pt 11.587269470574938 8.21504110142622 13.91397667620047
Pt 14.475575677788834 8.112768053960975 11.309509678218594
Pt 13.156928126328078 9.704418232015234 15.483732725533157
Pt 16.091905341969564 9.368844350671909 13.052507245464257
Pt 12.71938785229798 6.451273764820252 12.275835028022737
Pt 14.199740131460258 7.620780988665814 14.001833785378395
Pt 15.721806649322476 8.922194965486453 15.625893941648522
