6
Energy = -21.37114524 eV
Pt 11.719453276950142 11.724762780877963 13.43456524566384
Pt 10.716486568096165 13.252786254099952 11.756424328904357
Pt 10.352311104608079 10.614209231812453 11.687485205760646
Pt 10.804587837799733 11.930105380723932 9.583900009393878
Pt 10.73346943020698 9.463437377089694 9.565516892515891
Pt 10.143644532883417 7.5680085102861865 8.359038440936711
