6
Energy = -20.85127684 eV
Pt 13.190235810507074 10.013297131802839 12.389829424548944
Pt 9.066362333106094 11.308948670996246 11.01961816241654
Pt 14.005049183333782 12.170134624760923 11.301094326133468
Pt 12.541879635867096 12.288510232690632 13.356792652491412
Pt 7.907525397129104 11.116355789507464 8.987935123371598
Pt 11.443831138307406 11.44570523825411 11.160571694519696
