6
Energy = -22.26054868 eV
Pt 7.012527382569306 11.047159213913652 8.862879776944368
Pt 7.513132946289453 8.671881796634857 8.390940770937659
Pt 9.384624727466944 10.384107540691584 8.90356233238819
Pt 8.955835362756604 6.877435925260047 7.2162076453907655
Pt 8.53420203061865 6.745571477631922 9.704324388857776
Pt 10.497967219450404 8.172133715019296 8.820374754632233
