6
Energy = -21.86761895 eV
Pt 10.962101655314513 8.351237517922632 7.990881630465966
Pt 10.569566156687682 10.357099287258208 9.44570306447249
Pt 10.28552766768719 8.008902788803493 10.420096200141423
Pt 8.549416040438045 8.902414443225737 8.747024656445864
Pt 6.684910573492664 8.114838769732923 7.354808548290583
Pt 6.208742368150162 9.52577165482688 9.301750361953804
