6
Energy = -21.39917128 eV
Pt 9.359188370604912 7.871948816920799 7.443781861479551
Pt 9.249917015419175 6.3510945274835455 5.677026773035246
Pt 8.990408610442588 9.48135210664689 11.250253829943857
Pt 7.874101522598404 9.22610017547677 8.86328477544549
Pt 7.096220221063472 10.878424624096883 10.558519836167022
Pt 10.420802841357762 9.188325483710985 9.20566478998044
