7
Energy = -26.94987303 eV
Pt 10.181433573858945 8.94744319778444 8.61327529992271
Pt 9.103634354329394 8.76836381506701 6.324267065006736
Pt 9.403838322806067 6.584149552277245 9.096588546897518
Pt 7.5309976595235195 7.091111188354655 7.438421503311007
Pt 7.954191205250696 9.794732111892614 9.508282839866592
Pt 7.1450189584041865 7.433332963917388 9.942632691482215
Pt 6.845165618491324 9.54514686337054 7.240811746176998
