7
Energy = -26.16337189 eV
Pt 8.241294240750367 10.362293557937377 12.807994249864135
Pt 12.227337179696331 9.822632670244364 10.100462760278091
Pt 10.062368641471052 10.675659363970077 11.224592336951764
Pt 8.06311222907511 8.91039195608033 10.761127366540041
Pt 13.34358969587359 12.031913716380716 9.63199902424012
Pt 9.880877656279534 9.245391182152423 9.085812113739062
Pt 10.92730091905702 11.670306376670236 9.008546187729685
