7
Energy = -26.81377033 eV
Pt 7.328619092112975 10.198308915441638 9.567297478483356
Pt 9.917533955177301 10.632689421165212 9.416609482697979
Pt 10.36138910666841 8.069152895820675 9.36559504309698
Pt 7.775366581395888 7.613135510020749 9.500389245530648
Pt 8.928280013885054 9.097622772650686 11.331629973733413
Pt 8.739408218735417 9.151395456173933 7.599961389812793
Pt 11.283325441263075 9.571623736278518 7.454061401179769
