7
Energy = -27.03277189 eV
Pt 8.33356582641214 7.847398931655684 6.820508065055746
Pt 9.061213601894018 10.092789148199921 7.801114741040443
Pt 6.85219657674608 8.984841931115318 8.521035776771821
Pt 10.425215981178326 11.402303064340625 9.442804958213978
Pt 9.866004947708383 9.035529656120259 9.883911834575313
Pt 9.455497845060787 6.747380549647057 8.825457424133912
Pt 7.803649302783648 7.687100800704515 10.502511281992419
