7
Energy = -26.29853617 eV
Pt 10.484767222896568 14.800515488022683 10.757136624968235
Pt 10.220975770980056 12.361458461248308 10.956316026274477
Pt 10.490862380016054 8.03448345166465 12.876746772087973
Pt 10.589279722122917 10.444064848026168 12.390794526312904
Pt 12.63579831441655 11.33591112999412 10.980048396449751
Pt 12.52049765824266 8.9655013951815 11.66586366543038
Pt 12.322865527881513 13.434793727641031 9.730351907225284
