7
Energy = -25.0999473 eV
Pt 8.960285590040806 11.198031199688314 9.004379807423879
Pt 11.035058973979677 11.051048533274528 13.243207117915167
Pt 12.683871824950527 9.983166402720663 11.54884867193276
Pt 12.571064624474607 12.566649775693405 11.799606319522459
Pt 13.590538202485908 11.1234272807538 13.678300487494537
Pt 10.593157889989712 11.256186210313642 10.685638945870291
Pt 7.6615096577808455 11.065541319527265 7.071125708981734
