7
Energy = -27.47249399 eV
Pt 6.69739820644989 10.024951224312534 10.507787729515584
Pt 8.999991988420344 9.364963885027187 9.960954588585997
Pt 11.11607357131976 9.483620570355626 8.527932876484137
Pt 10.61165992995376 7.370393271371814 9.79379925584103
Pt 6.919555042390415 8.963237934706187 8.324552480473796
Pt 9.288534588310464 7.893668858849465 7.671886072832315
Pt 7.338298423931878 7.870676006153448 6.184598747043776
