7
Energy = -26.1919842 eV
Pt 8.70006645209821 9.9728097484715 6.99769001844982
Pt 7.44555201013908 9.994685298262084 9.285519376687105
Pt 9.827744109593102 11.069750555602042 9.07450880385664
Pt 10.749138668364312 8.819233534436181 8.098657004195656
Pt 9.493143360603094 8.8344252229576 10.401616277320628
Pt 8.371269124469837 7.745564218863648 8.316199648230686
Pt 10.132999267832703 8.300051054600484 12.566972945004677
