8
Energy = -31.08772781 eV
Pt 9.539975775968026 11.214362072354978 9.758232636928188
Pt 12.145952471258802 12.056681842831514 9.662508958639403
Pt 13.518896495555646 10.483488242505892 8.309622354733538
Pt 11.548775536680937 9.511654291704465 9.522454514472164
Pt 11.23483132685114 10.958432124273079 11.759363997694404
Pt 9.530555085816497 8.918930913084303 10.98876095557167
Pt 8.443833383824346 10.976980157239945 12.113765233029405
Pt 10.109356369728568 11.763292646981572 13.798761460899355
