8
Energy = -31.94436074 eV
Pt 9.291808090643876 9.079651019777698 11.16783839376201
Pt 9.898261241642855 7.930926911657157 8.916743725348327
Pt 7.718421379381241 7.310402907538876 10.190126889678742
Pt 11.008253146341639 9.693223894823472 7.373662026020295
Pt 9.430866984890727 7.950411416627859 6.357281039612091
Pt 9.136256249008726 10.484048896940138 8.909707486895392
Pt 7.570687324646604 8.707917915073756 7.922221212932309
Pt 6.956115163755715 9.854086617872559 10.173088806062596
