8
Energy = -32.25002733 eV
Pt 9.630428347255686 11.220002126393682 10.957476428723684
Pt 8.946256795729724 8.89698991042371 10.565097348890934
Pt 9.35845567594794 6.502090571495296 9.77624616428751
Pt 9.527711688718842 10.524359346974695 8.579912746781039
Pt 6.993187485617075 7.475021789473383 9.77533145667549
Pt 9.35915045626187 9.854047779007022 6.126699244555863
Pt 7.615271201302211 8.873724034967145 7.749933860970895
Pt 9.899095095139412 7.983321187237578 7.798859495087349
