8
Energy = -30.66334614 eV
Pt 8.047723735930756 10.575008100974129 13.603410225568368
Pt 13.452369759557325 11.252901033703091 10.73044381614331
Pt 15.053230284820335 12.724066702864821 9.571286522370468
Pt 10.436785886263818 11.303784004795997 13.445356092589774
Pt 12.718614905451476 13.547779392065816 9.893188257858297
Pt 11.017997906048151 12.232441299914923 11.075538208152352
Pt 11.837823306679851 9.799843680226576 11.866907153406155
Pt 9.26077073737408 10.365429059570994 11.408228685060353
