8
Energy = -31.91519085 eV
Pt 11.089640376427713 9.913412038680933 8.759442620466311
Pt 11.301760082481655 9.088883003594947 11.208430833064492
Pt 6.7485786937309165 9.998794588490794 10.824919157787495
Pt 8.961588586228924 9.2606362004339 10.098698363192408
Pt 6.921615088814524 9.329755825939541 8.476743854070543
Pt 9.323971752343303 8.583455371772532 7.4375505205490775
Pt 10.65151705473736 7.444310877629937 9.31429328819531
Pt 7.2600231252496625 8.639446853471343 6.1386161226886715
