8
Energy = -31.58653458 eV
Pt 9.609969617547494 9.670167024592363 7.4568203161643725
Pt 11.393633168152709 9.890448616746996 9.338174179771428
Pt 10.030282806984337 7.741516545988177 9.096237686001032
Pt 10.046772980359318 12.0376919364959 8.593286291164777
Pt 8.76666394189301 6.20908755158051 10.587224391779735
Pt 8.292324407852563 8.648148830051118 10.627444383101954
Pt 7.838429791823047 10.614190862683385 9.037222079744614
Pt 9.610585811361428 10.827484964625688 10.918443869713519
