8
Energy = -30.57057117 eV
Pt 10.179893253974665 14.300397796500544 9.62941509485169
Pt 9.509591489116698 10.82227692160056 11.350326804644164
Pt 11.175952484237063 12.239687338118124 10.043796320840304
Pt 12.1866438194498 10.503947865281823 11.830209676674022
Pt 13.39644324792119 11.066588767221301 9.598317803796869
Pt 11.267088832677697 9.582737389078927 9.6372227668146
Pt 8.239347190446704 9.09893119341236 12.608473011652578
Pt 10.528704027169423 8.4680067423476 11.891884079539524
