8
Energy = -31.4149819 eV
Pt 9.886036439603119 8.903756308138231 7.089344384928039
Pt 6.531308020396881 7.513588151861771 7.089344384928039
Pt 8.903756308138231 6.531308020396881 7.089344384928039
Pt 7.513588151861771 9.886036439603119 7.089344384928039
Pt 9.886036439603119 7.513588151861771 9.32800007507196
Pt 6.531308020396881 8.903756308138231 9.32800007507196
Pt 7.513588151861771 6.531308020396881 9.32800007507196
Pt 8.903756308138231 9.886036439603119 9.32800007507196
