8
Energy = -31.4910837 eV
Pt 6.980424954404636 8.156491974609661 5.323494972905675
Pt 6.351193987726254 5.820125485897128 6.159556258062534
Pt 8.714732312757747 9.432995916263295 6.873444656533483
Pt 8.85342014675177 6.813250082286284 6.5383175764684385
Pt 6.486816385424661 8.419050716684286 7.842555766731737
Pt 4.965339408898978 6.431034113696016 8.244412109718184
Pt 7.389241208336794 5.642611518928942 8.568366571235254
Pt 8.751730244241909 7.777338840177135 8.942750736887307
