9
Energy = -36.2590969 eV
Pt 10.142489036054567 10.878224495570578 10.92710762483037
Pt 9.441195087518963 9.976117481293832 8.680353507477566
Pt 9.337546492755909 10.046926066410421 6.230149577290502
Pt 10.143434900993121 8.253534712437395 10.583942713088593
Pt 7.880420641009472 9.496554931216448 10.77690783162586
Pt 8.07577194694529 7.906623964017931 6.100135818166165
Pt 9.622811566745064 7.425778534725169 8.102743413701502
Pt 7.130165912151126 8.77371556732728 8.326308756720618
Pt 7.9042134744902945 6.939709529853873 9.984865274591126
