9
Energy = -37.18816367 eV
Pt 10.896305060839076 10.268149273761408 8.72404493307799
Pt 9.62412373819052 9.598549957463923 6.62819959492018
Pt 9.829011251285305 6.01386878030164 9.884058800145231
Pt 10.963967519857757 11.407287157931504 10.94311967307782
Pt 10.383195025760825 7.826120575065156 8.267721691953716
Pt 8.851310921313164 10.381559943154562 10.148934824767673
Pt 8.320048074319269 7.968828643062409 9.671844193478513
Pt 7.51016719684519 9.775136748584707 8.091853002391582
Pt 6.405538455176831 9.544166164262496 10.423890529775099
