9
Energy = -35.89302085 eV
Pt 8.626649239730888 9.511697237420035 7.2480133562866795
Pt 10.925587018462856 8.23059345588718 7.275666438359675
Pt 6.729631540435872 7.853520461374578 7.041372788888175
Pt 10.766658858240255 10.741181417714936 7.997221157889858
Pt 8.980968559363731 6.874898136439043 8.155096558292302
Pt 6.763576157663263 6.091589646789102 9.104889972020153
Pt 4.929824367832374 7.938067283890153 8.862524897956623
Pt 7.319573552150926 8.627310059722253 9.561117100642347
Pt 9.817899040626397 8.991510635269291 9.614466064170758
