9
Energy = -37.55893451 eV
Pt 10.848215610186982 8.486527664958306 12.543090293166074
Pt 10.617192709509174 7.4924228760846745 10.320903144490064
Pt 9.714099505541169 10.50832606779105 11.752144267106527
Pt 10.498102659633858 6.53421416740581 8.073604677022377
Pt 9.52357642513911 9.52059809552395 9.526889452759132
Pt 8.515817314173077 12.498210286328447 10.976346400000788
Pt 9.395153478802857 8.56912169304407 7.281629423481272
Pt 8.377334266119894 11.53344700129857 8.737195904343967
Pt 8.221335246069513 10.567959362740618 6.499023652804884
