9
Energy = -36.90308021 eV
Pt 11.169024788319666 9.53268940480205 7.826903643251105
Pt 10.973845911191336 7.552265222398365 9.383294270725639
Pt 10.09754827979598 11.216168632530877 9.318396926624299
Pt 9.091714657478235 9.0296647407435 10.269711524509646
Pt 8.693980484104163 8.778483516565348 7.735075358512975
Pt 9.139554470508862 6.291107315455176 8.171088977713815
Pt 7.755857807406353 11.06271932648575 8.386159132717061
Pt 7.228721742939955 7.504390055464352 9.40241239121484
Pt 6.662375683681002 9.845135610980265 10.31958160015617
