9
Energy = -36.35578312 eV
Pt 10.207814959059927 9.609586532669045 11.655515031526724
Pt 10.290022993663747 10.042676492167882 9.021022756775903
Pt 10.600805150839701 7.705838190687047 10.06563241717752
Pt 8.148548883562174 10.247681098741456 10.31676179785307
Pt 6.900162241469431 11.384209700579783 8.403885281638628
Pt 10.39375561180052 5.732627591983114 8.608718958322132
Pt 6.986308171099012 8.82727357180044 8.472745796909596
Pt 9.147657496204134 7.70746346598058 7.853029122730067
Pt 8.71530112350391 10.133172610217189 6.992864445791625
