9
Energy = -36.26056466 eV
Pt 8.55352876682278 7.7380128189432815 6.969590540538868
Pt 10.920093575272803 8.598586835224065 6.354697576514615
Pt 10.3461142337121 8.487105580836422 8.85718268628443
Pt 7.031721090307282 9.003987944699984 11.066822591434788
Pt 9.148265578704237 10.29236698150439 7.211809465437177
Pt 6.939652667011211 9.317382047159011 8.483322461378641
Pt 8.848703979775228 10.478761915053086 9.781568859303452
Pt 9.591247942287273 8.355476380502491 11.27853253713528
Pt 8.055202971439275 7.162850593411107 9.431004087304819
