9
Energy = -36.24927955 eV
Pt 11.139556744853682 10.602017955389679 8.897848061703176
Pt 9.005725792394934 11.875753835559426 9.671933275692895
Pt 9.636318483898803 7.104564650287888 10.241808578613533
Pt 10.921914022161072 13.05779090825736 8.58571979608848
Pt 7.598383572560187 9.76088676179515 9.43451778206785
Pt 9.63503386240801 8.631466034565346 8.18537185047393
Pt 9.711230467739165 9.668877017997994 10.914717562318835
Pt 11.892242847812012 8.348908962602708 9.806263701443404
Pt 7.652829376239389 8.144476543559698 11.44599413498055
