5
Energy = -6.19728016 eV
Ag 6.862537947671528 8.896535570024426 10.827464298711572
Ag 6.118398313469904 8.907675994096161 8.315012646515873
Ag 8.07127692350644 8.147135826049754 6.681839085844846
Ag 10.563460598650298 8.943332492709722 7.568691742917848
Ag 9.910732603940962 6.447510518788408 7.855812390810187
