31
Energy = -64.88240695 eV
Ag 10.478453360772715 12.19211966145083 6.379603260389371
Ag 9.42108337217961 9.609336335880029 7.339209846553257
Ag 12.17363483563358 9.976421412324086 6.957583216462241
Ag 11.345859968635802 8.51992690358352 9.282480970577252
Ag 8.264659075740981 12.065604644409031 8.150262120228362
Ag 8.791672732801901 9.375694649581911 10.066983717256484
Ag 13.022843159989849 12.620052264194463 7.692935989426644
Ag 8.521718046909546 11.976546375139153 10.989408648168082
Ag 10.762524894185326 11.33033689696632 9.090275544874121
Ag 15.218173282193325 12.427431035043185 9.678058429377437
Ag 8.085427820631535 14.439703997554881 9.649914938352138
Ag 13.51147545694915 10.337340167735528 9.400371028864415
Ag 10.43863971503214 7.899526670051682 11.876259268161617
Ag 8.61751003865382 9.754552570027187 12.865800110906008
Ag 10.651215563754251 14.080003722989153 8.547894005214054
Ag 7.842780182302469 14.348847837662719 12.461761043885456
Ag 10.345451731208643 14.192432475462022 11.344929872013994
Ag 12.648603335572364 13.075069131732146 10.420726102479298
Ag 11.196277300035131 10.771752784420947 11.82205706747666
Ag 13.132167887507531 8.580708525237652 11.535315114246773
Ag 9.401534034798095 12.320718119325441 13.659756329227758
Ag 15.748073101307357 9.493650010634001 10.978340711685302
Ag 9.507802435685148 7.631544045861422 14.48712332867809
Ag 14.11083215284868 11.357988984518487 12.133593999326122
Ag 12.213519228384786 8.24187449286353 14.170704097570646
Ag 10.24617595195775 14.876590611429368 14.126271570716856
Ag 10.368179152536287 10.153717144661087 15.147356756004358
Ag 12.263020959785974 13.144018971352468 13.213229575864503
Ag 14.886028222579563 9.050249353919515 13.65296571446583
Ag 13.058488409557224 10.893101834058884 14.68229775395549
Ag 11.237711670794479 12.750765452261666 15.766388008407175
