13
Energy = -44.91951389 eV
Se 11.564909956623149 8.863134548487022 6.309756723148473
Se 12.820706945680088 7.645007276331942 9.757763829279552
Se 11.64130080065794 11.178764743095693 6.594960537090352
Se 12.28867339272679 9.232935823601238 11.416951859322726
Se 10.964706982003424 7.722462638559814 8.295742563346531
Se 9.369898771199905 11.936496686696744 6.77768803135812
Se 9.861588637566827 12.611807369730993 10.579222060405298
Se 11.25515884207188 8.03003483050133 13.169835075037836
Se 9.593800295299184 13.57508232364549 8.434274847707224
Se 7.781597951031534 12.586050527735823 11.693711006722694
Se 9.023956876403739 7.525162210091998 12.586131682901568
Se 7.541050808101342 9.179772357651453 13.387496756982902
Se 6.819344117473343 10.439983040709752 11.523159403535727
