19
Energy = -62.33268142 eV
Se 12.048391551459112 7.78034385897119 12.859281782870061
Se 9.704660249887718 8.940701702123464 13.56683826092298
Se 12.66025215864136 9.38353355703989 14.98634456226265
Se 12.700870502298663 9.002181865111512 11.058245098097403
Se 10.12490755144575 11.030816441999374 12.90417069648793
Se 10.321730320993517 9.03947000386914 9.71444425885824
Se 12.428153757942628 11.34094833828542 13.969319804674193
Se 15.16402499517117 9.6843755518146 12.00234660146991
Se 14.755739087741809 16.68345232592933 14.982157923940202
Se 15.601648093526082 10.928825454144132 10.125533370694162
Se 11.662382094791974 17.962267611968056 16.50516903692527
Se 10.34631199481917 14.328727333445068 12.270613748657043
Se 11.359188613456409 10.403844019382301 8.19757974296779
Se 10.336398678123246 16.56900320123473 15.40532836266917
Se 13.471792985255854 16.536279703296326 13.16423566383543
Se 14.724063924108158 13.145283025921 10.518717904295665
Se 11.140275971939102 12.6684111922324 9.063201141018089
Se 13.293343750138474 13.519429398190496 8.681603071520659
Se 11.736872284177272 14.852971133391549 13.943962662915082
