13
Energy = -44.93038648 eV
Se 7.277287219671791 9.321626781869698 8.968763158059653
Se 8.297175244746843 8.09065302077099 10.697667409218127
Se 7.6646049455256255 13.026885963837413 9.681913394125212
Se 9.75231327792335 6.559335226180276 9.645372136443196
Se 8.65420593475433 11.195050957224588 8.561776339834825
Se 8.605149122200329 13.340113338927312 11.806176876985283
Se 10.409633313588294 14.865141691416865 11.377774681392077
Se 11.740461686119977 7.7302064192483995 9.158306162819647
Se 12.73507764302145 9.245898999158541 12.51824814193999
Se 13.174140279973603 7.484038929119897 11.01475976303319
Se 12.389563365977915 14.067650589753345 12.278201016542655
Se 13.462523276064935 12.606061396809077 10.684170654479654
Se 14.325606714469886 10.955078709721922 12.094612289165273
