10
Energy = -32.77706655 eV
Se 10.329866097180084 8.120734906619711 11.741490432992213
Se 9.649201235051203 11.606840837591218 10.873312882687468
Se 7.803514464564262 12.73327539829717 9.642954933666141
Se 13.063597868253193 8.452952769008704 9.346844938805514
Se 11.103351591917983 7.386570407578389 9.467739916926979
Se 8.453419858298847 7.0612032515296805 12.274714425612329
Se 9.916409488988322 9.87370973148529 7.893746618358898
Se 11.941524967345917 10.702115550587264 8.0901652895919
Se 6.060218978435262 11.637434315297794 10.487652752671238
Se 11.630557018162886 12.376824400202448 10.133039376885412
