12
Energy = -38.61359737 eV
Se 9.94217936875477 13.294310244001172 8.555981801300508
Se 8.110373184646892 12.294059275818862 9.695221375408813
Se 12.701685962652782 8.716658199815082 9.941555588416636
Se 9.672171279014316 9.500307339504802 12.048572184832715
Se 8.921342784981523 9.996784066725331 6.531388978808378
Se 9.670052272204819 10.808043349790088 8.435423729163736
Se 11.016270505965661 7.739726305910278 11.365363459865351
Se 13.080155336415146 13.825256567663596 12.105569522166922
Se 9.659412809513448 11.59564067777877 15.2082154327971
Se 13.921961452336356 10.15275240122138 11.284893477600827
Se 12.589145724512305 12.187723224882358 10.685005974154338
Se 10.786016107357858 9.959505135244619 14.213575263839935
