10
Energy = -33.10730394 eV
Se 10.371938414255823 13.279813455697896 9.740243817637674
Se 12.441989805059846 10.530253371498333 10.216588682256893
Se 7.442765311684042 12.17909420264849 11.76106804973065
Se 11.403149950622872 9.117348832216862 11.65971231164185
Se 8.16347203947476 13.629636468072341 9.976281463438342
Se 6.628133775320801 10.340143820066723 10.530249810835379
Se 14.118541507583451 8.990457432023591 9.053217135669918
Se 9.724836534706736 7.9061968532169615 10.402755377749541
Se 13.697722704329177 6.966136201295934 9.832251898920388
Se 8.458035261921832 9.511504668221917 9.27821675707827
