17
Energy = -56.92758834 eV
Se 17.027508309858163 9.384042676780645 10.697578814060495
Se 17.362409228800743 9.572792286598649 13.673331499035015
Se 15.3569947512873 7.455783856003435 10.704373223982202
Se 16.177416796538118 11.432177029650335 13.656538822715484
Se 15.82939187015165 11.235013664880897 10.67367795360198
Se 13.453425880380411 8.498658169574483 11.36286612673973
Se 13.789794697180271 10.821998377330067 14.270770293927491
Se 13.709580750597315 8.604064379123523 13.8055187554665
Se 9.156612442223386 16.95846731905931 10.327665442375451
Se 11.40395973221674 12.569757525641046 11.503465028049025
Se 9.277748128147742 14.772962872171428 9.507601277650442
Se 9.953992455587061 16.62437558306983 12.622412055331353
Se 7.977123768579201 11.128155790929961 12.325851331199788
Se 10.096078892297212 11.936591520770484 13.213876835738539
Se 7.13039339449987 13.782067298829702 9.6860538248045
Se 8.401269910312884 17.325004392413206 14.057922812371897
Se 6.827371956994196 13.126465432236252 11.932724914792173
