12
Energy = -39.75395247 eV
Se 12.164898400829184 10.179291790958912 11.278450495462845
Se 8.188342009217788 9.578518359758604 12.634698267456251
Se 12.798132984466314 9.176393085404438 9.261134484334479
Se 11.093845245594455 9.475529127059788 7.6612279538372166
Se 10.902868661316683 8.30449471345414 12.490171218473224
Se 11.14771468395595 11.822077727628532 7.263639607079481
Se 10.77779089578944 12.667961852856303 11.072385200075875
Se 8.98457771790136 12.482131961637286 7.779285915377651
Se 10.330539660270196 6.8605370289113 10.927214559038205
Se 7.6829828296090525 9.674502119993235 8.970162848957461
Se 7.591158444803345 8.30228186238922 10.864503912156717
Se 8.806431819094723 11.964014880941523 10.217492504308973
