13
Energy = -44.90899626 eV
Se 12.712936313570122 8.905042535296493 6.976926986640945
Se 13.295331226486065 7.7759856417517 8.967731233760931
Se 10.381306600104233 8.536961904239146 6.702609864497667
Se 13.998628832860051 9.476099743643854 10.443383387662685
Se 9.053067878082327 9.54044100473331 8.342340521595938
Se 11.427991720932626 9.714417105138788 13.277905031913926
Se 9.41340201176339 8.571591235543698 12.832484348965586
Se 12.16608081725755 10.708642068210843 11.262155941242868
Se 8.587060984191599 11.81297929975053 7.7330512308029045
Se 9.291470945072351 12.980804370406993 9.629945017370735
Se 7.669339082904952 10.048647621695979 13.425937670067793
Se 6.688513358121137 10.868332652075997 11.43320806796372
Se 7.336249147759148 13.081433736618509 10.993699616620146
