14
Energy = -47.00821959 eV
Se 7.261764033086867 10.199435807245852 5.643548589003834
Se 9.215029395521857 7.064291861247448 5.1842996676017234
Se 12.067001454144343 8.607631115909333 7.100048099322367
Se 10.948443832663337 6.553116881053382 6.696882863676489
Se 9.610902917281546 11.43900572078748 8.376402264011913
Se 7.275824405853746 7.908894813472766 6.235625013971197
Se 7.415732016725882 11.421835235150613 7.680673448900445
Se 5.691714433525985 6.313920475534754 10.357219689882024
Se 11.932750399080424 8.878710658119449 9.418604280965006
Se 5.142680720449832 8.750206446842746 9.951875214989398
Se 7.537633448769246 6.548997503711893 11.72086008152613
Se 9.38227019959787 6.790148092270183 10.311996450656554
Se 9.627877678979422 9.37622281259473 9.972188466700613
Se 6.652073253446839 9.909280765186717 11.111474057919333
