12
Energy = -40.56663759 eV
Se 11.083660770698692 11.179495764402386 10.655704009722836
Se 7.31991735962416 11.546337526930841 10.87452787417503
Se 9.34870991584504 6.444798421407514 12.5292181917438
Se 8.097031675903425 11.195703817554648 7.071293680633782
Se 10.369013178427089 11.118880516324145 6.400888532980138
Se 8.510783546798594 8.535907093406246 12.096154771401809
Se 12.39654322500093 8.684473604942733 8.561389726420234
Se 11.07741137465879 8.883800140287434 6.62861799430913
Se 10.769129182849769 6.213357740244152 10.664975964132895
Se 9.420428412597712 11.594611295353378 12.160004022179205
Se 10.523639895770884 8.675476744647527 10.193689415867597
Se 7.831175720865422 12.674601593539645 8.910980075473779
