11
Energy = -36.94707825 eV
Se 12.366692130583083 9.749613776258775 8.986678243388326
Se 12.313027048977249 8.146633281944334 10.721436608233981
Se 10.882658083070357 11.291291417889845 12.144244888218049
Se 11.384687681997535 8.775154483901055 7.048151145583689
Se 10.122966179982491 7.650826707378798 11.26708065738152
Se 10.005753069898411 10.559699846961697 6.411981371363929
Se 9.383720379930029 9.697251655159274 12.49311910774222
Se 7.3631529912275475 7.842226324228577 9.5254083579402
Se 7.028890587885947 9.68182290851853 10.702734843328672
Se 7.732306917198007 10.36148065252739 7.148703250423017
Se 7.491865688881926 11.601861414896078 9.061655958096578
