16
Energy = -52.8289647 eV
Se 11.151248977174784 10.349451589732857 8.08542867973822
Se 10.712869371223363 7.761887911573536 12.055689554363209
Se 13.71621911603604 12.601508162602407 9.80277377727195
Se 6.902792628557524 8.611314834546395 8.832635129473607
Se 5.608654138361656 10.376725409675856 8.027780509458053
Se 8.136445455057576 10.359130901907182 10.30707222073793
Se 11.637588252182478 7.303266471432203 9.778502191303069
Se 11.631562128503028 13.434993890250798 9.781499200322573
Se 8.457100172182473 8.196272910778347 11.736187224748942
Se 8.458192603970248 12.502055882908676 11.751663762085943
Se 6.931722995226158 12.122743043315896 8.837486720395537
Se 13.727571320483417 8.11872278759085 9.803811399527891
Se 11.472117969756653 10.368891882885563 12.588767248563094
Se 10.709369012660154 12.97623104442406 12.062631616282717
Se 13.216468444402976 10.353709749959107 13.986436221295357
Se 13.33228914517681 10.365305274111858 8.363846275387358
