18
Energy = -60.51903375 eV
Se 12.208978094508167 5.935244714573018 11.895338545701348
Se 12.84972745712386 5.87292472822191 9.62633235222054
Se 10.58068687277933 8.919831889474086 13.082105322932671
Se 10.055275086884059 6.916125371339304 11.962694181642004
Se 13.030573813414833 10.683263973344689 12.797983570717886
Se 13.54967636893943 8.0176709344891 8.934860696135045
Se 11.72683715316191 8.736144681920663 7.598875535819911
Se 9.632109407240325 14.6363703929606 13.592342831681313
Se 8.730098151556518 9.851360791322605 9.792253137631521
Se 10.582937357653005 10.578733148585826 8.510792431381244
Se 11.336795670737397 12.13595934296392 13.306687962809903
Se 14.132286544646004 12.177953923849746 11.055436824324884
Se 12.052312285410089 15.691352181787508 11.828325333339903
Se 8.428940699431731 14.925510868148537 11.712332671438062
Se 12.439132821626325 13.581267992291904 10.493903342854049
Se 9.256964463955327 10.858365098913085 11.991138972960178
Se 10.537251135642066 16.344880152595916 10.32404157582491
Se 8.396734741104883 12.839953250493972 10.495116592161724
