18
Energy = -60.63282947 eV
Se 8.990965979542628 12.232207836753158 15.574568449644268
Se 6.963541232110431 11.395161087380753 15.579522315099213
Se 7.853462038051528 8.859504361909268 15.74472234363621
Se 10.074405288015775 12.350611037777792 6.6566540306868704
Se 8.34421567361764 11.145431139632814 10.318684520657458
Se 10.578530205332136 14.31044816525111 7.875985706763045
Se 8.707880116319249 13.30944770297606 11.016259674924255
Se 9.958101512248591 9.467371942947798 15.775831374299855
Se 10.880111681402756 13.840574898280572 10.16719600812738
Se 11.4445311369946 10.82382985042025 12.678945887246432
Se 9.424128096362832 9.455201308767387 11.899246624090082
Se 12.680223075472714 11.052647314518182 10.726028518815644
Se 11.947461187329436 11.439444740491977 5.509168896028292
Se 12.181265433363599 9.147073418983824 6.011016043389945
Se 10.10909991613094 7.994991887319134 10.375400122645656
Se 14.505036630222003 9.505523942123407 10.677280503727195
Se 13.86839350961655 7.8163884577329545 9.18352217250354
Se 14.268830804036774 8.636799369219295 7.008405694945191
