14
Energy = -45.26813845 eV
Se 13.987228428390628 15.997426586866176 7.789783335652062
Se 14.559897922550377 12.714422287436031 10.53385734227426
Se 12.890117085498643 13.684478874228617 11.578188098157762
Se 12.340373151295475 14.691379127850892 7.156842251866835
Se 12.239847262048567 8.290862247211452 13.792509206174426
Se 12.062051856536941 10.65863277540002 13.43377723934064
Se 10.596611032145477 11.008710442579215 9.739846729758769
Se 7.810968506152418 11.601544320272653 12.644421076391342
Se 10.660435774052463 8.798220495968774 8.869440096876048
Se 12.655198429657869 7.338194261730396 11.692064549061065
Se 8.396736025500257 11.599748524633501 10.161825644372737
Se 9.961146974915914 11.249748565415144 14.152632405908848
Se 10.531468997991988 7.249752614295254 10.625772327252784
Se 6.345090901964256 10.00882738869297 13.098836951183145
