17
Energy = -57.79573567 eV
Se 11.977561847949904 8.696291911809624 13.22411140027117
Se 13.03533886533522 10.532176908693978 12.202160101995277
Se 9.844710126925678 8.369200295971636 12.24752325241977
Se 14.448798290642387 9.791028459193454 10.454900130189253
Se 7.680882331243999 12.912915497078036 10.347372635202401
Se 7.099714358175564 13.442522980684165 8.098084229811464
Se 13.647944754265502 10.845722583073718 8.476777289322857
Se 4.959458840175595 12.463387268971923 8.509002652981867
Se 7.6351615389671625 10.574821656796473 10.202901828394683
Se 10.130519314232052 9.974819409055444 8.12314396933021
Se 10.518977847337009 6.3423377701854236 9.049063234870589
Se 12.368529666695625 9.388138231077638 7.204157722306444
Se 9.93568619959591 6.209466602385781 11.245149338279234
Se 5.603172093629147 10.24798540938596 8.801687691882174
Se 8.768969890922245 8.805981610658609 6.72696152229931
Se 6.926494301353928 7.297673543964878 9.802640296716397
Se 8.154378669123952 6.69886358310674 8.027877414983573
