18
Energy = -60.59077881 eV
Se 15.280582772767763 9.952129903353093 13.452187984794346
Se 12.886790972791108 7.189958332921437 13.19135580385867
Se 14.300914953768952 10.263065695739575 11.002826354458902
Se 12.295116274154532 7.623196366531671 9.333226070970593
Se 14.682818636855297 11.980027053775853 14.22337760490267
Se 12.122654280034887 8.614212344901077 11.667647161835818
Se 10.144311598894653 7.595100939697817 8.561956288839779
Se 13.657526847200906 12.373447217882589 11.043018442478054
Se 12.283676635787819 11.710985996322478 14.710677507391802
Se 9.837474340455916 9.858712314237206 7.61673936482444
Se 11.70897294710756 13.923395785657494 15.064898627189452
Se 11.630627010482577 15.226688483114286 13.041922175898344
Se 7.6061037659045025 10.125456039993034 7.604485169705528
Se 9.261946062545489 11.050008500678738 10.86807940078913
Se 9.948206887249885 13.768869497566223 9.92631895101068
Se 9.560149691396152 15.075885125751077 12.011490774307736
Se 7.269700639374193 11.236790521874585 9.961234373397833
Se 7.979126375709586 13.979598164074499 8.926000631452398
