14
Energy = -46.21307847 eV
Se 9.830712033339427 9.124632192403151 5.510435678797401
Se 6.087916438109283 9.150153329467138 5.882649100315393
Se 10.273406724935931 9.963004184423337 8.379653801237513
Se 9.126984773457623 7.456341666483008 7.919036943556292
Se 8.05150734188077 10.495001574663206 6.027627581338214
Se 6.450173982825588 6.186585996952163 8.157391822144621
Se 5.515552920903827 8.29048318880325 8.038031479982466
Se 7.823173797033934 7.815501765867756 10.341018178460613
Se 12.036499592327361 9.209744001018173 9.811883759390424
Se 6.735858724732217 11.308796045330608 9.11520671879331
Se 10.752669731742285 6.08092290946253 8.464239804338714
Se 8.393797048921797 10.55802886223334 10.376081087482143
Se 9.602740074358682 7.080883303204762 11.74371565125808
Se 11.011723553139799 8.972637717395681 11.92574513061277
