12
Energy = -38.97308972 eV
Se 8.85147289799403 6.586710340060845 13.23747906904779
Se 12.591265762814606 9.226257620536463 11.666754372038634
Se 11.75790682075173 9.398712645289018 13.712418736591964
Se 9.115819298595605 8.848864432380077 13.259720261583961
Se 9.067013769032089 9.060632217100634 10.949136305240131
Se 12.163251169202088 11.673462724334481 10.827292193164043
Se 11.395675710171508 10.253417592820238 7.030420188628627
Se 11.048084560635143 12.519817134981848 12.531038274824157
Se 9.124193705935987 9.539159072915842 6.907674465907186
Se 8.219078878143641 10.782168934235766 8.64045588046386
Se 10.646869317298355 12.426425051607403 6.400790867221426
Se 9.410823003797145 12.970757461604373 8.268569279842831
