17
Energy = -58.33966658 eV
Se 12.48632381626121 13.479428918693262 8.72071864805288
Se 15.302745922884549 10.942469690275153 7.759651709514548
Se 14.400156224502826 12.311765047466993 9.456572310662775
Se 10.98237843058724 8.666140462931532 7.414326527802505
Se 14.684930663653267 8.722220900682279 8.292977867440145
Se 10.59975836799489 12.120531444562793 9.14402847100707
Se 13.115985783919001 7.990440495050447 6.6828500949166605
Se 10.12944262565263 12.176205177466398 11.457289037891021
Se 11.313697236300106 10.40874045129384 12.46790593571762
Se 7.226956587424115 12.491460160998502 13.861923057434819
Se 10.053094801952497 6.939729320739941 8.73113413472258
Se 4.869811396712586 11.076540810393503 11.399311572139295
Se 11.088445216938936 6.972974163911901 10.850223633813485
Se 5.701057825203499 13.145908468990632 11.994984315394829
Se 9.973483458661875 8.449217367619127 12.33175501722041
Se 6.907146045117548 9.80623078388608 11.45992082353344
Se 6.930369780408883 10.19754460589351 13.813504078757854
