15
Energy = -49.48932889 eV
Se 9.500905636916732 14.151979778111253 8.376664204303811
Se 9.662674930720021 11.96259919598335 9.086566277831196
Se 8.02758045466923 6.814228475317556 11.185001463061411
Se 10.293004119557777 9.299900697946889 12.023233705787819
Se 11.822116837784487 12.624502718455815 14.679260903238296
Se 9.233950547866081 9.861196045358389 14.153307358131718
Se 9.794755861078874 5.6435516191729365 11.800450629089877
Se 12.610525860585234 13.284795477299037 7.141134699668776
Se 9.594707192325927 12.17561516913584 14.1054116629593
Se 14.582706724266329 14.02788534489633 12.564923739930846
Se 12.770689774715738 12.739368679668571 12.411396081528503
Se 11.54292708141857 7.460963928678357 12.4323410079694
Se 12.620972090265557 9.814755502476228 9.319207799733944
Se 11.795501856000215 14.636334475990523 8.837416121051945
Se 11.603928015022131 10.994430283185133 7.728825632014306
