16
Energy = -53.24480267 eV
Se 13.501827468773524 11.727162036876072 7.0013960102671335
Se 12.926832448303458 9.60075290014703 7.3243196761399485
Se 14.520463625708299 11.852085065456473 9.743453656227064
Se 14.133451096540004 9.709211238813886 10.101466628197409
Se 10.546207631850242 9.867343378809288 8.05222884786721
Se 12.782321800692777 13.090931373475348 11.215507768374897
Se 10.100918717753245 7.7389478403727345 8.89318626712101
Se 10.973559841847973 7.557979028191481 11.093063144431955
Se 11.170883353728204 11.579527631556928 11.618397195994614
Se 9.150420296917668 7.60810604479592 12.658051223409078
Se 9.153323112584125 12.795856044407998 10.296670554033225
Se 8.10945340560809 11.790328130186875 8.57875005205863
Se 6.587290464073616 9.173210374568376 11.119144061866429
Se 9.163104706609198 9.525065757203993 13.868841924525317
Se 7.605422869366482 12.914834037298615 12.171156508788957
Se 6.929452511806263 10.593523566100426 12.7771528451623
