16
Energy = -54.1309714 eV
Se 9.477493288060668 6.377802892924046 6.372434352664143
Se 7.455183061593435 9.32108512762918 6.930767009949269
Se 11.326499299528454 9.613880223139915 5.840557772282312
Se 11.60008442545515 7.30894370887488 5.832770354323188
Se 7.388214479856653 11.51683821799949 7.388361955982722
Se 5.69579781271905 6.217194723899899 7.472078451904224
Se 11.101030981196313 6.738042643222194 9.923977699682284
Se 6.6493351673957095 7.698526117809813 8.842799114712248
Se 4.982307513514383 9.29176710669359 9.841548755495507
Se 10.853771009833025 10.131386395426569 8.20317144861016
Se 9.784602829656851 12.127658126276755 8.038320143385198
Se 10.016034541756243 5.304999826808676 8.446260937750177
Se 9.61930283464337 7.487895091291733 11.660240184243975
Se 7.97845230142319 11.002770398398926 11.04427755941286
Se 6.060877679424126 9.803961279294985 11.826631839005385
Se 9.743675611416979 9.789910957782398 12.068465258070118
