19
Energy = -64.03119406 eV
Se 18.74652886624655 11.36701234660892 12.635793926358764
Se 18.123691479734344 13.420719026818388 13.264956091943878
Se 13.949904779025346 8.797175444924973 13.901211847575654
Se 13.885226965286806 10.091526636137942 11.901559268938225
Se 15.345112086342633 11.432488452714674 16.30386004586599
Se 15.696967439966192 13.532844814711083 13.163178975893597
Se 15.105134955904768 13.617391049146491 15.425070080556132
Se 13.406421609637 10.24083089102869 15.672342073816216
Se 11.703309498559882 12.762637653746697 12.84832380303114
Se 11.662263983527737 10.673836077739487 11.559156936483637
Se 10.327586750685054 14.87274624596267 10.001378283342175
Se 9.815433436423104 13.90120096895559 12.170259357807812
Se 9.953069254951048 11.78062332617751 7.8565948302261654
Se 8.404627954427283 9.589471814211809 10.489559425170489
Se 8.87679275873212 13.903298318470103 8.499865728239588
Se 6.835779719914986 11.469951995460505 11.539346880630731
Se 7.213827348136226 9.175395697939773 8.660080365852505
Se 8.27089040546433 10.67544440486394 6.832769534418933
Se 5.226099697664698 11.536433100656218 10.045959709040936
