17
Energy = -57.66206223 eV
Se 7.276572162309018 11.692863295834886 13.169149524932054
Se 8.528797866234967 14.05533959195938 9.916728413470706
Se 7.731091596140514 10.289704220997939 11.371835035673485
Se 9.328938713422085 12.806811242286042 13.475287159685527
Se 9.113583461437894 14.726549381193902 12.033620582767723
Se 10.480277469464278 8.897883220566529 13.762299962084757
Se 8.561009800523282 8.07939823143684 12.194625052693167
Se 11.712105383204594 9.885170738810364 12.115270498967284
Se 13.104324897668677 13.149824747544642 11.378385347790664
Se 9.594179212890406 7.548621868084017 10.295476429629337
Se 10.533858986631227 13.228153270323345 8.751145366331881
Se 12.24452591058658 14.534623753813188 9.550413701353811
Se 13.171943447441448 8.16960106862254 11.119860505921908
Se 13.217300660189665 10.426413890913874 8.88900871584556
Se 15.30883861094429 12.818792731931643 10.969346893983833
Se 15.28408774069577 8.773880477997793 11.556291583630715
Se 15.31797484216151 10.666594940523805 9.510882554706912
