16
Energy = -53.95291387 eV
Se 8.307958128755411 7.425321403279984 5.3015258868630575
Se 5.998893798896639 7.605186509212058 6.341951471595849
Se 10.675076322105749 10.493794909069608 5.324550866394751
Se 8.549789929057614 9.66513862351402 4.721771803907479
Se 8.407182455517466 5.778052445626107 9.223264431268909
Se 5.52495253439302 9.73630181283799 6.653750805338848
Se 10.638326463213227 7.852934462730921 8.961414520000936
Se 10.755919502628874 11.243361422000472 7.586357561868237
Se 6.302504657339861 6.500973033593855 8.998415127225657
Se 12.210840736195395 9.7377552576871 8.580507289824778
Se 7.2945089891296 10.294935741600003 9.950856710959062
Se 5.6614798291234685 8.633206768571558 10.058719340254944
Se 7.910888672774343 10.563177048071772 12.234705869763518
Se 10.174683965246935 10.017699909013277 12.577342893415087
Se 11.55472340295954 6.971147524838461 10.901011224692034
Se 10.226165579846937 7.674908095536897 12.77774916381098
