15
Energy = -50.26429333 eV
Se 8.539581209403263 10.808881110533815 8.752677252358597
Se 14.619500093327307 10.251442837764879 7.7321418774654385
Se 10.063372145387493 9.679774839545994 9.9888979136408
Se 15.748465910309937 11.238610377430549 9.345665152078448
Se 12.122654123291747 12.188169828737111 8.358481832404397
Se 10.01956983271999 12.890801512115456 8.127550216238172
Se 9.783860408655817 10.6020660980043 12.218510112008383
Se 12.811131699068772 12.63244527011026 11.828767802856534
Se 11.835828440256991 14.608644586804642 10.882060269173204
Se 9.22901922399255 8.794134374235055 13.604429134697263
Se 9.64579338891729 14.210572199040502 10.373536855327817
Se 11.343146123029667 8.342971802640376 14.541801684393125
Se 11.06076763610425 12.087741862339222 15.219307440063357
Se 13.004743307682455 12.993353443262464 14.156275114583073
Se 11.529008766848017 10.026832166431053 16.22633965170771
