16
Energy = -54.12694593 eV
Se 6.735652295940022 13.897943362290738 10.356079122132854
Se 11.741448375513455 12.887136809469183 8.184713431964182
Se 11.622536928550387 14.14073104416175 10.276856892769127
Se 6.880989877656783 11.682254497668517 10.410245459292943
Se 8.239540712122766 11.017932580624631 7.9836549284863
Se 7.850814103707488 8.855640933995476 7.564301260417264
Se 10.671426288358616 10.899491252651012 8.564203562951766
Se 9.113609679860364 7.695975766571302 10.792356350722118
Se 8.512334184638979 11.180725809916211 12.196989351878166
Se 11.027485352754164 6.538434327542433 11.58178410223214
Se 11.780383279191618 12.526298886900639 11.93468177111215
Se 8.114464066957156 8.920408130847724 12.574766869553736
Se 14.035426175551533 12.144817136972318 12.581805325654898
Se 12.979779033192273 7.265452837713906 10.483371351254151
Se 14.913132281281326 10.507031219025018 11.130511305035924
Se 14.487861604722596 8.344807691594639 11.96424922969112
