10
Energy = -33.28152348 eV
Se 6.932701791408606 8.730321935393334 7.602731802086583
Se 9.757615227393522 11.15241972007872 7.275859287916286
Se 11.296508180591017 7.748382095949759 8.047715000924459
Se 7.485397926157719 10.987095107353055 7.935254772326071
Se 9.744590293632495 6.328593076282792 8.836433816995774
Se 10.923806037715233 11.59190215459544 9.257517225428122
Se 11.342369900391859 9.534759688601097 10.378798600167066
Se 7.694457587360542 7.489919461136152 9.474296223786139
Se 7.631922754585729 9.637809576221189 11.526016758151314
Se 9.738316384362506 9.346483267987837 12.213062595817538
