15
Energy = -49.58447811 eV
Se 9.969957651787515 11.566940017086969 7.36288898705766
Se 12.554992846298733 12.094922435716198 6.6741508285534845
Se 10.527116215478628 14.367000299588879 7.870688174755091
Se 10.199857489727611 10.825972235671783 9.48442597313903
Se 12.574583428779116 9.129186233418432 9.013275834936845
Se 13.382613501390713 12.14815476446104 8.717390783714356
Se 11.761361479280632 14.008155968794405 9.662532644687834
Se 8.441744697875208 7.972927379455797 10.66180482879479
Se 10.376149912148954 6.609976491929843 10.670846641024518
Se 8.531287987890908 12.263033993503118 11.009432414179479
Se 12.152775759400809 8.138397210326447 11.05314273624254
Se 9.737128456220292 11.45704215074388 12.780638713753032
Se 7.450501096473309 7.986773981153138 12.749998996182452
Se 10.617050454930675 8.78641091221929 15.026575904377042
Se 8.710239648153044 9.632466551766912 14.249567164437597
