15
Energy = -51.01371758 eV
Se 7.858710798851549 11.590845063518344 7.3116793889388925
Se 8.805314378644544 9.130261642630014 6.539321150744441
Se 10.979181388913196 9.579114969747677 6.845962907310745
Se 9.748475182456778 12.457008382109436 8.032275721199657
Se 6.5165436976256474 11.135576558235279 9.567724479909389
Se 11.513012432652248 8.793874542963731 9.108487192107365
Se 8.175867811381023 11.422061812022518 11.063949621716718
Se 13.432165605119085 9.974827864454161 9.615975464905501
Se 8.58096933482155 9.020004296981332 11.598317769032777
Se 12.951766288609534 12.259761598719464 10.115727237430306
Se 11.961317961143708 8.691793186463084 13.43047494019235
Se 11.781186071223548 12.512228819728733 12.1633079646446
Se 9.532903044945062 8.861644441200111 13.676806951971038
Se 13.362100060608984 12.278441418941151 13.852970830591726
Se 12.711448925847646 10.203518385129506 14.987981362149261
