13
Energy = -42.9955759 eV
Se 11.99417981622341 7.472952189374081 11.107908687918348
Se 11.406936667084745 6.68060230957886 9.116313716809904
Se 10.234572365309765 10.378202562867045 7.25120596887456
Se 11.274468211396332 9.921818173735627 11.322150217247593
Se 12.070209509651148 10.348833136527489 8.688705026732949
Se 10.398397787946806 6.92515177988279 12.928430337713861
Se 8.347274323431538 9.817903420135467 8.524396790553219
Se 11.868643850864668 12.77468630844367 9.647789146315422
Se 8.284702568493621 11.600688569482744 10.159576283799435
Se 10.255115195219993 9.310801399954928 13.605533394483022
Se 8.197409660919755 10.185197236095528 13.3979622682874
Se 10.526607004572694 13.871399485336179 8.226404972723937
Se 8.144028735360994 13.573569046039355 8.995733123340838
