11
Energy = -35.54480769 eV
Se 10.367415454032239 8.610510981998827 8.816260851995303
Se 11.577280393914336 12.027238712524479 6.133910340212049
Se 8.724240265202766 10.63979573767259 13.911489184632543
Se 9.820208809354883 10.996158266958197 11.987682493091128
Se 13.917783593086188 9.346225141783169 9.5743366597385
Se 6.734831517835052 9.232503189503229 13.097300699986732
Se 9.723745372720778 8.489518052013901 10.934266318713636
Se 10.711896848636 12.021055389507682 8.194766483430493
Se 13.129605604541942 10.907969466925977 10.969540474782454
Se 12.34829482299642 12.869225752198405 9.75880795429638
Se 7.225685617471692 9.140787608705256 10.902626838913232
