14
Energy = -46.48847006 eV
Se 12.53621689734426 8.544076257056814 9.180537198378957
Se 10.016629422879832 10.061225421488615 13.364730698546925
Se 10.036524637319447 12.50901053768224 13.454167508423184
Se 8.39940506542409 9.314376275421884 10.09851931134839
Se 9.949413962122732 12.494052619462638 9.423360192611074
Se 10.455142146066041 14.834583946623914 9.303501222905231
Se 9.442880337824256 7.057336850682751 9.947074779971462
Se 11.640601821809923 12.204410891495542 7.7382723483815665
Se 12.60878605565319 14.822875068111298 10.124276268317423
Se 12.806764588134573 7.990809373828155 11.297526524087598
Se 12.16834006316371 12.937762258539388 13.936859628896169
Se 7.968367314409069 9.493248937033542 12.376376246234333
Se 10.571407211978597 6.766070135026015 11.862437060352788
Se 13.502196299501056 12.814014510289384 8.940618131988423
