18
Energy = -58.93879551 eV
Se 9.161025711049673 9.690783407619065 12.331821152325864
Se 9.347334792742659 11.553393937264419 11.071337293289975
Se 11.528373478460594 8.735873620689267 12.001076839720389
Se 10.974225933926887 8.644124846373392 9.487140313844442
Se 10.091247831963555 10.700408417698766 8.856285830814533
Se 10.734298696894074 13.192320739161108 13.507286275877743
Se 13.425575526607625 10.298020088579714 12.188638655729644
Se 10.966702627477535 14.20772480227982 9.774969031501758
Se 14.516350077820855 10.751780876043401 10.20811131017077
Se 12.25325763226698 8.77213178502927 14.657146549329077
Se 11.680343625280262 16.189968288911977 8.700063118746534
Se 14.284444288696479 13.184356720531708 9.724677542986969
Se 12.545511709959069 12.103288257038297 16.3264968108844
Se 14.225197127609897 14.179801761045884 11.758201588668262
Se 11.654006789213032 14.727854025796766 12.15779126738073
Se 10.945238549817836 10.314366807856572 15.7638151610718
Se 13.900490878445726 16.0784319200398 8.27070759917092
Se 12.96195297882504 11.97576851986478 18.519341705800834
