14
Energy = -47.2605734 eV
Se 9.332217546947119 9.760657471355758 5.900741520690405
Se 7.264407188077839 9.273253943812124 7.25229476518564
Se 9.681386394974576 12.01735890662922 6.208803219071434
Se 7.754990933554994 6.537837044195962 7.115959850695883
Se 12.202818689597263 10.664929871238769 8.708802378826247
Se 9.649971432248945 5.844075222976478 8.037868650523587
Se 5.39795613515709 9.383159759783291 6.059800875386064
Se 5.939380349735327 5.964630560233552 8.869486456791206
Se 10.553146369833849 12.279778076443156 8.447787154895996
Se 11.046185523329138 8.66475452751564 9.331384495478733
Se 8.141325993715919 9.376643985031443 11.410464790624477
Se 7.30658717612662 5.621095300976271 10.665460155829493
Se 7.076974992752214 7.455446067641553 12.208546377012247
Se 10.472045333868882 8.975773322086283 11.601993368908238
