12
Energy = -39.5829916 eV
Se 8.759105859351306 13.87033980289529 11.866078812154626
Se 8.998607372861938 12.494295469970341 9.764924918452811
Se 9.36286213012904 13.762890213716028 7.987629280008888
Se 10.927832680642405 14.70362786640176 12.037862283199129
Se 11.449859848112467 11.698984553305593 10.250771490170173
Se 11.842950069435789 12.530188459895971 12.370441278016168
Se 11.02806590649937 9.430624150793726 7.531125337991617
Se 9.60804081878892 8.052749468534433 12.111184771217317
Se 10.668096996882277 7.45059021511116 8.485061223097551
Se 12.448867909622338 7.464003311925414 10.29023420672133
Se 8.683803661283305 7.2824559857956315 10.13505490199737
Se 11.418132608190326 6.500973154682222 12.118583823194719
