13
Energy = -43.34257006 eV
Se 12.655358954964832 8.76906919708876 13.201895312399255
Se 13.662437664173165 12.091258863682567 12.775549407703537
Se 10.790309549188747 9.672224706074143 12.438782952059478
Se 14.130925755314646 10.160173887450505 11.068252605682819
Se 11.40655411858958 12.226408919581926 12.7617190492463
Se 10.448551283484425 7.668524381248643 10.499337521197777
Se 12.294444448072628 12.779862479280164 9.097205032403231
Se 12.380045652736163 10.283438359022567 9.647561393524985
Se 8.837869861890495 8.447731750830577 9.039540958758485
Se 7.19536239288297 9.469766566649765 10.459672560983236
Se 8.658944685934319 13.104624774757259 10.40564016178447
Se 10.105191943460751 12.995204123102395 8.45939230975256
Se 6.9572576420737775 11.673245010673545 9.6485011936308
