18
Energy = -60.70138972 eV
Se 13.563778633069514 9.498029654422098 14.035737020931714
Se 14.801845373434556 9.919766538915091 12.074028300800025
Se 11.588053596305507 8.443951473567584 9.85138576055833
Se 11.892142931130529 12.808260864274782 13.584402963514865
Se 15.314012322853593 12.212737376950308 12.257559648771458
Se 11.364941161795658 10.48172058425885 13.554038587410458
Se 13.212741562150105 13.165253375684003 11.665269102782917
Se 10.125053615426724 10.541675537142753 10.539871610313206
Se 8.940356127265945 12.142404597507618 12.649134867215254
Se 6.39231940926292 9.371573083347508 11.792815112001302
Se 6.668953374429566 11.493262006145516 12.733004744346726
Se 12.344520548427262 8.751535782400373 7.726387205843806
Se 5.649677049249377 9.59252678626779 9.530353989405967
Se 10.110464628726879 11.722419819916638 8.621150136864093
Se 10.538171950700912 7.9134731356587515 6.340677955648762
Se 7.422261748121771 8.88271327599102 8.169268336006278
Se 8.239339275694118 10.832178004282117 7.047430611120239
Se 9.548061277503196 9.728802568879999 5.292866742534244
