11
Energy = -36.36687896 eV
Se 13.241250035428376 10.516977744516243 7.559378765095273
Se 7.709697776474063 8.382989169668814 12.428953704815148
Se 9.024934338716063 10.53907676301113 12.854081449467854
Se 9.049926316951382 10.278373908771817 7.806544833206166
Se 7.406158031069443 9.062199638714532 8.790799986257293
Se 10.79531561575356 10.409803721638005 11.546050207499345
Se 7.609537290369842 12.222181779934363 10.765657837169911
Se 9.428634585469476 12.124944283032027 9.526712490560122
Se 13.004648663723316 8.658919027652267 9.018387002885534
Se 8.608667118318158 7.715652949881566 10.46074662338996
Se 14.472297747068692 10.439948532521319 9.593754618995899
