17
Energy = -56.404232 eV
Se 10.665033923453185 8.718947101594516 6.153478051808482
Se 14.547745467918647 11.146335260667007 7.936367519657045
Se 13.767686190597992 9.130652501527855 8.387673198582437
Se 10.074680880170694 11.730157583593863 8.20675157314207
Se 9.738589015793055 7.942505273455231 9.915146723546954
Se 9.265431230402703 9.414858814957944 7.743254277528791
Se 14.66904613923632 10.99335557321762 11.534485747168484
Se 9.23867928762822 12.364429637387094 10.29908372647257
Se 13.977566979893497 8.883183196213592 10.934952164831943
Se 10.715312550982361 9.091729789882141 11.605367135203691
Se 12.731038240216877 12.39955571848304 11.665357635313756
Se 12.003847151542738 12.578601877160821 13.891553115689671
Se 6.166716747604422 10.629933582240023 10.701860532791635
Se 11.007188226513785 10.494690289213445 14.514118702728057
Se 6.959731362894563 12.878461340698344 10.117376284879063
Se 9.11584975013741 10.141420075096816 13.200378825744057
Se 4.632342537473323 10.737388393535007 12.31504176597687
