18
Energy = -59.15049618 eV
Se 12.30609994034699 17.201880649989516 10.667510185414283
Se 10.930257122295975 17.684909243084434 13.13285480213161
Se 13.704447124800721 15.697015855418247 11.521455417955632
Se 10.450574163454194 15.78137522325629 9.646821048638405
Se 8.630633224130191 17.050278564032254 9.57381233935854
Se 11.994973741359399 15.97345801123799 14.083900879806727
Se 12.43667997671582 11.493161416384293 11.937168937848197
Se 14.627956285608684 12.350452244541701 12.048515963674845
Se 11.440749860429351 12.171488013850515 14.007793137805555
Se 10.346559284176292 14.182461184056931 13.6354672520548
Se 16.756747375193306 9.38603976144767 11.094984022745875
Se 13.194004722033947 8.881240139379626 9.873975336356374
Se 15.953264619980693 10.589295360276031 12.930263099145709
Se 15.001189313831855 7.775215029044634 10.616954628084141
Se 9.06843471545073 7.805774302597491 12.106952328184134
Se 8.869239351662655 9.409167065089042 13.590589873248298
Se 11.467980853715392 8.344675544366293 14.91097104319192
Se 11.530533537792998 6.826069605352845 13.333892692088337
