16
Energy = -53.46382787 eV
Se 10.864460424087321 6.151873799203775 13.602779379138143
Se 12.53727891246452 6.4390084491072415 11.166747939401075
Se 12.85414613579146 8.37402300243733 13.441971191324326
Se 9.346249006678184 7.45469500514895 12.721819812107283
Se 11.037166193980335 7.762913980114079 10.286507051723953
Se 11.327602922497633 9.649911533167144 12.535239697078012
Se 8.235469853145194 10.795760812414292 14.207054433960847
Se 12.666458899301016 11.046359254797782 8.902333942361805
Se 7.1707497380407155 12.247171142435596 12.936974331438988
Se 11.835022044475158 10.800246056904076 6.810134510866028
Se 11.762711084806156 13.323762581862132 9.587171177646074
Se 8.796595129432985 12.459287956067138 10.073862978258443
Se 9.542896910722709 10.013483986847906 7.198614894456543
Se 11.113189461232889 14.310477061240439 7.720448875108883
Se 8.254868261929225 11.67848994016955 6.3352483050759245
Se 8.344608092881996 13.44443327056379 8.139980325228967
