11
Energy = -35.5387796 eV
Se 6.607740670063687 12.071327972675194 7.0284308180540025
Se 7.15287471537923 7.769578195470524 11.47535506258835
Se 10.237031769462961 9.41762577214927 10.23868217928106
Se 12.51161545414082 6.282829918708414 10.4989393577877
Se 10.874705709113922 7.227588256867989 11.655051500403207
Se 8.703478296541855 6.493591464951867 10.464602575285488
Se 8.091709758902534 12.508421311840566 8.630973108190881
Se 10.193245215345124 11.639520126668664 7.712205904525857
Se 13.166214762128723 11.447771537881179 10.02830566399177
Se 8.334832768567901 10.064705633859411 11.246980384904699
Se 11.932116222696218 12.88260515126975 8.826038787329397
