19
Energy = -63.91958117 eV
Se 6.471269593758554 11.113685982833358 12.55141043972483
Se 8.209778444049222 8.752263351680268 11.653317962430394
Se 8.016252235980064 7.9354562763116245 13.697377968927919
Se 6.33500768158863 10.21396609581745 14.560504908940901
Se 8.318706414810169 12.868300605353651 12.66467364097352
Se 10.136172356022449 8.615794999000157 14.94562389828984
Se 9.443261863371752 12.24238282026514 14.526322462967066
Se 10.837444839002293 10.367449981620869 13.689802854368004
Se 11.64975511146239 8.60514458157695 10.985404348996155
Se 13.890750681393547 8.468074112335513 11.228232769542556
Se 12.108731897622446 13.582224866072645 11.321768076017861
Se 13.47154649985358 11.54664984662655 7.377373331450432
Se 11.453784017148555 14.207245423637538 9.13919552685191
Se 13.295488029793123 15.329934263913286 12.32035179713288
Se 13.306432991459468 13.878695739015827 7.714751049736591
Se 14.84080678162868 10.668935582243181 10.87306376184243
Se 15.372141374246548 10.84387159188997 8.59974165104732
Se 16.14753283159181 15.572086469177357 9.786589379514211
Se 15.622427608344914 14.789874385324987 11.816518521726707
