11
Energy = -35.58183107 eV
Se 8.491445286873438 8.690253568968783 14.070902633883371
Se 9.863932442049334 12.10225311916181 7.396406877121131
Se 8.165413869881778 7.987727484928936 8.597950259225914
Se 12.66362639043712 10.017299539043522 8.785478745589298
Se 9.716118250642012 6.695571168717056 9.584088866581643
Se 10.666268727399924 8.98780870385775 14.047825065372692
Se 8.780178073570449 10.946706966054219 10.857298886588797
Se 12.15567037981835 12.192444422995704 7.765347960143847
Se 7.095671971039481 9.455121985577211 10.224747787233966
Se 8.7298588240407 12.782381550891289 9.370481742139054
Se 11.881542446440177 8.352158151996482 7.509197838312906
