12
Energy = -40.06578569 eV
Se 8.58232445001033 13.072245035496485 8.106092001855052
Se 12.534827242798945 7.0843390863017754 8.401589806684306
Se 7.678309095771406 9.551462747165962 12.447650367050894
Se 6.994769389863702 11.605898484395484 11.567649456131088
Se 8.851719218410722 7.252090205510123 7.756912643460867
Se 10.3827904437346 7.036953280552927 11.43064199899818
Se 8.568155061156942 13.290380712467716 11.94860143720394
Se 9.884622228802938 13.442583902909176 9.869799077862002
Se 12.223250094404522 8.895186417473525 7.040156998578253
Se 12.405787018912562 7.935577312938229 10.642525387501745
Se 8.596800251295717 8.27997991078271 10.53896880111437
Se 9.734856105476055 8.991513504643644 6.687622624197064
