13
Energy = -44.89301874 eV
Se 12.433773761850889 8.699492078825957 12.591974221836976
Se 13.460259624887085 11.616693346755847 10.277727368404767
Se 11.793606709602912 10.78241953520058 11.650506857788042
Se 11.704988507764766 7.055667795050097 11.056617792144392
Se 13.127564711747791 10.511866243188653 8.128456177699789
Se 9.45794174798315 6.453155476820059 11.413358981183451
Se 10.862662443241144 10.048394390272042 8.001638069011022
Se 8.198858103084047 7.524047413431594 9.700804098906389
Se 9.70432778154155 11.863656580579123 6.997486228191941
Se 8.867852628015026 13.183772857727087 8.768402574853534
Se 6.474849715915828 8.788864536186821 10.69159001841539
Se 7.082563927747815 10.99700495085803 11.259846189828323
Se 6.7383592941489185 12.382573752635615 9.369200379266918
