18
Energy = -60.25372129 eV
Se 11.963807830691918 15.606165799264527 8.19280514201648
Se 9.813108357910593 16.666671291340336 11.644327516821523
Se 12.331013265722932 16.278629920673794 10.710025155213822
Se 12.628603645026567 13.438609867155863 8.274795170071696
Se 8.363842934483984 13.455042318465482 10.79409982865408
Se 9.580663049767445 14.645940484617592 12.588320982541267
Se 12.814155509670126 14.358583212637889 11.671170868299157
Se 10.747711735203634 11.925292202819627 7.985433878729386
Se 14.840260189904303 10.349309362318158 10.009478407942394
Se 14.321414487815186 9.51111263960599 12.006489556941887
Se 10.744393434223868 10.614957195290076 9.886027530813148
Se 12.181534308338975 6.048504992191166 12.516178286342614
Se 12.507839919272689 10.951336632993234 12.94464236642012
Se 12.595129708755266 5.665355308657316 14.643373045343717
Se 10.393249694755616 7.997139076255352 12.665171429549677
Se 8.681297799552809 11.223667207928937 11.110394789320132
Se 12.383487981992959 10.125750794432562 15.059977770095953
Se 10.508670066667326 8.408538012440756 14.852019180677555
