13
Energy = -36.66082368 eV
Se 14.211781401023533 9.992914622416128 13.694592317707471
Se 12.885716634288412 9.04772164646251 11.479094172346691
Se 14.640246187521464 12.479546744942981 13.038149722171585
Se 15.290054854728698 12.241278559897742 10.784469190984591
Se 11.530118992738569 10.35969939615021 13.465295958140159
Se 11.88150909113129 12.866831332299679 12.795852843019858
Se 13.711562790880159 13.829626687132134 9.727784686701638
Se 13.21948344316873 10.408307288152335 9.9485559683495
Se 11.59361001813867 12.767722501515888 10.444794418000152
Se 8.433584468726531 9.957924207760088 10.780741468660443
Se 7.706660424989101 12.1232816979891 12.106039424436297
Se 7.478070901851958 12.298478155653916 9.395707997284646
Se 5.8536703945835376 10.440531035597814 11.013235452865224
