19
Energy = -64.50883435 eV
Se 16.288684272495626 12.007454320299612 13.04774704512272
Se 14.97237116563228 11.558452361211199 14.94449164794034
Se 12.714835676928471 12.623477194527357 14.808354871051195
Se 13.34198834533048 8.708019229634058 10.526271940033125
Se 16.78419643355149 10.000977319432304 12.068199511701199
Se 14.658650985275907 12.181474911267088 9.726658146866509
Se 11.255143367740537 11.587177992737177 13.495306944298617
Se 11.762806448479052 10.329889334969444 10.412614941047783
Se 15.45543719992369 10.124647412747853 9.843038550798857
Se 13.463555652631369 14.671497549210349 13.186404492747975
Se 7.870470007747009 9.458629150757556 11.743505489301596
Se 12.127601423023371 14.004760575828128 11.493937833046115
Se 10.700467144074596 10.215949601223405 8.229566862436052
Se 8.431011969360684 14.535094161236076 12.834843666224842
Se 10.142922752048053 15.42811368685593 11.542215982343516
Se 9.324435550126111 8.333428343784542 8.533452921981212
Se 7.284365663108423 9.001135355305774 9.450912996587615
Se 6.457529598859609 11.247678079636167 12.301210776561707
Se 7.014836202163697 13.321703713307425 11.337841808380613
