14
Energy = -47.16957669 eV
Se 8.989426249432373 7.598248133515423 12.255311877964479
Se 12.477242525631628 9.36683448329539 12.078540716935354
Se 9.268873925311635 6.374315431317687 7.876764883583769
Se 11.04764726426954 7.569945715406433 8.515604742774004
Se 10.291101417942876 9.42223904617847 12.97468314864268
Se 6.855207394870561 7.488052296527471 8.866298363288212
Se 7.057724805424476 8.333540413717998 11.073939006580217
Se 7.466555814948493 9.153246651121217 7.239666409690421
Se 7.709734152190564 12.216987279493017 9.25684890064898
Se 12.819245504112626 10.514008953237983 8.496963160280869
Se 12.730856419182684 11.285037684530966 10.726309695270439
Se 6.24171683540197 11.132549420694438 7.7236217447947615
Se 10.539349453467379 10.12016188205691 7.934715883135991
Se 9.661657262093168 12.607625268801932 8.11093840147059
