19
Energy = -64.56312013 eV
Se 15.60413913010956 13.25398134155724 12.156325459098747
Se 13.311868610317843 11.27425260306115 13.682247262456695
Se 12.48951427750955 13.479383926787278 14.090054051434855
Se 14.81130557647792 12.070868123287484 10.451029476244901
Se 12.791659009499032 10.696846275620404 11.533906776117124
Se 10.416888862305006 13.336170309170763 15.201496479958479
Se 8.778679056002066 13.870196113042724 13.574247088036044
Se 10.852370978819275 8.297387005518083 12.348487851466187
Se 11.17934284972033 11.30421384859205 7.065663050010505
Se 12.28151307062604 9.463431886176654 8.159648856205
Se 13.437346486543973 13.642147281465181 8.892563881253261
Se 10.028246872404226 6.568657192727487 9.73852852333982
Se 7.300205474593352 12.056952624253215 13.229694769919243
Se 8.655474384482885 8.636449435571517 12.424370534720993
Se 10.976695679393538 7.5625385085961545 7.744338608855754
Se 7.962953753613316 10.785365665892487 11.38335272587747
Se 7.925750023111995 7.2947278127559985 10.138103970756836
Se 9.835885196258745 12.407788446082467 8.536474723090068
Se 11.382848232464303 14.023182600186301 9.71541725561744
