13
Energy = -43.93315612 eV
Se 7.240240284952043 8.429196770351776 9.535598420674628
Se 8.323820750496255 6.697796260101884 10.774247901365015
Se 8.419323982464444 8.28775641363379 7.484912208853421
Se 9.112692204634332 7.778770704010056 12.650913533750144
Se 9.578385180623085 11.581195375007539 12.048823705970609
Se 8.235515329698874 12.089512692764695 10.329611540281343
Se 10.905040378829673 9.33753224879442 11.799986229788576
Se 10.731816641408567 8.50897860228769 7.754965089417034
Se 9.887615068908987 13.436570621303233 8.829384253724433
Se 12.229880737981219 9.724505011140051 13.546798084908506
Se 11.694446410695711 10.673235917641392 7.228987845318445
Se 11.775022336738562 13.285097540676798 9.99548029607396
Se 12.971892019577268 11.253057411248665 9.02469188792263
