18
Energy = -59.79234405 eV
Se 11.518132533563419 10.367707911547862 15.287922678653041
Se 13.82677148853537 10.192604544667768 14.617496641159384
Se 11.179236195863824 12.535023023066023 16.146608129926584
Se 13.511718200390963 9.046858531645617 12.634274578893951
Se 8.051919502283052 10.739410235802186 13.29935061247346
Se 11.493151213958257 14.365614308640739 14.713651410706866
Se 13.074779709090281 10.679285490901592 10.881075732959204
Se 11.380225295758557 11.986010810653033 11.703188276103555
Se 9.685716772543861 8.395853585857012 10.92727738380837
Se 11.761161111890873 17.386299793883733 11.603136944664683
Se 9.070889014582812 10.788012261916512 11.319333286566831
Se 11.9019490621614 7.792224048233781 7.8925825283945725
Se 9.593888105392505 14.749406946960441 13.297520879356487
Se 10.725209201949498 15.429157106997026 11.270313821204807
Se 12.76684061080819 9.779292770557074 7.158899702085199
Se 9.652766312518839 8.165551534833588 8.615897279954629
Se 11.673600203774757 9.926363277339298 4.880428638448369
Se 10.10170414064202 8.3671269245577 4.873292613270823
