10
Energy = -33.13282496 eV
Se 14.679716967239287 10.257919804311275 10.373780166364824
Se 10.702290946522176 10.85697227160564 8.515102208418117
Se 7.514804908513317 8.80318785376912 11.115868022836638
Se 7.57833243387708 8.832910402023634 8.562344835698799
Se 10.484542444191792 8.81990721010615 11.59114166727389
Se 8.266226568857297 10.952818196609421 8.15144247221613
Se 10.349165010424134 10.923249430591808 12.231817483194268
Se 11.002557251153718 12.333247758645387 10.20831523358329
Se 7.367467930225116 10.902163233413157 11.767941585693961
Se 13.613472894539727 8.876201194467757 9.040823680264007
