11
Energy = -37.35992999 eV
Se 8.413549319235264 12.356351833255284 10.927160821664437
Se 7.058544113017166 10.821947290310339 7.593350119145648
Se 11.105641912240118 8.162439040168758 11.280872298408262
Se 7.332533243754796 7.964138795836708 10.079827941231104
Se 7.510817988770088 7.909586616186042 7.8627995810397255
Se 11.374485409997366 8.70771024097072 7.597655223550238
Se 12.522647359563486 7.757598913561148 9.449128312515295
Se 11.535447459452765 10.369826553308025 11.985369599689092
Se 9.72879647518565 7.192273470986801 7.004338661694635
Se 10.5768527639532 11.784326420951714 10.337179490948655
Se 6.754679170967086 10.887796040600932 9.79631316624936
