12
Energy = -39.12244024 eV
Se 7.8776039388319115 12.217790271657329 9.506130615704212
Se 9.427701134063481 11.706990481563608 12.50520089302694
Se 9.331264544768237 10.718259128459701 8.800913370688866
Se 11.613719145370952 12.389171307712317 13.162554743475315
Se 11.28381593991996 7.914832382154286 9.311677192166604
Se 8.466438774263786 8.485032388862274 11.894536051696535
Se 13.005230572613172 11.888175026411734 11.370161945797905
Se 10.039501102476224 6.028174150581841 9.938246302411695
Se 12.895054282684766 13.936435715733861 9.977626386659463
Se 13.193778721419957 13.322848851788285 7.856472534756792
Se 10.368763996734499 9.729741945607392 11.063103008683118
Se 7.9470462724186035 7.112466775032927 10.063295380497806
