17
Energy = -58.85444155 eV
Se 13.921907659770817 9.523244420618111 12.016699582858713
Se 11.380577946118201 11.338059557909279 6.869002220088933
Se 12.237690511971408 11.112519182987198 12.454810280039073
Se 12.39515185848352 6.02505785120197 11.779646763094075
Se 11.196824229607964 10.547004833646316 14.493418218251318
Se 13.034390311090101 7.921206641096674 10.526051675790637
Se 10.122165360779025 12.022370037632081 4.971456970982821
Se 10.585487330723394 9.18707830473865 7.4197123097257816
Se 8.359251884520793 13.566232196450185 8.956104625404818
Se 9.543674402164685 9.296373450028044 9.541524176569084
Se 10.06797684174185 6.1328137289938125 12.150228792882846
Se 6.9984031818383885 12.073237622874727 10.156717739182392
Se 9.68660250960481 7.0568746679822265 14.284609292259633
Se 9.220576962874238 9.353230515286869 14.009358389857482
Se 7.29333218070636 9.917469094188174 9.194692952612144
Se 7.869443571702072 12.08463270370266 5.614797877108032
Se 7.412289607858449 14.049945281534578 6.850753421456733
