14
Energy = -45.88255701 eV
Se 6.28098690597384 8.052538111108989 13.603984926718212
Se 7.862281300098846 9.618118585318777 14.2737574086397
Se 9.03321292420677 8.148294599170887 12.69205933605301
Se 7.40080079473952 8.352872432341266 10.948284676654483
Se 13.150352605672083 10.564363760762399 9.137423306828941
Se 9.451671515216484 9.007878804564283 9.356412043934094
Se 10.92236711050285 8.933533678610862 11.363408786664175
Se 9.216840699492602 11.072550758391642 8.551270620875966
Se 11.196809436449216 12.366671124662602 11.088014919912649
Se 14.651262314509403 11.3383955210379 10.559728217457437
Se 11.398664255665388 14.421444782459977 9.841310004367008
Se 13.153611084159234 13.813208949660616 8.32779866047898
Se 13.021281499899358 12.341746626860239 12.45999465302552
Se 15.076905362968313 13.790255580409818 9.53584584304156
