11
Energy = -37.46845912 eV
Se 13.280859031813588 10.404294582362326 9.742933060082473
Se 11.804455516049595 12.010695942340138 11.195403677355513
Se 11.219681493494669 8.565753157299465 7.058946543871552
Se 12.246899009874477 10.628240177600647 7.723112432532175
Se 10.071114516455713 12.493624996698594 9.929925288844732
Se 8.894544590093593 8.842153733934557 6.86667967161331
Se 10.796293221869252 10.618507120272 13.187048019586827
Se 7.718184555700114 8.613728964337342 12.15293266399427
Se 8.577443985572975 10.784227997007324 12.724279809896695
Se 6.65848615174771 8.738864998163614 10.0642837589297
Se 7.815352489901144 7.46332604538082 8.450556585905602
