18
Energy = -60.52518002 eV
Se 17.106856389590757 9.324289525171043 9.82298894814883
Se 16.72518634518176 10.913940530888155 11.568300279448385
Se 14.793148671066005 8.766632895594233 9.981262475010361
Se 15.33367058621968 12.376382400686495 10.46786896662872
Se 7.693717198935943 7.296288786737146 8.775682835759362
Se 9.605822204020367 6.769704401006332 10.530668540597336
Se 5.3843925392434775 8.188559319968128 10.080482905905319
Se 13.852096398095345 10.757851970436647 9.27145259782938
Se 10.461961990134457 12.410530777896255 9.479970519905493
Se 10.74583474756547 8.720766017054432 10.502446757173306
Se 8.313128080407958 9.250413303312694 7.980619341780551
Se 11.064647430980292 11.751689796399345 12.817110468680143
Se 10.212498268444183 9.55301092060629 12.740604383673642
Se 5.690403854758456 10.312805357489738 9.469855161789688
Se 9.367427074586697 13.26950729716997 12.97548624709072
Se 6.426375873588942 11.577623063047412 11.478793071921668
Se 9.255189255707316 13.992941710035227 10.46076559387315
Se 6.687419381551379 13.609181128543446 10.48869254688749
