19
Energy = -64.06556028 eV
Se 14.071825914436479 15.373464908703648 8.591213621590837
Se 12.9064040774048 15.82512072376092 12.873266824204471
Se 14.254196451191884 13.865108297087797 13.569999556790163
Se 14.580939892771006 13.210280939557231 8.280513114337968
Se 12.043150186077218 12.970746281581665 8.11540398275496
Se 11.493364391446931 14.933967005544723 11.282464947364655
Se 13.799437642746717 12.222503741832416 12.020780524123591
Se 15.442966588055208 12.103205159551495 10.33938173743523
Se 12.206889332950002 8.16099233131444 12.18251620229398
Se 10.639385625094162 11.14081030075442 7.7328693351813635
Se 9.522685549303757 13.992025109407862 12.258308172186807
Se 10.154444857521185 11.775599476443777 12.786765611664652
Se 10.817356477524601 6.936096508908648 13.479851756394647
Se 9.582466092296231 10.69650278870597 9.799354277066076
Se 9.933234934620383 11.704341656769985 15.197456005935718
Se 8.666011350345213 7.254233187521318 11.097361251751819
Se 10.339907629704092 8.344545748175364 10.13395853366202
Se 10.376615524703137 8.05239805515789 15.583939849413738
Se 8.729324829151357 9.70602747123733 15.345317741302004
