17
Energy = -56.09717546 eV
Se 14.907722540590186 9.908118531169665 6.152570949506501
Se 12.569691920324187 9.706860855935435 6.11733077773007
Se 14.74099983912079 10.988614612397724 9.021255132623645
Se 13.515220839604414 9.061149664290868 8.32480034590364
Se 10.740298424730012 11.578716352113908 13.471268581095565
Se 13.289740838218604 11.234955072458785 10.982111982921543
Se 7.8118654638305784 10.924434370753056 9.143981655473771
Se 8.253470232182833 8.581901022804882 13.128840864845134
Se 7.403021621809572 13.190449957423214 9.769202746626316
Se 9.457358989723364 13.847372522968133 10.69887861032118
Se 12.335317822282907 9.128457505772847 10.586154274469491
Se 9.251661599973097 10.117187640055983 14.588048653138593
Se 6.107878348040163 9.652483174891874 10.163270758016933
Se 9.526653720269982 13.574055605135666 13.039849152401697
Se 9.158570728898075 5.9414062955703955 8.64822656636992
Se 6.27602727121374 9.772690463870811 12.487773333692031
Se 9.861284716996863 8.02517194151698 8.90839987120984
