18
Energy = -60.14709536 eV
Se 11.870500319396832 14.329860164775878 14.143246943703748
Se 13.6598262191596 9.393969037855161 13.460029382700826
Se 9.873254940459484 13.71647490486631 15.099380735887763
Se 8.455371223832142 15.417296047868364 14.192406096591336
Se 11.089000722444544 14.830582256314248 11.812495438702614
Se 10.001976488088253 9.500508748225597 13.03262480947294
Se 14.764285664549051 10.261748005051956 11.575521294788967
Se 13.305785713921896 12.118751546358572 11.01039724686247
Se 11.875200907947034 7.987969956572051 12.857021918984616
Se 8.832322791436388 14.4079817256003 12.065885653847138
Se 13.04411377625066 11.960652259907635 8.752640332931819
Se 12.453514797090056 9.23289138652564 8.163287047408723
Se 8.6385428513767 9.379574032142317 11.181759112979208
Se 11.164215365765662 7.216479118384821 9.126174939550765
Se 9.525724826264515 11.081346208354615 9.60865035444332
Se 11.141876147279246 9.644024583829287 6.38158082843159
Se 9.251210008669231 7.157514915553221 7.999482326456327
Se 8.940178054560114 10.299395047923163 7.570145823048515
