18
Energy = -62.03210946 eV
Se 13.959436007660962 10.388438577616292 8.429244526139342
Se 10.582774011077149 11.830827463138807 13.295131798472221
Se 12.02573437388552 13.457897818774029 12.397017529721232
Se 12.882257426763706 12.319619357228929 7.61794646199194
Se 13.745303681248153 8.679375308778694 6.788709297742807
Se 7.045822395136945 12.609961576670983 12.763539722459983
Se 9.18184921922547 6.6871801541539035 10.6104574526071
Se 11.985765233896466 7.254831033844774 7.32099242975587
Se 10.842997297321997 12.46738273535158 8.828084413944458
Se 8.739576523880917 12.93088184642686 14.330501044263482
Se 11.05146184702397 14.221996468184969 10.369909208371286
Se 10.29934600999516 7.983237940587375 5.703448696581626
Se 7.16927654406441 6.117820034628637 9.494916750640861
Se 9.20312878724443 8.945855467903362 11.231174690723444
Se 6.249873380497708 10.383330326540534 13.242292095226318
Se 8.222153394511622 9.152078220135712 13.404568058084052
Se 8.630266458679483 6.404706347392301 5.938713053551947
Se 7.068327315667412 7.338033722233537 7.493416861800406
