16
Energy = -53.78924222 eV
Se 12.827266379022694 5.643306150833226 11.559332912438439
Se 12.044008578898538 6.784907568325418 13.446964142134842
Se 12.512455707453203 11.519576069283124 14.439935318978957
Se 10.31588303880677 10.818617167253754 13.735065140950573
Se 12.089107202487632 7.005208086396866 9.678298220827612
Se 13.857269936124938 7.944610613496512 14.427622827393133
Se 13.950245995844487 10.043337865542481 13.34532506062464
Se 10.539048488549028 10.383158415900587 11.453278864974981
Se 13.782614207602899 8.215237298918787 8.851507664447103
Se 12.30342965469418 13.444540662373317 10.151000292469618
Se 7.88588112686707 15.497000284144152 9.664865129875874
Se 10.164076757151301 12.373465516193052 10.243576227812753
Se 12.273389709023466 14.990916673263518 11.83095416144981
Se 11.167239587968306 16.97925375594484 10.682514689458175
Se 10.30869807092926 16.127904975891347 8.80706255622426
Se 7.952037459066452 16.23428328331162 11.739254496041957
