14
Energy = -47.86735588 eV
Se 13.327558367426134 12.395604714233867 14.19925204431022
Se 10.040071933012701 11.510825093215765 12.811872615505251
Se 11.006912270294194 10.077708638499438 14.544645202436675
Se 14.590561491234684 10.623804719833817 13.768861103600095
Se 12.848580520463775 11.070484480784936 10.621960254385355
Se 12.612070902743213 8.757271648022432 13.67123253258908
Se 15.008586637138542 10.6415811058858 11.25034233138775
Se 7.8656829472738865 10.901061694528055 12.322505747570261
Se 12.550475397584993 13.457635675339306 10.701373330249389
Se 7.9392303688848465 9.340961694217214 10.469071617431993
Se 9.618154394520026 13.745977013914008 8.443779516721225
Se 9.727071384952811 9.98295038853373 9.122737537919805
Se 11.964967346303032 14.02934893485428 8.491480089690185
Se 9.169752445487212 11.631607613036811 7.501364149480873
