18
Energy = -61.63873191 eV
Se 11.548535468614858 8.282482354399937 8.657797960150923
Se 7.6854183011661 5.795758837282207 10.154458146249185
Se 7.861150921692396 11.001120384300611 11.645066593960566
Se 11.970730105451535 8.374991814800401 6.312283093863106
Se 9.04456260721865 11.244365245345872 13.822616495082267
Se 8.561667897547672 6.1462523672605025 7.97851326120618
Se 11.026199578656245 10.269773091150812 13.676143250527266
Se 13.03920705809556 9.78630571749271 9.618634197000365
Se 6.844990971198295 8.964493097899133 12.086477099851999
Se 8.549461541348364 7.323078034973447 11.706537553133641
Se 6.850993882024642 7.075189604747196 6.640082243402534
Se 12.018517532261153 13.221479065702127 13.154673659441372
Se 11.585420051160305 11.74878434555856 9.5132668747889
Se 12.627356337610752 13.354023242679194 10.757061433855418
Se 10.775131542124099 10.27099165991129 5.571272270437809
Se 8.722552946191655 9.592658158180877 4.638592282600079
Se 9.885548760129735 13.874273802837582 13.389218107305897
Se 7.182632178216617 9.394967915531621 6.423913485130925
