19
Energy = -64.21783712 eV
Se 12.133131475701708 12.273781172900216 7.938194521601066
Se 8.696965314880318 6.927040488584513 5.838495162927389
Se 10.59503222338126 12.977747681339977 9.626715438001268
Se 10.233526187200761 5.915033976354978 8.621738875367615
Se 12.241404247823807 7.19246491141953 8.214673952965695
Se 11.806864805505834 11.786126030179929 11.33466527253155
Se 13.578701201774287 11.177631409387443 9.380962071107923
Se 7.816412536450524 10.383887696776558 7.066743644179674
Se 7.403428182118412 7.927570486111075 7.3272727152092205
Se 13.54359657225556 6.787248658516061 10.113618732918047
Se 8.668104712705771 7.198158186990371 9.621043722328817
Se 5.744593470268239 11.226727722878271 7.706442654881453
Se 5.982305381203551 12.26566828761828 9.832351385414883
Se 9.800844559020454 12.70753149681646 12.698820586868676
Se 13.792665229636802 8.833234959759013 11.351879396676178
Se 11.855723347749759 9.378650667875046 12.495769217641959
Se 5.538902116336046 10.676911084836378 11.515047325538035
Se 8.834337772745117 10.776459098603354 13.591231371834512
Se 7.632984381667845 9.64803116091948 11.886565625161175
