17
Energy = -56.66490056 eV
Se 12.420112326215444 9.809750891422159 11.835667533883868
Se 10.25125167794973 8.04367344961107 7.692731447000303
Se 7.1223744265058935 7.036391074569302 10.96194904703326
Se 9.902316434544643 13.306645999377466 9.789067172471206
Se 10.659133386652082 9.553316015191804 13.25834720795249
Se 12.536227930118757 7.443666443169278 10.592016852047774
Se 8.721478787140837 10.409520327986986 12.073190982073701
Se 13.321028590874509 12.997773313858229 8.927473660659171
Se 6.5055509527875355 7.724693185333411 8.699542115319707
Se 12.457868216733061 8.336685405143896 8.031418566961621
Se 6.946274790682867 8.894729453802483 12.36480333597086
Se 9.491144149225521 10.28610515580817 8.281774598722645
Se 11.20343577234692 13.266457914645834 7.797057661795665
Se 10.460805578204731 6.71203608275347 10.792556884180192
Se 12.787818467143415 12.960018338370924 11.113336145648908
Se 7.111721051600349 9.964807253334943 8.501390737846025
Se 7.798744241273669 12.951016384708524 8.984962784976554
