14
Energy = -47.47552849 eV
Se 12.616101972933828 10.928591942816064 12.923675568053017
Se 10.012092314685656 10.983495631102489 14.526888869384642
Se 9.006591609426184 9.599974802966932 13.075458612957306
Se 8.867879989281478 11.276161836845182 11.1550157391203
Se 13.90986339489661 9.19143030649584 11.836577764065431
Se 13.139743955505358 13.016496839728394 11.893444294508974
Se 11.592493325379381 13.60131350950285 10.23581014761705
Se 6.991296245803448 11.031677640593003 9.924681475017728
Se 10.56040479602192 7.679759118069179 12.231404468018036
Se 12.421920990136961 12.535274152665085 8.221136790155596
Se 12.102850259421494 8.278143123927551 10.63535860092613
Se 7.648690676278593 9.708119389302098 7.883701962443068
Se 10.572889839565766 11.899765492468484 7.018673827356917
Se 9.915071719222244 9.702973131354131 7.914679969478784
