11
Energy = -36.52850006 eV
Se 13.721420283896043 10.123757557819738 10.661249274754448
Se 12.025277617381093 8.927665026206784 9.465658885744247
Se 11.478496714370639 10.39825663171886 7.724900158724246
Se 12.73101827587933 12.147665157042697 11.224427768336662
Se 11.192535346392095 11.569547018641192 13.043679694212386
Se 9.76240948874736 11.643114414589522 8.736861929968118
Se 9.317585122118027 12.715327153432925 12.657977059891978
Se 8.940983777141685 7.296064983797331 11.757535679745207
Se 7.744993338856565 10.736061163223166 7.836568735067266
Se 7.2716722909899065 8.42197766369486 10.792852668256849
Se 7.748009551366083 8.480004241422698 8.399924995183316
