17
Energy = -56.67812818 eV
Se 10.153262167676326 8.536273456590909 13.387385331471505
Se 11.377941709900897 6.346218500385463 13.530081375490727
Se 12.889882732743033 6.609068227953585 11.852001542561355
Se 9.20499969386701 8.52803039932863 11.088564607972424
Se 10.892193250221549 10.75192721946153 14.364399797632984
Se 13.515688960368562 8.941732789029485 12.759969785999173
Se 15.088108487750876 9.400866479727789 11.066870484826358
Se 10.014077058921476 13.47426021344625 11.855411247877083
Se 10.219660521817573 10.084913625890724 9.707885649187968
Se 12.674384964399092 11.393632465405254 13.097392698178263
Se 12.146507039530752 9.161703514759807 8.629389550124907
Se 13.846044795376262 10.577763122950678 9.402216624907009
Se 11.53963652491063 13.855991687569064 9.784223530206805
Se 9.02902341017023 15.493228385997496 11.950580042371362
Se 11.150180966556677 17.003529736831457 11.771901766429565
Se 11.021035580926263 16.00733903392728 9.354375782429694
Se 10.474468668639217 19.107505973644027 11.664500070592494
