28
Energy = -95.27533514 eV
Se 14.51103346553455 15.54451995238418 7.922523080688947
Se 15.68849705183638 13.702883376078146 8.55403488665875
Se 13.667280682315587 16.36129592124491 11.530402546693736
Se 14.61735948187598 13.000902369702988 13.280525183156838
Se 12.682772678957768 15.923921997356722 9.436798731932775
Se 13.662678821310156 11.799699432237832 8.641794978537282
Se 7.218088411500366 14.408064843295868 13.978160083490337
Se 12.980254482636472 14.694269195656219 13.048958614017288
Se 8.630656697133384 14.160837082440649 12.142527514170075
Se 13.612787401231497 11.07392659282508 12.36791173887832
Se 14.698424446583171 10.534277498974689 10.336910144591693
Se 9.89749468237345 11.661235862929445 8.158116662762966
Se 7.527608074417416 12.619075860302635 15.560109965145672
Se 11.742262417400543 7.226941140933079 10.855646302585596
Se 9.329844776303371 13.05972291958238 16.888033210962547
Se 9.471841881774958 7.562748278945524 5.124041326075516
Se 11.769803679651217 10.389449241076802 7.7653592795690525
Se 7.480596779203949 12.681100655079291 10.620013075458983
Se 8.86646491463357 10.863375181272605 10.238502171836416
Se 11.190760994434969 11.83715262609518 15.651855667665219
Se 10.08917000816823 10.709171830687472 14.027811578531693
Se 9.360120058927295 8.627484355053282 15.125935520281415
Se 8.640453233513913 8.116190091693252 7.46350085581186
Se 10.239011870168301 5.494366795626204 5.237057968948631
Se 11.236754173169672 5.854884374252655 9.013819765579072
Se 8.942338540329466 7.216609946099761 13.331819282602565
Se 10.984958874541736 6.109162178495888 12.792264107980092
Se 8.914752167304679 6.098557248407054 8.501294577517514
