20
Energy = -69.06042937 eV
Se 11.394451771363348 8.565834578111346 4.915192991169171
Se 9.475090214537882 7.763999716570142 6.0188787689582846
Se 12.961939905800385 9.174201392944592 6.581217017532654
Se 7.8837448609251695 9.51792307318254 6.168796982983448
Se 13.144806914488676 11.51639423444887 6.612786020982854
Se 11.195858401638791 12.349696290779015 7.676781934507057
Se 7.821997590537691 10.33680616777602 8.369794287491775
Se 6.2278563435026095 8.915221153748615 9.420326608285336
Se 8.557543938856957 5.927110415900529 10.178772108188227
Se 10.713428165072898 6.826033718968144 9.771409908220322
Se 7.8425041381829725 11.97596544702681 12.757003557436452
Se 9.106291609315853 13.755564725139665 13.732443694911804
Se 11.162744055328723 11.532399591227197 9.887052234883877
Se 7.382245582987482 7.749186353107868 11.107605314078928
Se 10.284868743564298 14.55638912110304 11.866802681521255
Se 12.10495089094411 13.122979167012874 11.377901309299368
Se 11.815668657185295 6.91400016886157 11.847846175519043
Se 8.140708877848466 10.100142460491305 14.132805473142655
Se 11.721109318461755 9.19709412797084 12.511519339470373
Se 10.440835070890033 9.581703147062104 14.44370864285
