20
Energy = -68.85889028 eV
Se 8.420729201455721 8.668775503586065 5.196663075867391
Se 8.641508027002104 6.348618294453772 5.845278752785999
Se 11.896530662987155 10.2699080844601 6.2350543165309995
Se 13.123232796670065 8.417687849513808 7.195953347476084
Se 9.643022626730904 9.881081392416975 6.808878612200395
Se 8.616559099155026 6.410393387808867 8.190446625251512
Se 6.473245826027507 10.254973182765156 7.761674836558824
Se 10.640779153210541 12.175958946913102 9.004459678080956
Se 12.004729216868617 7.986860888426141 9.212944761326117
Se 5.38416836061117 8.216943517019198 8.473319015160707
Se 10.865037691030299 5.948197537251668 8.789733931486113
Se 9.125281995100021 13.338033385331268 10.380832703483577
Se 5.579312359698619 8.043987999980443 10.778374127513027
Se 12.330845874753178 11.412838364734814 10.557353153970991
Se 5.830527358545821 11.820545731635079 9.39594597562785
Se 7.436445456759962 6.684299207768151 11.475853839834649
Se 7.545954257366546 11.700474591816127 11.014676608443864
Se 11.2757597594935 10.674614992673236 12.484360839423752
Se 10.920669357421723 8.29705646978077 12.522869497844905
Se 8.670127930256559 7.873217682810495 13.099793312277193
