28
Energy = -95.30753891 eV
Se 14.744011590619921 13.308146299398278 13.134526691349363
Se 13.275117032138239 13.009288202104747 8.253853844479933
Se 11.373910804122112 14.289246801499816 7.172896335858149
Se 13.292916589662827 14.430420967938021 11.734087189928726
Se 6.078457499010256 11.303002697933055 13.502701655632888
Se 6.730629632927397 11.579369883640505 8.464362530225412
Se 8.330381371371939 14.018292176576908 14.90229380196024
Se 11.757595053160966 8.012419209212391 7.06606058475696
Se 14.162714859395404 7.5248638227296745 8.297731631246076
Se 6.5525959061663395 9.768569284609129 9.967712362967188
Se 11.27109295445455 7.415822509690464 15.402258413743878
Se 7.613939454456214 10.255801394575426 12.023645830323794
Se 8.306446112972923 9.50520643301784 5.6351337040939065
Se 13.488922347221656 7.254585442878401 14.594659299800757
Se 10.510537974179053 9.166436720767921 5.178520261361896
Se 9.575696556610165 13.800353211786959 8.44602400277914
Se 6.537870688770402 13.609808121175336 13.414953484273953
Se 14.48481278925418 9.785585484371637 8.241303149488042
Se 13.52853654173792 8.930443748627045 12.919965782451447
Se 12.244802714446955 10.320820211954699 7.362076482610332
Se 8.798455808080421 11.510028229055255 7.3294733315905924
Se 11.3513973825567 11.963448446324325 13.700527115698431
Se 12.32516955532055 7.903062884973486 11.14628017571588
Se 12.437508173770588 12.6179952791583 10.384394185337053
Se 10.077487640649363 8.034570590719317 11.967278678045872
Se 13.241351529688869 12.546561468837966 14.910477784836976
Se 10.026472714310518 6.392513221138173 13.66948575483777
Se 10.241949773856472 14.104118260761803 13.538096849148815
