29
Energy = -98.20322562 eV
Se 13.629554447007354 14.798377376272468 16.313471898402085
Se 14.695865231849746 15.640331286111065 14.320231754601588
Se 13.086672515308235 16.369999226255477 12.898611160276355
Se 15.010021733833916 13.184314486556426 12.128848292977326
Se 12.663933801361521 12.694152292916527 15.858256928655068
Se 13.76325132679817 15.905739401607311 9.642588792681464
Se 14.07336427058349 10.935919582774599 16.466852584667468
Se 10.194239446468325 12.944547071518246 13.282747330199037
Se 9.616835203673668 14.771452764458694 10.048267454110777
Se 13.181858380987638 14.155152396583308 11.282438958244065
Se 9.115641477523377 11.184341426575685 14.34459450088273
Se 8.469216727542031 13.71867747911725 11.747673769313646
Se 15.415595459384582 10.390456542709254 14.536439232290503
Se 10.174219626858868 13.135297029277071 8.193041615818926
Se 13.277836776995677 14.926204132460398 7.528143662397841
Se 13.948364576958342 10.376950318000093 12.728773336093237
Se 9.283782659147992 9.094010715197214 13.108826541841482
Se 10.955177027234154 7.871480296276126 14.060612226036357
Se 12.06141566590046 12.075795524566209 8.69859061749131
Se 11.097717763843383 15.419928202038653 7.080855528196936
Se 11.769780026590864 9.331130764837331 10.620061595273553
Se 12.800528705805041 8.163074664868466 12.266115686998388
Se 8.650837401911227 8.94111422253865 9.164198732748545
Se 9.180284631153137 6.71052558272554 10.555608760268939
Se 9.992251173796905 7.887488201179636 7.063141091002585
Se 7.365651206286383 5.580424063987525 9.743568048632735
Se 6.569129688186141 8.581825916096278 8.543582412839779
Se 8.18727224443265 6.742191896144363 6.310462602898411
Se 8.087653729065826 4.7203195731178695 7.624806643583223
