28
Energy = -94.05281241 eV
Se 14.173211404081691 8.142458240126853 9.964210473756527
Se 14.985821557807329 7.421171878822297 7.951797555388686
Se 15.136033623303677 11.518690343668773 12.035611470701168
Se 14.27656923055795 10.500321285349719 14.170333333601747
Se 14.255997303180111 8.995911727162667 6.232747837630259
Se 11.875951281906588 7.2472461391896585 10.357096485075319
Se 12.090359396968823 7.887327572582742 12.647527082818335
Se 11.485337616804824 5.616474524053857 7.813450831535303
Se 12.228461347472146 11.372256130670332 14.51296929281761
Se 11.980903305177279 11.001041729317144 10.008466970543006
Se 11.951220928898389 9.070455990805597 6.449879403548998
Se 8.65598343163336 8.74914289168485 9.32593857430431
Se 13.378686545649769 12.650633207348962 11.145731244980052
Se 11.232564683120593 6.771548543219572 5.886076504805397
Se 9.085951984076853 14.03614838750144 13.482664896526371
Se 8.865558433485383 14.125189435496253 11.17002975727712
Se 8.218671778658834 6.9112671173928515 8.019488928320666
Se 8.738414269352822 7.587542171249931 5.869868569405393
Se 10.5893216650898 9.784791466414314 13.336052812183752
Se 10.108432764761833 11.17359943950416 11.371908755628471
Se 8.697819487446544 11.843820212139514 14.20419282286349
Se 6.482155288182157 10.168430237321752 8.543862137556388
Se 5.767162218893669 9.048834901096251 6.759218309714008
Se 6.516826959956969 14.61138394760414 10.261304551284045
Se 6.813795774160396 13.71504229377448 8.234990832366194
Se 5.062718894811266 13.250136016812174 11.815366951010365
Se 5.977084876103813 11.116713652651274 11.99353955746646
Se 4.909539927049817 9.718853305712855 10.444597880186587
