29
Energy = -97.23745466 eV
Se 15.765943601907898 11.165504191981654 14.658785972897029
Se 13.908799629643859 14.438028987476116 14.738003187050076
Se 13.904547007757158 9.86635229477639 13.848801795319767
Se 15.629655801745608 13.17230185325056 13.536189881109983
Se 12.979283110846383 10.447378981979686 16.47040115138679
Se 14.281520755914823 16.541575244482996 13.783301359216358
Se 14.859480795281648 7.65078776289913 10.883780340794418
Se 14.47020110042029 9.890290549164533 11.435147024139757
Se 11.950891147272406 12.979416597994412 10.938947451108621
Se 13.480458801779552 16.61593103399012 11.534461842126314
Se 10.774043005462042 9.812595137009858 16.604177174925244
Se 11.118930890769365 12.450495585233982 12.975980937399768
Se 10.419102162299163 7.742438119985488 15.570845708346297
Se 12.833958609862368 7.081699834851453 9.750974743205367
Se 12.08729150340761 10.57148205636608 9.291575530726611
Se 10.58354196033288 14.683271210971428 14.37093614321171
Se 8.829345729644443 11.758174570061394 12.34579295652922
Se 8.349938070472632 14.99602458301104 14.329897566841657
Se 11.409195682605665 17.66462881002418 11.322907897732172
Se 9.68302695441471 8.291753880692152 13.20108877766736
Se 13.598611614999207 12.63714310444307 5.459714961886926
Se 13.309567564291244 10.443098061684328 5.306440306702439
Se 8.588735856969185 6.455849598664442 12.614592121394704
Se 8.172066186408767 10.245378395943094 13.933911885039374
Se 12.848411137865897 8.607973467026632 7.972644688273021
Se 9.75055430324165 15.93107958212404 10.97140807700078
Se 11.782580328903945 13.467865672670523 7.024622941871844
Se 7.995288556564808 16.465421199005398 12.342875935777966
Se 10.688775762488662 11.536624995188452 7.562208132793435
