21
Energy = -71.24306355 eV
Se 20.210932687061778 14.36378878813383 13.970099405199337
Se 18.73916859225298 14.60409683569207 15.638536102753596
Se 14.863706932020548 11.333223071485875 11.04836565164477
Se 15.409670576766574 9.5303936710979 12.490227326993185
Se 16.809891783468665 13.157056723602242 15.308532645821977
Se 13.641992245988495 9.459584549061066 14.056871996061522
Se 12.355905586214456 7.612058171193164 13.363570062835093
Se 12.558838695929854 14.086836525920104 9.62642711223723
Se 11.35418486451901 12.267522756699284 10.321068585793297
Se 8.60789903961297 8.093435785242718 12.857674021335207
Se 10.70843766343136 8.312924438556978 11.807035010270353
Se 11.452450878933071 14.642530140808331 13.219325851574682
Se 15.591982408520298 14.125152661854033 13.549356029712394
Se 7.861303273212327 10.119783671427308 13.803672209953687
Se 16.383408054067104 13.052338928473716 11.591443642257081
Se 12.811985422840142 15.534445804689076 11.693653385054162
Se 6.632077721092117 11.224248516516928 12.113093314578652
Se 7.835401084127427 13.168279265345259 11.512169659689528
Se 9.315653024031503 16.10541180675572 12.76689071701841
Se 9.108290623826068 12.692925902628366 9.588798960640077
Se 10.017253114472398 17.476404078942117 11.195408018218735
