21
Energy = -71.80243661 eV
Se 11.348450178088946 12.95456889569169 18.144218901098046
Se 10.416812117033782 10.788842581866932 18.412191760643868
Se 10.271499323076277 15.304872157544727 8.639120239568113
Se 12.178375284197376 13.403324130707963 12.019736035130022
Se 10.332706033127852 9.816970966260794 16.26795633113892
Se 8.993599186288451 12.582708805299301 14.025132863037486
Se 12.128572292042684 16.209149920294184 9.706682927495153
Se 13.590874433810892 12.76599981658004 17.468892179238022
Se 8.440162171268177 10.559993320242677 15.021954616401947
Se 10.716583994548397 12.929825148496413 8.734858344116999
Se 13.324173021870534 12.677576296184839 15.094397556253297
Se 13.768268459933362 16.447925004552054 7.96985202155708
Se 9.225090084030231 11.935301571763203 10.140655600164335
Se 14.195018751018173 14.37447447935975 7.0258644417464655
Se 13.433493398063435 10.345515382909985 14.680287477513847
Se 10.661317911510757 11.795670566830578 12.332065518107706
Se 13.665361335852381 10.360632333481753 9.885879334371184
Se 15.861189937506307 13.225203199329982 8.353950001896102
Se 15.441994580733445 10.095838948195244 13.410774708201798
Se 15.191662262625773 10.993599517133484 8.178499374182318
Se 14.746505012509301 8.974490743654721 11.466121323572452
