20
Energy = -69.05212788 eV
Se 8.83024180430183 10.152603601908199 5.314010652445158
Se 10.857570776367526 8.970301581802369 5.27760956759901
Se 10.568925640641837 6.626761925691166 5.289202869810254
Se 8.473020856744693 10.466439420011623 7.659698642644923
Se 6.300584587138961 9.69946076331563 8.122085751388198
Se 11.871033788708843 11.433849537731613 7.745259094470721
Se 10.0611079423658 5.97993302475616 7.513734049491607
Se 6.306552400602999 7.325763487463331 8.176440258490011
Se 13.02612168336577 9.94990279039475 9.078975500199947
Se 11.137675040059268 13.216634684905282 9.347899615556157
Se 11.563672947604596 8.329389641446625 10.070286452019134
Se 7.694373944634499 6.582909553348627 9.916536991853812
Se 11.945740256165545 6.325455609754401 8.888648051323786
Se 7.585939233077051 11.476172106136167 11.32611236466027
Se 12.349824690281231 12.926349561885745 11.260422386337265
Se 6.356438166597224 6.520314027009261 11.880502080647418
Se 9.048585182859078 12.500378719281583 12.90234315131929
Se 6.10697524862761 10.259022774976133 12.693672530579882
Se 11.079134059588043 11.381902746889189 12.628105682948927
Se 7.188551198971351 8.228523889996506 13.260523754917953
