21
Energy = -71.29386801 eV
Se 14.335823879967487 7.632252392254685 9.324160410006437
Se 15.121451567197422 7.945726024733346 11.515261713116448
Se 14.156421084116724 5.264695667507821 9.021637409844015
Se 12.2686638702783 11.17550449398052 9.375497363271295
Se 13.612170965621326 14.034748619059252 11.350552183913296
Se 11.755081665685879 6.234485926791352 6.548771594176221
Se 13.17242310738095 7.873432517459874 12.859148672968498
Se 12.169749966299497 4.626118359384223 9.952765244746343
Se 12.284435592278266 10.053763005594917 12.941554187717026
Se 12.111771070630414 13.513998544886212 9.572961750929327
Se 11.617816211724001 13.33411189847715 14.638979940211108
Se 10.545930913482788 5.2380441509781175 8.109825850920556
Se 10.869929623543843 10.245920515893822 11.044300760250545
Se 12.399461246493217 14.99249062582353 13.102551733777162
Se 8.431536757099693 12.644309318222206 11.162764645334784
Se 8.233135524260833 11.917903169281809 13.373490028109426
Se 9.284445895995171 13.635503852567481 14.629516795110488
Se 9.152059316726026 16.33467783785443 9.759832523346676
Se 6.541188062816612 15.652759841028313 12.421113518524642
Se 8.39479525092657 17.213277026571674 11.64346413252472
Se 6.499017409140326 14.078007910353588 10.7854279191217
