29
Energy = -97.90023706 eV
Se 14.905398538004535 17.708678598130728 15.720045746506365
Se 12.495893996098399 10.759017743804861 12.631599826658205
Se 16.820287816011888 14.670503030144667 14.146509641824927
Se 9.286296354677907 11.82391283951449 10.957319502369007
Se 16.703253168118305 13.438009730817017 17.606231348801987
Se 14.087619244443397 8.116763413868355 14.839170314769653
Se 10.55769059403544 13.041143908955664 17.49233311789459
Se 10.833286605399355 15.254239205657784 10.315418082509069
Se 16.21009842845436 14.936483679472698 10.003093807121932
Se 11.64226684728991 15.112241120330994 16.96492864059868
Se 10.775223346324601 14.628266351919128 6.544026753375483
Se 9.018510536203301 14.230032013696029 11.375678325396246
Se 13.267254094689202 8.546004468111995 17.00042761221817
Se 12.995463979862848 15.296680738058335 6.071920512338756
Se 15.363358202749174 10.516865607226578 19.594661938420327
Se 10.961361755145303 15.215525010415197 14.762191903626013
Se 11.417571485531667 12.671331988989019 13.939240753541633
Se 15.05111082032265 8.431298579135309 18.57157164334778
Se 14.507752837094351 10.118704571966918 13.616860704916098
Se 14.544167499308848 13.511633109124942 9.168263944315187
Se 14.417854702208851 13.566837029995884 6.808693248908302
Se 14.569756700475917 15.766172149046469 14.705464475307906
Se 11.933569469517288 11.754078260735442 16.118094533057864
Se 10.10144395322927 16.12034732038404 8.229007465250044
Se 16.315256361722486 12.748137702905394 15.278515944306815
Se 9.28086656298291 11.43648463351155 8.757387043655976
Se 17.346387815656186 11.50327838155158 18.689958718264236
Se 15.062807489262818 16.8693722337768 10.830622624172628
Se 13.51335092791385 16.12507653915403 12.377479338559237
