23
Energy = -75.90107661 eV
Se 16.433700599597252 11.193459812101493 8.833698361953331
Se 14.190835676537796 10.235464408803871 15.380467475269011
Se 12.532899094750071 8.93872372190203 14.709771481191954
Se 14.992838642745854 10.339223875319652 7.381299045583474
Se 11.112355258017264 10.377642772712193 13.124636536188648
Se 14.186668670547665 11.885607142164552 11.420511727558534
Se 12.434319588356802 12.267849029060706 13.001555375383532
Se 12.778982708893901 11.438400156716744 7.947714750416113
Se 13.519103806741933 13.010753950232743 9.428274843805026
Se 12.298163777279644 7.065677735914149 9.076604099557294
Se 12.034033226143656 8.565226941012618 10.907961843751592
Se 9.081260737455409 14.446021792488763 12.472687769292268
Se 10.292920559090835 5.848732302881506 9.494077606022064
Se 9.699911295201211 9.854953286124832 9.309259135890112
Se 7.8104309230845 15.86706533650843 10.956921684295411
Se 8.029835122535639 5.294750536945653 11.244871773950916
Se 9.327296635806745 7.89265805515421 10.704092378001075
Se 7.949546798581824 12.554723293993744 12.859273327945255
Se 7.14791252942109 6.990921782903814 9.903072103021648
Se 7.581947463072078 10.06362176498136 8.218803262600975
Se 8.003252161069687 14.76526302246313 8.90418044064325
Se 6.230512040387251 11.421387766347028 9.617977309102894
Se 6.0415567787951705 13.492142774300097 8.523202933201674
