21
Energy = -69.36624582 eV
Se 19.73905588478057 11.053960389439284 11.110668006308613
Se 18.17621509832612 12.100862679503726 12.296832362413172
Se 16.79174536039316 10.33008743531219 13.454702451216553
Se 16.848305149820554 11.994058136965487 9.730234822968075
Se 17.066123553242864 8.79456034661684 11.741456495299975
Se 15.712955773062905 9.827539705168414 10.132405559160803
Se 15.152840922248751 13.140285408639539 8.854286564151483
Se 12.561715639031602 11.302501137727296 11.503600170271548
Se 11.40507469472858 12.865236321253752 9.78613511634139
Se 11.708046894903248 14.568114508910519 13.833425062268024
Se 9.55646406384448 15.486877143276464 14.224859236618522
Se 11.8793487720547 12.520881656986093 14.971861899637311
Se 11.390025858537514 15.013714530929303 10.338176121422814
Se 8.01114486082556 13.930868806424595 13.373542180032002
Se 11.104099750627356 11.011258048677163 13.265252111409165
Se 8.061880938561265 14.062695898256658 10.960314021583454
Se 7.404635390221085 9.627123410232944 13.609963654442591
Se 8.929003246794792 12.083587611641741 10.246566556911281
Se 5.703326900588499 11.225729624645663 12.999644556895747
Se 5.907115677253246 10.260647521520337 10.80634938733617
Se 6.2955228179373535 8.202694951737442 12.010365399640785
