24
Energy = -81.84270934 eV
Se 8.724392826456105 15.114309343472874 12.324339848331162
Se 8.170931713064999 13.476425258415924 15.752250992804374
Se 9.83320325949905 13.865101037296489 13.850868598458424
Se 7.682834061810228 13.510255557682557 10.702774270656999
Se 9.373506280641903 13.475048377208562 17.61921950852301
Se 7.908801806748328 10.761875566061786 15.449994064371394
Se 9.31657897678741 10.22951201570062 17.11690636562229
Se 10.783544165124374 11.243581533744958 10.292975708789593
Se 8.55662087507183 11.454872477165248 11.186389237020316
Se 11.469658566977156 9.833787330459153 16.030163937337868
Se 12.985702139761868 11.206887569469144 17.15339101495736
Se 13.791734271836368 10.74713410120429 12.115059875297998
Se 15.971930797895494 10.275907844648412 12.658121304704734
Se 10.572290974860374 11.273503601027334 7.9553575435059
Se 13.139060646634544 13.775537185588986 6.528394846749289
Se 13.553922443929089 13.131472094317864 12.437848457014892
Se 15.634210027151653 10.075412415731135 8.682073498229816
Se 14.537754020651121 13.526949021277725 14.525883060266679
Se 12.860961510773908 13.373050174151098 16.189085422839142
Se 11.000706897995315 13.556037614898962 7.468369020864062
Se 14.75167591872243 13.83462523106969 8.260225152289236
Se 17.494597610595978 10.439625394198286 10.644433928047448
Se 16.169415882261777 11.99417882682675 7.629773858411048
Se 18.13188681970799 12.513349066651733 10.186823565793256
