27
Energy = -91.94347488 eV
Se 12.490830229941624 14.493228980882845 5.813627814334553
Se 13.031072406876293 10.23581751235824 6.819743693723008
Se 14.774666345545445 9.948652842693656 8.315873880065851
Se 11.969069925764325 16.525310069976687 7.1303971659582235
Se 10.721342260401544 13.090089915671953 6.158327150381927
Se 14.512189497617161 7.795169215099915 9.28139436640095
Se 11.236303490797427 11.523826792698845 8.087945405302913
Se 11.454529999131774 8.951206506098293 11.13194964466036
Se 13.00037207229698 15.242642692136405 10.529198146265395
Se 11.086529192913599 15.76408193041578 9.089480500215043
Se 9.296530333647173 10.425439081077721 8.03245254811106
Se 13.637854701568898 8.136372502175194 11.454011239951175
Se 10.042276639896016 7.163667128115041 10.460755142188631
Se 15.58158202520041 9.487132638445262 15.141115484130191
Se 8.872734527591689 6.611572482384537 12.411138061180475
Se 8.142059036737601 10.289806514200832 12.493325740644238
Se 15.622922781042568 11.393694096951064 13.711028492055384
Se 12.15208794633315 15.682318307124756 12.645583845914128
Se 8.874181069058192 10.724194814326994 14.739191478790435
Se 7.091743114040312 8.202651830437526 12.443220171284931
Se 11.058336095814369 13.681458263383107 13.316571256425053
Se 13.343725888962432 9.430221995949154 15.70369293188707
Se 15.053111938096361 12.69446072807875 15.63952267696337
Se 7.941647903706195 14.33162123188647 15.151887696497763
Se 8.734908216406076 14.15411626211269 12.982012392822648
Se 7.216557650117749 12.051152789496571 15.658406494548457
Se 12.936131017869608 11.879331696629162 16.0269509685227
