26
Energy = -81.21468458 eV
Se 13.17820658721352 11.522838172387262 8.909864852201546
Se 16.86054166012314 11.501561032259167 12.121597669110134
Se 13.124041421471361 13.453815329294015 9.954524799703782
Se 14.585686082659137 8.452263022530325 11.64808091930298
Se 12.88500915215344 11.569560715245734 17.966903842152988
Se 10.623221305278559 13.586499063519938 11.925106523092024
Se 17.88088210766001 15.698135563677749 12.786444110861284
Se 8.170610574347148 10.171513039512517 12.026832317697925
Se 8.672535430108125 8.05039510329451 11.155951577154253
Se 14.151617716629305 14.080459857204257 13.154754173121136
Se 16.601085239160135 14.917545383089744 9.84571314969514
Se 12.468689000940126 9.752982370813458 16.784610225585528
Se 16.094335817443856 9.806836230879755 10.568911138333647
Se 12.641938207607435 15.50417270378126 16.096475205564282
Se 10.743912241443489 16.308405506200543 16.916747215314377
Se 17.869025102702878 13.004451779044897 10.675738429424198
Se 15.663220121746198 15.634011203905875 12.183777895143733
Se 10.887071752602049 7.64049314577403 10.447405817440174
Se 11.45643425107914 11.592121852665704 12.911574390266477
Se 8.457145239336755 10.797804459741226 8.435213493744055
Se 9.611692476573754 14.761661729082567 14.417572474157032
Se 12.093267348573383 9.487257748178827 11.617746615371923
Se 9.58736914682983 14.20484137277776 16.791416954029174
Se 9.606396395929803 13.874749825430222 9.526101385628401
Se 7.3702918844754866 14.150614164157586 10.007856392099802
Se 6.940909169512651 11.157155229837329 10.023886673789699
