26
Energy = -87.74568409 eV
Se 11.555237820662738 18.185240721164764 8.886232010442448
Se 10.117786686276279 16.281885023711684 9.142045927824414
Se 11.313991803433503 14.771025746375622 10.3641396167451
Se 13.180087211722533 17.316865118242884 7.335243062760507
Se 14.440005472835228 15.832319219413057 8.49850290872475
Se 11.404051026623883 14.621725450535337 6.57153227820046
Se 15.769331741784976 12.673459281507556 10.84076572579503
Se 10.987600025831584 14.419702898526102 15.467491807073577
Se 13.023206019581776 13.406342270041025 15.747660910770074
Se 12.65516463136393 13.819952403763368 8.18921135137191
Se 13.799146108285658 12.127974262213865 11.803925952264443
Se 17.343883739245324 11.072584037885667 12.091416610753646
Se 12.603397192733718 11.862903239146577 17.70927155128052
Se 16.090260687442143 10.133399860581124 13.661547429015855
Se 10.215552545985833 13.86630455840242 13.231370619865919
Se 8.20476674099598 12.642873063851448 13.099504154309095
Se 12.874159448343761 10.323033078378254 10.312605071757151
Se 12.924297822744956 9.3414152972778 14.63842007992672
Se 10.527192331793225 12.264386461638955 18.35657805440411
Se 14.492153017543606 7.278537551938467 11.878260257022312
Se 9.53782577582607 9.756032814205291 16.178577356919664
Se 8.781100694800447 10.415387472761084 12.561773145093634
Se 14.575047382625955 8.91012348824441 9.913242137930922
Se 11.454048181107344 8.361451302588998 16.181607953822574
Se 12.485157469202035 7.757317767809965 12.808514821291253
Se 8.083253855136796 9.133319411484479 14.423402559114585
