28
Energy = -93.6383079 eV
Se 17.33761335848328 10.060023719601048 12.569498164941743
Se 14.984538194462248 12.627001176213158 5.177956475552817
Se 17.514234429942565 12.04503130273126 9.43678046690922
Se 16.488338841102575 10.139491177804972 10.324522744009444
Se 12.824532595034905 13.512626936988408 8.184511583903564
Se 16.833596482546916 12.136783632150959 13.473868595666898
Se 13.17830179318083 11.937416538483463 6.253667882682883
Se 14.852411239658961 14.611188765627745 8.287157943151819
Se 14.418901756667774 12.119697546313681 13.898043273676597
Se 16.064736107089736 13.772012274507668 10.157409642328853
Se 13.690131055230216 14.07349297400484 13.084969594277881
Se 11.311433853667804 10.380623796940657 11.666002426656625
Se 14.580262160856144 12.010632588533039 18.225544921810403
Se 9.605807472246882 11.599856245236317 10.651413167801524
Se 10.415086409421592 9.55577503520715 13.849298253745928
Se 12.908664086696003 13.351082491937646 18.972759876664075
Se 10.820356267907272 11.742541727309904 15.236302943253543
Se 12.617262582606083 18.316650632589926 13.8807853987591
Se 10.178601510898867 13.913238338254141 10.612635831358604
Se 11.081100337764344 17.182378410284194 12.41806377762631
Se 11.924601695650017 8.076125240715198 14.550161112196008
Se 11.91986998727342 17.04847533328433 15.760660424301479
Se 12.10327695202354 14.392107980758551 16.840720129130997
Se 10.241137374089227 15.780647262303363 14.13149515608974
Se 8.811392099350316 15.147906218826543 12.062660717964373
Se 13.418755146003592 9.99715348270126 17.21073833255996
Se 10.217110199809527 15.526617762413009 17.446653402476663
Se 11.210869184251445 10.653728580011688 17.25731088896159
