29
Energy = -97.95628092 eV
Se 13.544958199598925 20.342767987635792 10.94644854844366
Se 15.369561501064586 20.548987459285826 9.55976139578447
Se 14.410647498657555 13.210326647646088 16.9533672464886
Se 14.073025023938726 14.18001649876349 13.002637318288262
Se 15.667983975878107 15.490106773054691 11.885654064655359
Se 12.306380202805773 18.517707174349777 9.766937483022211
Se 15.93753895111816 11.806114473272586 18.038363631304072
Se 13.735866765285712 18.16702269489968 7.99392380748675
Se 10.976516361932607 12.72097285021958 18.871350388145206
Se 12.208273719148332 12.342992241326588 16.872026055498942
Se 14.284950876070317 20.418785181375714 7.427061491731999
Se 17.120908529389162 9.822798711481717 14.85102064545052
Se 16.77093200552786 14.086371153241853 10.356238159835291
Se 16.264210326239315 9.661299276658665 16.980103949946056
Se 13.155110876810523 8.45790581357177 16.153917446388824
Se 10.906979696321192 15.972142081035706 13.12610817081209
Se 15.620037588281873 10.00721919288279 11.380873269073676
Se 10.103747936959596 15.129337808402207 9.805733464311125
Se 15.16074039016206 9.06530196594152 13.333630567199172
Se 9.02502874998729 15.765878845124483 11.764920981758687
Se 13.330095482263015 10.220640754925057 14.656596407858796
Se 15.41612071406815 14.052376355163366 8.406617297773945
Se 10.938259553314081 10.70057152409845 20.067776398034905
Se 10.900469180311203 7.584967661683768 15.924646285245103
Se 10.354904980705932 7.452333220612689 18.196304680738827
Se 12.256017540485482 14.717616624332415 11.336242004281047
Se 14.100799702841817 12.128211408252065 8.695186575276484
Se 12.06235945027572 12.809619782435425 9.690514662315978
Se 9.254776855395408 9.363834391341175 19.05801229945118
