21
Energy = -71.07252727 eV
Se 13.592890824382767 12.155309242374038 15.81498117611434
Se 15.433929267651651 13.02511964303586 14.340261209346242
Se 13.572104702074599 9.888885295184805 15.550997360478839
Se 16.339898973023686 11.212860614257645 13.310495467325682
Se 11.553221558728213 15.012832704591473 14.869296785122513
Se 12.221048022558085 9.481801593241848 13.582875645262243
Se 14.957383239464603 10.756885473028577 11.367039035390693
Se 10.657585566697477 14.19985796555653 12.989804948734657
Se 12.38026827644106 14.334148542664 11.253395775985018
Se 13.846753867635531 8.79821875345746 12.036607829478239
Se 11.856620819653674 12.400834525935425 10.06684010402144
Se 7.185882866504114 10.530956360670167 11.472784181756483
Se 10.885138085197436 8.557833412802145 8.655693017015004
Se 7.463023516924625 8.417826516760972 10.472980339364375
Se 9.686315131900498 7.656715727453195 10.503145879149969
Se 10.325025652815564 13.127359945336815 8.394995753537419
Se 8.840649717990862 9.752401944952636 5.791143891475678
Se 6.796894481781945 11.974356612548553 9.6167165968045
Se 9.924389331763948 7.761192452181044 6.676839984237466
Se 8.396039812506586 13.705908023735736 9.616415889693236
Se 6.803320136879717 10.04186559907138 6.685886290345633
