27
Energy = -91.95170136 eV
Se 13.67141257267232 10.689542445244527 7.264457770542835
Se 12.806667968128636 8.871342106662137 6.339014314430866
Se 12.751277620467462 12.558061362548077 5.843433805769267
Se 13.608686749567683 12.566090056772095 12.315523330145076
Se 15.051524015014046 13.905508986582626 11.099945470224544
Se 11.884103079541765 11.128467830497783 9.274484288504537
Se 10.668667106994283 6.038277842335351 10.445005423348565
Se 11.334905730914993 7.809387865183586 14.35167853577323
Se 10.522511024343391 9.397627852418244 8.755797078187536
Se 13.671927548753237 14.497249102924354 6.640919623214808
Se 8.545463373006454 6.26312519764034 9.18216587461063
Se 13.206888972907207 13.795664155999543 14.385549491835777
Se 12.601577912653388 12.00369350772184 15.728634375389355
Se 12.309036040965863 15.070641943049077 8.569527503412488
Se 13.851572106726419 15.76719435655016 10.153613895910038
Se 9.34794407384431 9.969184777115972 6.72673490169029
Se 9.409036855943494 6.515915568942226 13.980817692524813
Se 10.13896678781112 4.897134319462391 12.363380056237158
Se 10.419516948277675 11.37484448253289 15.002644897564535
Se 6.521255525647522 8.175532833542277 11.977388424489744
Se 6.924883117870791 6.093369827784708 10.797056516173706
Se 10.906382161681108 9.867670201157589 13.25832347820942
Se 7.63205355250562 11.548510158328055 7.170395621966724
Se 7.251198478828742 11.601172397704106 10.713520596302422
Se 4.528251720810452 8.922663304075042 11.147083310842447
Se 5.225484715376249 11.122643318912012 9.982186720422037
Se 5.575865178765074 10.569365403227662 7.438660589680548
