27
Energy = -89.73209705 eV
Se 17.74727034695135 13.59309068290925 16.342925775993763
Se 15.234827408202436 12.225501998379317 16.010283786154215
Se 16.245726174867276 14.087981696523896 18.01035432988628
Se 14.330605743222325 18.226770029603948 11.538399259972742
Se 14.764399611190322 15.839374081741333 17.185222095201798
Se 13.770108363525098 14.779417042352753 15.359361838576719
Se 15.431398703039633 15.339899081401798 9.354926065167906
Se 12.615154299463857 17.946622785462708 13.110361171175152
Se 10.682054814153682 17.16113831542605 11.992491106169508
Se 10.180077668795365 14.591682472560132 16.155679572091934
Se 15.643100213886301 16.215363202366493 11.484697445410877
Se 13.531683891660707 13.768374888192591 9.620849677380573
Se 12.125078900932492 13.240485429344908 16.170504650569146
Se 12.96368685401618 13.377043639287635 7.46395861143225
Se 10.666616143273869 14.814115402812309 12.344122960171683
Se 9.137233647065157 14.265921494217665 14.039551227770662
Se 15.050139847720164 10.666588364381198 8.972848022345826
Se 14.405174333243954 11.316414593226366 6.91302367311249
Se 13.420139622811734 8.71947966511955 11.834018800395954
Se 13.09783166765498 9.241644185184386 9.705553302842576
Se 11.304119202555754 11.067000555728715 12.38549464718744
Se 10.442257574346488 6.288365685210223 12.04189232172082
Se 11.285456651040219 11.360604950330446 10.148602100851692
Se 9.316651646751106 9.751397694340024 12.90093476084176
Se 10.101556835391746 7.724296933454909 13.80134240813707
Se 8.048226514904677 5.667809355719468 11.503158713278788
Se 6.770822018931044 7.014273109410621 12.716958592034747
