28
Energy = -95.59105142 eV
Se 16.372639328008084 10.197929847717186 9.901301405248251
Se 14.677164149157628 10.12971702311765 8.272305225728477
Se 15.598444938580604 11.405111600829809 11.809193500044957
Se 14.769242292653786 12.044439474382322 6.9006844296203615
Se 14.281601405184352 10.039726579398621 13.115345453871587
Se 12.27334501904985 12.18643282731906 10.730330309331649
Se 14.765217625594005 15.542302625860188 10.714954901783258
Se 13.188287320633048 13.645098022145389 7.661993892639976
Se 12.117382021908783 6.8874588476180945 7.987519243729063
Se 11.969980537020088 10.806114128602724 12.483249338112175
Se 12.073905754581281 15.762744025206358 14.953427818728276
Se 13.030643926366716 13.701718730811793 15.419089739749632
Se 11.981208131387872 8.877181565176706 15.841265103582012
Se 11.526048994026555 10.763454935419775 17.250906865887075
Se 9.2439353599958 11.701987003642088 8.085943140679438
Se 13.127143584468122 17.01892731237797 11.58096089155862
Se 11.438062775500113 15.784220030704144 12.64959899620679
Se 10.874882142854785 8.558910606194194 7.171619049809469
Se 14.449128413316432 15.516125081365571 8.378591614635011
Se 10.961900065426267 10.33675964264646 8.945655612225476
Se 7.328518820982132 13.072206573664873 10.992504131369811
Se 10.926376113113381 12.554629413219638 15.91107926048475
Se 8.76049023275271 12.427742971518821 12.777344382010767
Se 8.964761408633693 8.164672541822592 13.673842205745787
Se 10.02915120134558 7.5727685604621495 15.710342568201526
Se 7.350684737014002 11.297980535062905 9.450061097135258
Se 6.969884043313883 9.311215473723884 14.106683485129599
Se 7.468959469948176 11.594460765217173 14.556125463293666
