22
Energy = -74.30446035 eV
Se 11.683461108741112 10.832540234983956 15.472270561706743
Se 13.682457489401433 7.803431049918638 7.879916798562594
Se 11.387413726215323 8.601923814315754 7.675550049810768
Se 10.134846126263264 6.568009921432502 10.709300016725926
Se 14.958084866894353 9.611742767219697 7.1669012315699385
Se 11.945345098863598 8.816239208870481 14.582262450600723
Se 9.153825798291175 11.28719539060727 15.205902943896831
Se 12.519308914734859 9.564406725391114 12.094899268813593
Se 15.494924455477399 10.936142746531837 8.99842196553295
Se 12.484151323279322 11.753643279067221 12.315718082362938
Se 10.29487439346422 6.648444408404301 8.337329325170668
Se 8.320149353498351 9.383088169646422 14.334117866747993
Se 12.183403481453265 12.133066308094444 7.46794301923386
Se 13.808228124759179 12.778311796627113 8.85134719672908
Se 8.163335322347294 9.711605477271272 11.89033491784138
Se 8.000120475232986 7.489526131104124 11.228541577283004
Se 9.094284477235767 11.301142865595049 8.246020740238658
Se 7.007141403030701 11.163838310008288 7.1201807167509745
Se 5.465438617005243 11.085663816842517 8.913866651863936
Se 7.531854007486614 13.49593090225155 10.751937647630799
Se 9.110908322259759 13.564731067220134 9.001568105411168
Se 5.446009767680029 13.340009667249424 9.627632707543025
