20
Energy = -69.10482443 eV
Se 11.360103271127276 11.308247616074855 6.6047010134722335
Se 9.882584389392107 13.117287019889432 6.978851178087792
Se 11.148788862814921 15.029787678943721 7.5427073619138385
Se 8.656896728762396 5.505986114586376 8.82698833700686
Se 11.5074698518494 10.04378114127008 8.590008776992969
Se 8.017625296759022 9.154362281529135 8.090627756271042
Se 6.953424458588607 10.878092349252048 9.215838637654487
Se 11.232823914433808 15.215415839855376 9.889886863368682
Se 7.895491167745883 7.3925324962885535 9.813102260122648
Se 11.127915818428656 5.441291553784164 9.324396884634673
Se 11.416510875466525 7.110027587746364 10.864849050075943
Se 13.318657774251616 14.355470566089163 10.595781027722339
Se 13.528471205132815 10.654525854721832 9.659150567543909
Se 12.987539509566012 12.161541246762607 11.39123846565964
Se 8.576488452733205 12.294675734102553 10.281035043237983
Se 10.87948894781081 6.207289313210885 13.031633299450771
Se 8.799221993184029 7.1590388782796905 13.528148742664785
Se 8.356991069780287 12.139757544979426 12.611764758091995
Se 10.153899079732081 10.784562883258667 13.422140633669075
Se 9.262799460367418 9.109518427301417 14.800341470285042
