26
Energy = -88.02785958 eV
Se 14.807367621793137 8.348256397114527 13.355050976208691
Se 14.557418355075793 8.840045045739442 11.065509692052565
Se 8.21612464251789 10.579876572723615 8.738743503253252
Se 13.872538534326488 16.116834224227215 5.772935474534483
Se 9.707544149278734 12.13969629892139 9.748254667574848
Se 14.358970252752556 14.36865689820391 16.808192524199548
Se 12.26622567019472 16.32142825765318 14.14894249353299
Se 10.859869673081196 14.207231719673938 6.745894112306078
Se 10.487751926253242 7.612392419076253 8.67371365992598
Se 12.178642152195607 15.104086861141399 16.163607642620413
Se 13.766328956719772 12.220607300955736 12.059969021471753
Se 12.819592131256305 15.413594274259177 7.601281204239679
Se 10.435094080211641 8.456661253511406 10.767392883747398
Se 9.717496506424272 8.557384909925506 14.218390553607108
Se 13.076954552101476 14.217084341483673 11.074534918786735
Se 14.621902107457306 12.071036554705099 16.603509670774336
Se 15.900016931312049 11.940561752945973 14.515001126867087
Se 7.788121204346548 10.177958585549227 14.127800045157768
Se 12.640963025519182 10.18697959158979 10.933748351863148
Se 8.775212461902273 12.001645485918226 15.113356028246766
Se 10.919452259041828 11.95600798435395 14.005435437981458
Se 11.29604688355481 9.914981175627219 15.206359958669953
Se 9.397468987505402 14.171903778761022 8.56062683318222
Se 16.54529339567034 9.732706567583902 14.261384539912607
Se 9.424150849305123 9.348086904767861 7.223584786969212
Se 11.288323442787869 15.058696234767751 12.405374050184081
