29
Energy = -99.09531661 eV
Se 18.284296137392577 17.61497981444086 9.8703419344972
Se 17.861646206656097 15.321206496840775 9.282547990243614
Se 15.222039810628539 15.997232149372213 7.376428372684295
Se 16.27795809088781 14.5593952294267 10.720224076587181
Se 16.25456888697681 18.644163132531606 9.087216155798144
Se 15.419178531572474 6.319337137989005 11.264908887781681
Se 16.41624114840905 8.374939161444502 10.54919235950419
Se 13.483385183764844 5.995637222478066 9.970725622649878
Se 14.625171693191135 18.014429931844692 10.527929198280948
Se 13.15424926646377 12.469857695821197 12.4597238206634
Se 12.241026234194518 11.820645027500515 14.817339089696812
Se 14.231081277477854 15.620595895035953 9.300109521482295
Se 11.498699098229821 9.165220052878363 9.645529405759184
Se 12.485180110547276 9.605045041504896 14.8424813615849
Se 16.05663778443622 9.875451348607749 12.267547552154587
Se 13.713028107236605 10.427485188804681 11.68089891003241
Se 11.769773520727696 7.245501338769617 11.033019691610656
Se 10.327456602366615 8.684420073267244 13.821385358485536
Se 7.762996113788924 9.817771846993976 9.791596979663655
Se 9.00273283090033 12.880896560438902 11.562022121925194
Se 9.483700372198172 8.92352324451737 8.447619049529349
Se 7.959287765656042 12.17604152069638 9.59347309584889
Se 8.86507266045106 10.393868573680454 14.121164576587903
Se 7.003524090934246 13.310182916681661 12.88574311658571
Se 8.596949355858325 14.150720619550983 16.140945127150555
Se 7.979427524315362 9.812267467017342 16.36758812293463
Se 7.525564801859513 15.11960453102616 14.24659413699895
Se 6.953318038242462 13.286755356903852 17.564367647235052
Se 6.1984848362373155 11.266184945996807 16.506820456450036
