25
Energy = -85.87784855 eV
Se 11.210308943702218 9.294488834632787 4.724806657758408
Se 12.532803766843651 11.242343818377334 4.815603054590235
Se 12.050488996884523 7.8492666724320435 6.4059335520987215
Se 11.636891827080678 12.491481872121778 6.600102092139535
Se 12.922459956014288 11.799317241548579 8.483184390387281
Se 8.909043830876463 10.348510788018189 10.16785061114028
Se 10.393395099564287 7.595098131852623 8.053241983947688
Se 9.438099996452435 12.597617313738306 9.597347962254219
Se 13.308813533833304 15.101414834926533 10.217865818247581
Se 10.803259306237704 8.93108980034157 9.980414130387125
Se 14.505617935385157 13.450430198630185 8.958628627074646
Se 13.905407814854186 7.571675982601459 11.719643561181856
Se 9.986595853470781 13.814819361041703 11.52842976439361
Se 15.678079994724625 9.039523669935043 11.650877412831607
Se 9.168436646300881 10.184352435750334 13.553388387958256
Se 14.46008818380861 11.118806493245566 11.68946844730773
Se 12.332799453078822 13.822894388295484 11.93809301849094
Se 6.901431916261685 10.996940888438031 13.848216833826323
Se 12.483169727582112 8.662263139629474 13.485615286800885
Se 6.786790020331029 13.204894343846352 13.268217473542967
Se 13.790211667874651 10.517621567310334 13.912297915075303
Se 9.68819241696584 9.871384302976487 15.840891031820096
Se 7.878189119446583 14.488566245800785 15.10966188005611
Se 10.225311856403966 12.016197660929304 16.633320994229816
Se 8.074637098682883 13.059524976240656 16.887424075120137
