29
Energy = -97.3223027 eV
Se 13.528380701084354 14.330671032526038 18.469647522011186
Se 17.78564926808856 14.060286431127768 13.819723879630605
Se 13.78025518452551 14.180064161461027 16.306261279670657
Se 13.4496359768411 11.383570791212085 18.693306509844806
Se 11.814787327174486 15.840355122620256 9.86803076357207
Se 11.17368764144945 12.72877574776663 16.120218049979307
Se 13.701470217228508 11.197206987824236 16.531380443654186
Se 10.928502921320051 12.905184837235002 18.28389677235653
Se 13.819904368338392 14.416433686256381 11.74040657790523
Se 8.539387923366498 14.778747067624153 11.603818160423028
Se 15.918859955334476 12.894997402980842 13.471251483109153
Se 8.399604869364545 15.97625415268407 9.199999810164192
Se 12.013283769642332 14.576455209029492 8.041268572488972
Se 15.204660055167437 13.73033559344309 10.064205332528656
Se 6.1227029195635 16.108165168613024 9.240489302699045
Se 15.976798628567883 11.716803457294928 11.258941215867514
Se 16.84908986848517 9.497262107240283 12.899128877297787
Se 6.521423342681744 15.143811495529794 12.392713342760098
Se 8.133545245200143 12.370353148799008 10.362388414015692
Se 11.703736722624173 12.830527346185386 11.280443258347711
Se 13.08519496198096 9.336323944594744 12.552045931604443
Se 14.942098362192862 8.506407573374853 13.800610833328568
Se 17.40081265379653 8.198652724086042 10.810945365421643
Se 12.11750725887916 12.238271837197178 9.18270689321783
Se 5.878479558323505 12.600012516937563 10.415798054297852
Se 5.32034721769905 13.96608629798022 8.51614439522207
Se 14.00289794025599 7.265395999255938 9.588657781384724
Se 12.464791197500391 7.406353374182082 11.354185499811958
Se 15.958271928586699 6.429698258045504 10.713955992122171
