25
Energy = -85.94156739 eV
Se 11.347032692162083 8.378778198720774 5.358559831314939
Se 9.882733492724563 6.949094039737735 6.4187964491550815
Se 7.916838823686401 13.028462892493643 7.024933147767051
Se 8.177371882397434 8.417164584476751 7.409210995392679
Se 9.86573178600649 11.770095695555868 7.20254348085634
Se 12.558782574400304 9.611713292814974 7.0694410713483515
Se 12.56941679426974 13.575468381793751 9.250495098816538
Se 6.367618471852897 11.63209155844689 8.294016850481492
Se 6.6382454545365395 6.869703738871008 8.226595231820841
Se 10.577045684670654 12.345781148313822 9.423336256843728
Se 14.292828034779937 11.927583570173073 9.252969223624817
Se 13.217742644729356 7.961585078236009 8.633490867128721
Se 11.276746111837541 7.336340462720003 9.742741057451033
Se 7.646495096425499 10.961637042316873 10.097284756141645
Se 7.466046355040605 5.647769958624313 10.085894794032892
Se 7.584211199495258 12.710735124516795 11.80885405888072
Se 13.772487243334567 10.616428132135512 11.164021252711152
Se 11.816365372773598 13.172134494144851 13.09897430007647
Se 10.868134430694083 8.73997274575687 11.729343569245186
Se 7.442896996480027 7.003708296553976 12.033186442911768
Se 13.943367997999108 12.126730980978346 12.965152386708978
Se 9.696742948945252 6.991613060910389 12.763303668234883
Se 7.236359136257082 11.540298600335165 13.781964656099689
Se 10.737469010591735 12.352178381233632 15.036536198775698
Se 9.34206254171211 10.573703317941314 14.36912713198152
