28
Energy = -93.1072025 eV
Se 17.19826305192023 14.035811115315859 12.34312946494156
Se 15.361421255906956 14.994839435389517 11.186325054851395
Se 13.054145419866495 12.82019319564774 8.012006402611421
Se 15.043492213801578 17.01911228089346 12.460436572150803
Se 16.33821679458592 13.483728488503525 14.456663787342414
Se 12.340548582837915 14.956909740109905 8.51834920373122
Se 11.214791902017378 11.488088571886736 6.9346328787280225
Se 13.590828358442417 16.5579943173388 14.119397356354451
Se 13.626826242602998 11.392604974388625 13.001043338396281
Se 14.382013792377098 9.901849228231884 11.267795530645111
Se 11.39034227887472 9.47250117910019 7.851856567909499
Se 11.732303201768485 14.845051678241983 10.854755906762762
Se 9.039566561976274 12.445509221857442 8.253072155866018
Se 15.4987762099528 11.2602689566838 14.43550408114493
Se 13.732872587667591 15.518638405184246 18.027552000567862
Se 10.551229649690997 14.375975148526772 14.016781205724023
Se 9.607427505658336 15.896046638656651 11.06615180892403
Se 12.41437691689111 14.275678616913689 16.765580747768276
Se 8.693560142198649 10.568112829649277 9.442182511104793
Se 9.910974322277994 10.656092533730028 11.57285581086855
Se 12.671606363106758 8.376307624032838 11.139496458969191
Se 8.464686663542286 13.612455833991817 13.727612021304859
Se 7.959160892645344 14.337221236409658 11.243870790293526
Se 12.934265719177203 8.99756898439661 15.932688899395329
Se 13.119679392679517 6.633419015549756 12.847430457271212
Se 14.390625945900533 7.631462481602887 14.472937265851073
Se 8.373912612075511 11.141664836775806 13.215630344309673
Se 11.840029055428811 7.708882434378316 17.393350056179585
