24
Energy = -81.57101661 eV
Se 17.5093873414101 12.54199421853045 9.158147105989356
Se 15.045827638107019 13.125648318258591 12.019761187841723
Se 16.086112460598514 11.50122921079638 10.538012825072183
Se 13.965027069645766 15.746426971852065 9.543216500126645
Se 13.202389759735736 13.881533958704479 10.7820145735376
Se 14.95355547882536 7.90828624030546 12.571905226708752
Se 8.465091094791775 14.77384951231956 14.80525016090733
Se 10.302100509010188 16.17571785448199 14.358343579484073
Se 13.862360938545141 8.374296994737508 14.611261673873917
Se 13.996587040439284 6.153720127969492 11.31484839689694
Se 12.917155794481227 10.548961627325696 14.476882089124706
Se 9.363639909277428 7.9700132892929005 9.399259409562303
Se 13.650677270383934 17.601172440230563 10.974710165630539
Se 13.12097540099904 7.0527763821988705 9.30821386857485
Se 9.527599022481187 12.457975384095814 11.945429649576022
Se 8.4851374320907 7.231564694672309 11.664643012474135
Se 9.463542681871632 18.095233284181308 13.274420679467076
Se 10.625172258910307 10.421768546500406 14.956104589838787
Se 10.878572759882342 6.304720513779023 8.986618480158546
Se 7.780601225617845 13.81473129040403 12.751194326459444
Se 11.713554488274076 18.743108367942366 10.26179116012277
Se 9.728670398037718 5.507562048612816 12.260657089350877
Se 9.406255638710178 10.311545995521252 12.929485569871169
Se 9.78576637730327 17.597230470453653 10.985691403340997
