20
Energy = -69.11849465 eV
Se 6.460029327975137 10.972120895484668 5.415980424164927
Se 10.029572813260309 10.846382148691557 6.073774077167344
Se 7.537863203663756 7.450292299567912 5.637848542497601
Se 11.620466652760191 11.502260413587376 7.6557005892397605
Se 5.8115471453200955 8.889004574256804 6.362447208359709
Se 9.205005958890476 7.806036959017589 7.265772491150976
Se 8.006524171447712 11.970843492310372 6.840500161443182
Se 11.425179131115815 5.273734869226359 8.539508345388553
Se 7.078519412254957 12.084775468964558 11.091337633254103
Se 9.153673153073386 5.839424658022407 8.66789616245063
Se 11.564484862214098 10.292023618050674 9.706532060664735
Se 7.040467110558085 10.048482568291332 9.901518697096188
Se 9.148643050288577 7.512355106646549 11.74762956968051
Se 12.441073855430664 6.544382590279992 10.26764685758494
Se 6.929350641924943 8.291038964641594 11.479700999165557
Se 13.255349981552083 8.60353022481685 9.46714606587857
Se 9.334983644652517 12.789854166761673 11.199798851204015
Se 10.168331134446495 12.23607440325246 13.338592315989938
Se 9.991904120144728 8.42291855313951 13.7641822562479
Se 11.400920110961279 10.22835350692427 13.18037617330553
