26
Energy = -87.84702823 eV
Se 13.212449064643124 10.82272792047854 16.005958890736814
Se 11.416923498836555 9.73714971680858 15.0685484339565
Se 12.475306263661054 7.655539429151197 14.008724959068829
Se 10.141358443766816 7.213811010072668 12.929939823017769
Se 14.11650677988067 14.359521279901632 14.792561906645615
Se 14.391148635037094 12.042579415157983 14.146662557168451
Se 10.406583653542542 8.472863678040031 11.039332987508345
Se 9.659094183115561 12.61400046101012 14.31748477763465
Se 16.63903063015093 12.078733283866331 12.608685036416059
Se 13.754206826455883 8.374167496394772 12.34268888161515
Se 10.69892257572461 12.064726138438912 10.636677860739107
Se 14.194010849605611 15.76205508958488 12.920319425615293
Se 10.920321416348022 7.022055741295857 9.17881117076921
Se 16.01643580572623 10.650927072398941 10.967294816415002
Se 13.151605462528641 7.211659299481922 8.545968067073481
Se 10.150693095931793 14.143902282731988 9.617901790054653
Se 12.088804403846554 16.462349098082267 12.062513484401384
Se 9.007480807093252 11.70987294999599 12.235742782612128
Se 13.122551317959447 9.131790362510115 7.106880029947175
Se 14.692484551682387 11.914424873422584 9.335052273262493
Se 8.29172661752523 17.231522799570484 12.478275271734251
Se 12.031103342615104 15.521541336905395 9.87954022989573
Se 15.034333694878367 10.419879875115585 7.564282839523926
Se 8.888946545598419 16.380725378545996 14.792975339193891
Se 7.988873796853179 14.273134597150815 14.809477263336243
Se 7.159100762100126 15.59882730740994 11.507907248894249
