25
Energy = -86.25630466 eV
Se 10.02911730098619 8.089572058767713 5.899889582107493
Se 13.004449336020269 10.516681284699931 5.855131448188073
Se 10.804599973641125 6.003867558683021 6.694587302184945
Se 5.928022050481476 10.76810999204462 8.026945800618286
Se 14.846290956956413 9.56381108822981 6.957214175922254
Se 11.035405455052869 9.90536638701249 7.023170972889531
Se 8.504075602723097 13.653785605140042 8.22694868003587
Se 6.591965056860604 12.723468975234589 9.2352734171998
Se 7.682041141676856 9.237520678289322 8.125255737728498
Se 15.660665545494288 11.259590623856166 8.419970125756516
Se 10.40111938893605 5.833822109768779 9.014820093685286
Se 10.363034799701007 12.81932231643076 9.42439214075131
Se 8.068462197165342 5.82214900291297 9.424802065192319
Se 13.505142290570156 11.585351676840629 11.638647688226285
Se 7.7077422236915005 7.998682627889358 10.22637957537285
Se 15.495644119459053 10.605916720896618 10.648110865957062
Se 10.385430608578995 14.091583399128037 11.425424549693764
Se 6.516180593570117 10.85650286577687 12.145690352226836
Se 10.82965429570856 8.808581819816844 11.737046049826649
Se 9.594775962950303 12.657473849044292 13.117426026929117
Se 6.415556596674126 9.288934505874671 13.959234050434679
Se 7.230567901377961 12.834794590049826 13.197189035353016
Se 12.663970358010367 9.892136859020484 12.964721087110984
Se 9.932912579690353 7.715022727162257 13.577672101513361
Se 8.590678336946757 9.255455350353625 14.821561748019116
