25
Energy = -84.88373782 eV
Se 11.268308710860346 9.062669166797999 5.139306526686645
Se 8.288643393572587 11.328638117948094 6.241463065240781
Se 12.658180578462881 10.536916468536214 6.4275794886072735
Se 6.2141932341609065 12.082749053187337 7.065011867935459
Se 7.463661199837385 6.143738592265997 7.712821210985094
Se 7.88304040724589 8.47532708700473 7.230476728279695
Se 11.554263306608846 12.621168594770072 6.451783526827705
Se 10.144393239898209 7.680034519151073 6.632641002668538
Se 13.803039132070738 10.842741570369771 10.044013951648164
Se 5.2947788922348575 10.488773941698657 8.454357515121433
Se 9.790770330998773 12.372681948352495 8.024276267720095
Se 7.565285175365262 5.779532179027173 10.02899818345186
Se 12.670783026398075 8.98232463902853 9.339882258558099
Se 12.04794955681754 12.052542011908981 11.46898984633148
Se 6.609348501353756 8.57557269168966 10.796533161831825
Se 6.1845017870385774 11.075705111206927 10.830530597541987
Se 11.03550888881803 13.675262717084617 10.219358795322151
Se 9.949153542643124 6.259163096883498 10.578942417643407
Se 10.38177248742328 10.226899165738917 11.9744444143932
Se 8.194493063894425 12.17012815165092 10.703424399036344
Se 12.832730894967437 7.490211865407258 11.29114954694337
Se 6.596854428694685 8.134448928028576 13.09598667155319
Se 9.664302262988334 6.002134210579798 12.870663971986255
Se 8.922477983784395 8.145675409422182 13.638006021426632
Se 12.220654936157969 9.0340497245549 12.97844752455436
