23
Energy = -77.20704261 eV
Se 17.38239030091495 11.312125899774479 12.107311786442882
Se 15.947962886146422 10.805774723922049 10.311580733068038
Se 15.230374984352208 12.827234624221457 9.319373041314265
Se 16.213162469117453 10.867641754517793 14.124261037014143
Se 12.870063901578968 8.980629935712438 12.95180109182626
Se 15.789157277929506 12.85076859622202 15.348747967933669
Se 13.46901769682216 13.610966155490427 10.665708155271524
Se 10.8888913538792 10.14026938006808 12.522014717099955
Se 11.363212904483392 12.861987621593157 9.849455133825055
Se 12.53570885693925 8.477314370930499 7.243500033733348
Se 13.53254240806488 13.44074084513565 15.18668881182421
Se 13.561708667539433 15.327485945854853 13.624840673065604
Se 12.224711423597025 6.710035208497862 12.446582154089096
Se 11.137117705977982 10.538127793901612 10.181022454009542
Se 13.118207560391934 6.929368134825544 8.744641110086205
Se 11.263310770044788 6.8280467479970675 10.344959242634719
Se 9.825788115520027 13.453513416625583 13.72733851254874
Se 10.034838225573546 16.75223335035816 11.203052806825001
Se 12.776922388252633 17.128472298876723 14.681980339802006
Se 8.919758151621286 14.901464198713159 11.714993702773256
Se 8.838722812303713 14.505558156378802 15.53497754222118
Se 7.021961967121322 15.907770029418947 13.024861810178919
Se 6.598893761859124 14.373410210920225 14.707620443454758
