25
Energy = -86.36939113 eV
Se 11.036438486052411 12.783910519918827 4.8162868655470845
Se 10.522901494620674 9.24452339893732 6.19799658786056
Se 12.13207602934664 10.938841310785705 5.788456698422933
Se 7.780217362080225 13.593406331235833 6.410940995184513
Se 7.274628260208757 11.465894307924403 7.346268330812862
Se 10.085633810652894 13.977174008729122 6.631962765510343
Se 9.974118026862497 9.63276727038104 8.456534429189617
Se 13.658567664523504 9.368054599727719 9.08226505344962
Se 13.500839099690497 11.6946057549478 9.351099320570171
Se 11.575700645754795 8.392068960442328 9.703675001385367
Se 6.1803857610879 11.74168884475066 9.420048481010836
Se 7.723866703078767 11.601929076684112 11.20755675304898
Se 9.983404968443155 14.660255603127524 11.072924749211296
Se 14.320483053736417 12.306425985996816 11.482028460150005
Se 7.969568428000895 13.823088555838979 11.978241575125839
Se 13.263544828076128 7.038103205535072 13.696920791664109
Se 11.56451944244724 14.580461778957579 12.820152721444892
Se 10.450020825628041 9.288598467436701 12.947323131378184
Se 12.45221200328186 12.393850232629152 12.927135904175719
Se 10.902192423437734 7.107870631992321 13.717359173240109
Se 14.218613579367277 7.7551582029151325 15.74229745452121
Se 14.574150457160847 10.042834106039052 15.425221430605236
Se 9.580899213236938 10.397911853107995 14.914048335274755
Se 11.023219874828651 9.766391091307248 16.664727237902184
Se 12.929819417745788 11.082207760002799 16.876549612664814
