28
Energy = -93.49175492 eV
Se 13.980127857193718 12.04131683479174 6.719985779041197
Se 5.999384896995396 13.877547727541902 10.299414014055298
Se 9.782924465767497 13.692749167985017 9.961176876842808
Se 14.699005105416541 9.305851829026444 8.820076822115437
Se 12.163557619973046 12.962977038526715 7.587732656333161
Se 8.793622977696879 15.680715805526374 10.417113045409154
Se 15.24784686802094 14.637405626120543 8.728703595519738
Se 7.4476028265103285 12.260452615541451 9.833724902553174
Se 13.365499962173237 7.914649516325032 10.127769850237598
Se 16.44949872605373 10.017511565994985 10.263526310953427
Se 12.290820176586372 9.699970790039321 11.436302713051541
Se 15.34490187676535 11.771795177338934 11.428891290054308
Se 16.162266570819973 13.875037655196648 10.827191932195346
Se 12.992127913106799 14.959777236319617 8.955730160493042
Se 8.296252830634897 8.69747840996837 11.600494617018036
Se 10.771257101133711 16.9656405923919 13.36780861869242
Se 10.649519126522854 8.652893323646373 12.64072029743457
Se 8.751275778979489 15.87520434485939 12.800541585759428
Se 7.480006931801859 10.993731449520379 11.941425427899329
Se 12.481887555724345 15.405628225420529 13.081920821111284
Se 11.18985633355169 11.941173049014205 14.087014265381601
Se 7.389948169029482 7.670346371089869 13.364110212839831
Se 14.276014927699192 11.045927955717318 15.010808349988219
Se 11.91744381864716 13.865205161163134 14.94762686350481
Se 12.952420622732909 9.867491077849389 16.544132566973218
Se 14.415980744170032 13.196173659141877 15.728730170755748
Se 16.58634912043019 10.070132079932744 17.770742030030412
Se 14.637025440746724 9.116457264052432 18.227601868988764
