25
Energy = -85.83070237 eV
Se 14.339546854740016 7.745206902945128 6.650209439714422
Se 12.04819412891797 7.245382857551485 6.3667543667940505
Se 10.54868604927578 11.81792128985894 6.967694015506951
Se 14.36269524011294 11.395542114974901 7.5043880761805655
Se 9.071533074064254 10.835485586497963 8.48840951124258
Se 14.485734516911311 9.227236373102764 8.47448051446768
Se 11.587575988179452 5.398005750362939 7.746189232637987
Se 12.4396267836589 12.474657542213965 8.318189338132797
Se 7.952524783532077 12.754045883986134 9.503964421959882
Se 6.36314175769555 10.264313123930961 10.152919548720071
Se 9.67916737818466 14.427682029727318 8.99209395995441
Se 11.862360674284322 6.296711327752382 9.940218701130053
Se 10.558433408639946 8.240546808793159 9.95243365340048
Se 9.90654424704139 15.776368692354211 10.887380763069245
Se 12.300249742418229 11.320364197836769 11.795562607036675
Se 8.372759430461599 7.509326519270746 10.74348076495155
Se 8.480502319164074 12.223861427149899 12.703308273475027
Se 6.725017960395018 10.459295389744065 12.367003568092041
Se 12.831566343203216 13.585706126025348 12.123716509189931
Se 10.723710654106208 14.51666245727906 12.728244972359985
Se 8.142247936935899 8.241982102556538 12.86859617281575
Se 12.976771597659646 10.248348258163684 13.819113168699037
Se 8.300383449024036 12.081581588559718 15.055018321214286
Se 11.873592690502928 11.218017736849994 15.644670108815633
Se 9.694996239769662 10.323311161391208 15.833523239318774
