20
Energy = -66.12931819 eV
Se 10.857410493746837 10.498059446447439 17.432900502723474
Se 10.82242710462904 13.821107183705786 18.156864323862365
Se 13.040898020971438 10.841262563201225 17.848843384392065
Se 10.349423977047055 12.17009408882274 15.649798368370242
Se 12.974274634779636 13.357135795108542 18.0893188710204
Se 13.025788604365765 10.359382358068656 14.23993014608653
Se 12.323972803783246 12.920612394656334 14.650170592499835
Se 12.239492700017216 15.584379187968857 14.99164040447215
Se 15.225670705908696 10.635524271724782 13.673603687044794
Se 14.171430158006832 15.10453154374572 13.815539903404005
Se 11.74818296637856 10.562509719596173 6.9366349836424215
Se 10.143023585193166 13.451901794035862 7.6067839489554006
Se 13.40828762143576 12.015458467616867 6.930222547934777
Se 10.57994070523322 11.685500349849798 9.34204372007114
Se 12.203903517011062 14.235721339064387 7.166047708917621
Se 14.130113313432279 9.844833565367676 10.048278729986395
Se 12.63480406630288 12.081232385721894 10.418867415029291
Se 11.765635540598057 14.571452124188202 10.91425854308864
Se 15.316040219417012 11.356975386886388 11.328580350904494
Se 13.73712517412497 15.600171946604553 11.457517779976133
