22
Energy = -74.34630328 eV
Se 9.697822393705405 14.790320436893058 13.89402764960075
Se 10.657126334434952 18.401037725548925 14.192702914838586
Se 10.56340564342304 18.559254439377728 10.173778299328065
Se 11.30396784754147 16.32295704952541 14.767642966886392
Se 10.35879946175854 16.292586696520612 10.007009038848528
Se 12.35493070950198 18.675319483091137 12.050377777113303
Se 10.921865756507524 12.545163188129607 10.240272128215432
Se 11.014536118194389 12.849105723522587 13.025110073122656
Se 13.249937467665509 16.662265885375426 12.128888689829342
Se 11.61165152688034 15.534415021666476 8.083521855800178
Se 12.187222215570422 9.173817616799509 16.194060966997235
Se 13.198924512989072 13.196322319950825 13.246967335096306
Se 16.005207878836327 9.995658187819512 15.588755148062091
Se 13.64172208035857 14.826843160676853 8.85956728498185
Se 11.815135380594924 9.310687134543244 12.423015007896392
Se 14.607026336417979 8.697669006597543 16.720613426838874
Se 11.673382716952807 7.900496069570672 14.341923279663717
Se 13.120497988622441 12.587796407331266 9.86238297564475
Se 16.45422179921849 7.479146302126393 13.85961571006279
Se 14.07801666522788 10.02730519432706 12.362955784681617
Se 15.402041096007489 8.185179627386175 11.761542375518138
Se 15.00283940911845 6.357822140523902 15.143318740987175
