29
Energy = -98.13273861 eV
Se 17.808493309279044 13.019066273288228 13.516681996979251
Se 16.341376629774093 14.836396589249313 13.082328511117979
Se 14.800363582530611 12.183051586512855 9.717568215563773
Se 16.733607327016674 11.072554425719543 12.713944144648758
Se 16.828713250293546 11.096039934773614 10.36361102009386
Se 14.530976538881356 14.661511745028529 14.529548107961322
Se 12.840706347929997 15.217241645539143 9.505523285951352
Se 9.792010712847508 16.45643173975032 7.287673165210144
Se 11.29455834464347 14.85153278704047 7.518138745392417
Se 13.338516358651196 13.029527497461553 13.07883944282118
Se 11.569495645494833 15.662273899091232 11.39079606998691
Se 11.78869055455292 9.599474331384355 10.152948575592443
Se 13.377022519180521 10.60240064465413 8.685237400997508
Se 10.328830197346694 11.378690130692426 14.55361963479751
Se 12.652052989770615 11.140587948745699 14.379341138754219
Se 9.892487433088585 12.950785534473594 8.75460997180343
Se 7.890231821103901 13.982485769138638 8.693975081957555
Se 10.930640693664262 13.626538025569424 12.561126279275864
Se 7.637748495045463 15.477912162680893 10.571767041946387
Se 7.979734090392013 14.127870000255989 12.486480910939862
Se 12.413733436952308 7.33363404445576 10.111720419087908
Se 8.193220265221655 10.597675350432697 11.289470030586061
Se 12.883464281768864 6.557338792243962 12.357530916315607
Se 9.227892671556221 9.42675182937616 13.230622859046058
Se 6.685653472372164 12.136805180662202 12.176298683991424
Se 7.935691733885274 7.213798308283677 12.58383211508774
Se 10.562343565951354 7.734478624007814 15.055183492380078
Se 11.347830527425637 4.899043511369757 12.583298423638803
Se 9.397782592631744 6.05570471062017 14.018647651027957
