22
Energy = -74.79943296 eV
Se 9.376430480741325 8.733806088758953 8.527333424083528
Se 16.41933999786518 8.16428782104828 9.413973472265294
Se 14.641439138351357 9.404276985099745 8.438598451816851
Se 10.089684217036268 12.33813695483266 7.9196835151064455
Se 13.002758290929467 7.7819214131718475 7.934742739946038
Se 11.263194966556417 7.694816643673896 9.534333038556197
Se 12.179959711809168 14.940976781715408 11.507523297082798
Se 9.245141974963204 14.349712183183605 8.37633497543799
Se 13.021398956197773 12.873900558721889 10.772524705969284
Se 16.678060426195238 8.879106578408136 11.633035032095643
Se 9.003547337182306 10.809532056943587 9.514040536330883
Se 15.305258176668831 7.579714309837478 13.06543766717891
Se 13.15934277130652 8.501707054197174 12.743363673698532
Se 9.907426514756557 14.566894508154974 12.178396262896545
Se 13.067833900766457 10.56084671410937 13.897526126652554
Se 6.070524899565417 13.486507934524061 11.021651679186824
Se 6.199429542282614 11.190794419490803 12.075875775550927
Se 14.316730100861351 12.075491323192368 12.57519087161156
Se 9.381302509003177 11.456386139968846 14.098660445579501
Se 6.863273753836371 14.899958941817937 12.537368833106477
Se 10.077915357374131 13.666048142968158 14.382138622949736
Se 6.973189360922033 11.611954769827541 14.188097406346625
