22
Energy = -75.26545755 eV
Se 16.34069756418018 12.18633927445077 11.668486289264402
Se 17.208675302753704 11.78491034003073 9.51131441117039
Se 15.784413714498882 14.513643576220048 11.891225745938623
Se 13.934467555449865 10.017258998637972 8.537146382299007
Se 14.501079484484306 11.885485758758913 14.72340613247238
Se 15.356136463490975 11.839720564248305 8.033584182177984
Se 13.60743444520596 10.16699129910839 13.505876383226436
Se 13.74337807553129 14.768492270919058 10.840228185450108
Se 12.48456040134796 10.82573278102971 10.186074893941063
Se 13.019093348257146 13.843501504946364 14.52217323597829
Se 12.088537595364038 13.772969234726395 12.412559654659317
Se 12.164014270398498 9.10466527265821 15.2129838971607
Se 10.552760300395635 14.128127267589798 9.64390566310931
Se 10.716262326142076 7.658344953779423 14.206925805773913
Se 7.570589729727018 13.570537769555791 13.4000253505214
Se 9.427644254627332 12.42971742882442 14.370229062307468
Se 8.74145957383828 8.934452621893229 13.504315081358797
Se 8.429009901693863 10.460084994899521 15.220992702068331
Se 11.009336313696112 12.159338068504718 8.665979292739463
Se 8.580862904778503 11.065573550182172 8.650226949955682
Se 6.660231067426943 12.202438362011865 11.742606104265837
Se 7.426845897535501 12.80732637537944 9.535619967543271
