20
Energy = -69.10947717 eV
Se 8.560666742938402 11.604698963869668 5.640488962924633
Se 10.486012352183987 10.254913123350036 5.443336949374016
Se 6.903671196123722 10.165242574429438 6.510284801463844
Se 13.432023097866713 11.688385432421486 7.491445150185548
Se 12.795693442284986 13.637855630520392 8.676194992866346
Se 8.982330141256552 6.288174707764986 10.03877808427635
Se 11.636141931869373 10.161125771021394 7.508103576575532
Se 11.35228259688542 6.534461403674979 10.341738048476497
Se 6.598708668778369 10.8371118244647 8.752065389808712
Se 12.869317335359902 12.963368230586662 10.931464364790086
Se 10.577615665564265 12.509852303624053 11.431059158639089
Se 8.073001479199089 8.122020226319542 11.171845862491725
Se 11.542465116847811 6.909045332523301 12.632403625258386
Se 11.210305683044378 9.279251266205161 12.702116165599403
Se 8.485381894106375 10.148578039146939 9.988468089795736
Se 9.99712979963641 14.149058419285465 13.036601132974855
Se 13.307673046350668 10.172613368390246 13.360435631395404
Se 10.046945218124518 13.05173302951412 15.11888502173595
Se 12.937577334623908 10.693531290100772 15.639570174884797
Se 12.343825870220504 12.967747676052205 15.723483429748114
