28
Energy = -95.69242185 eV
Se 12.76461215087527 9.41094590570382 8.262861102717737
Se 14.926259991437579 7.891727254424396 10.578905837790503
Se 14.558420755564255 10.816071732169071 8.984509475418418
Se 11.28278409810312 11.361319646666615 5.171675028308324
Se 10.921182804471503 10.616125026236196 7.309006398843463
Se 10.467221701717989 5.404257262205763 9.572250218814565
Se 14.957006667115945 9.285722728232932 12.308842524740509
Se 11.20682367228684 6.329213405190058 11.619454445465562
Se 11.754337759175785 13.83604089862237 5.53291990229011
Se 14.278729638518406 11.591151529265472 11.099801805292266
Se 11.878223369242399 14.08428605236679 7.762098179235043
Se 8.103299981495184 14.073232254550245 7.052368806468532
Se 9.173478854372972 7.033264909341414 8.462343887988581
Se 11.321674774794701 12.411515509736937 12.774014732974347
Se 12.867076314205447 9.157932777476734 13.742647410887098
Se 9.754736148429515 5.534567161652605 13.309781846131791
Se 6.893781951517305 6.561694425273019 8.836545325739335
Se 8.963994676008257 11.294319379168643 9.819400728015031
Se 7.267161637877682 11.719924480847645 7.821338018639463
Se 11.166366056266819 10.02685523791938 12.454490902120137
Se 9.43088494873027 12.921818613210085 14.079014705433918
Se 9.600806912130832 14.84512828963208 8.549162961444743
Se 7.393990335201721 11.336718595308314 11.47998777053548
Se 8.150167659166842 7.203408588750093 13.749831407089196
Se 6.108186265975169 7.9314091475309 10.59274994355818
Se 5.345977799680698 11.946408176136124 8.901866413915613
Se 7.757634788798866 13.470613366477869 12.498240458624638
Se 6.1748927459858045 6.658184856761554 12.5816411675064
