23
Energy = -76.39907719 eV
Se 14.63183450980684 11.9862277570031 9.777932959819337
Se 14.81180251834387 7.1886542578381825 15.540469516236845
Se 14.362282817349213 9.854692638017466 12.817671503668953
Se 14.557804145796808 13.79875239154636 8.34588043959662
Se 15.055228426157742 8.411796281514407 11.059548206051192
Se 12.725500282745347 12.579474507149703 11.305179023824902
Se 13.290236597024718 8.448625773707114 14.491414848267462
Se 12.19489871366606 13.997625201915428 8.050829538494053
Se 12.080881520594069 14.591254137957526 10.357847820486091
Se 12.52097059425175 9.452584828702182 8.384052930608979
Se 13.215523879424232 7.647463973664089 9.874617813107193
Se 9.901234900996968 11.092252395062722 13.987798744401623
Se 10.606134295172573 8.439000863995075 7.457376149191891
Se 9.393535485087302 11.496032963894663 9.665267172821029
Se 8.28659706568955 12.706921536530986 14.851457990503855
Se 7.968638836937252 8.267862506259727 5.877717139530896
Se 9.15875162771293 8.860059384963312 9.338390455679969
Se 9.035490764311849 9.03152939446331 13.925304408862292
Se 7.181244794115126 8.433080272992214 7.996089650155441
Se 7.289365162447789 12.065623643202214 8.942663668051008
Se 7.987327856643368 14.125817751629574 13.01398659908982
Se 5.893016411335909 11.739669439032149 10.847779916980544
Se 5.8547039953906745 13.760354814414097 12.048827560919024
