21
Energy = -70.16676718 eV
Se 11.225335273966177 12.125780923150899 14.707227481279386
Se 11.610240303649512 14.15156935625855 13.859352633119517
Se 8.492070211973882 12.132689568681565 14.761899761195657
Se 15.844281029443447 14.783210008019235 10.109501776054564
Se 14.078530032795275 13.926343907197063 11.316358054226997
Se 16.314865295293238 12.245698606581868 14.088311707990773
Se 8.378925392633517 14.217894446396816 13.866755103551428
Se 16.165525225058328 12.976685972214776 8.41987866448143
Se 10.501015161534664 10.507551042097571 12.93836749381085
Se 16.54514982258643 10.038319615599704 13.791947246382447
Se 9.236581285986992 14.231578809078073 11.6500053965941
Se 12.477040605033924 9.96054190125186 11.793113375448245
Se 12.705400033305496 13.167071027887985 9.479799861380167
Se 14.426839898401504 11.583355710636429 9.022198487735817
Se 14.589555302060107 8.931000449812052 14.732079484823037
Se 13.498595236977163 8.087795714577362 12.845433248736862
Se 7.287526123515957 13.68743483034734 10.319508091963439
Se 8.217817037357039 12.462506815310578 8.541359328886243
Se 9.234010899199177 10.505830368887636 9.322343198892675
Se 7.828793128620373 8.364149009267056 12.01501643211389
Se 7.446568355660136 8.960277763925161 9.884559589795217
