23
Energy = -78.69769401 eV
Se 14.614186521179336 6.358157221346321 8.991923928310333
Se 14.213139582974796 7.090196492013624 11.479721653503674
Se 14.34394193813266 8.37640105079275 7.9580849251800885
Se 12.007748910788928 5.7285981104856605 12.262556631607595
Se 9.009519303097056 8.246317790400603 8.308479417072755
Se 12.371745521042856 8.42834488667351 6.581877153175029
Se 9.974377470289205 6.544128142675385 9.500651399875162
Se 13.38882713652264 9.130302926098524 11.32008247128639
Se 10.787868203489708 9.750432921879053 7.667116523503134
Se 13.767450709399736 12.755099466977372 12.504594302871448
Se 10.5175943840612 7.336574190256331 11.773965196938283
Se 13.0940583726286 14.596807219164434 11.21192493097399
Se 12.002651008662857 12.688586744500416 14.063672613451342
Se 10.216019570580295 11.521566767470395 10.999823047370123
Se 10.645160832127607 10.921669105212333 13.223318982431257
Se 13.986144422346607 16.288803237291226 14.48494692789815
Se 14.347083592017277 16.39297574795467 12.177262922678217
Se 10.404358461067872 16.345592505861855 15.923962290959427
Se 8.107785466724886 12.6180129190143 10.831760435111828
Se 8.336714935999018 14.914737615206993 11.131338708615914
Se 12.200560091356046 17.682780805144716 15.228881587329948
Se 7.589935712362081 15.082457597356354 13.436171775483821
Se 8.556510290816806 16.904937637206984 14.482816096382196
