26
Energy = -87.68299798 eV
Se 13.796999662626733 9.474549922902845 9.0488766794645
Se 14.364212537904114 7.1285643989041905 15.336529525043776
Se 15.719027034297165 10.269672890055253 9.915216986479457
Se 15.678457742468217 7.811560533726286 17.244375663683776
Se 12.335379795409954 8.15131056092354 15.53126135945794
Se 12.342199478252743 9.572456876455545 10.991190246001008
Se 14.750867209184467 10.64647105082252 13.876395609806497
Se 17.235756614057816 9.23543667292877 16.221300947153715
Se 16.078707445413183 11.238341191438389 15.797376024041032
Se 13.433264909092978 12.629202217621058 10.487575263522944
Se 10.221103288223722 9.174822781091263 10.451822343994474
Se 15.698351724192847 13.495779232021764 10.750488074738845
Se 12.601635490216367 10.489091306634263 14.652011845247221
Se 11.676700019335478 13.87981148354327 13.660499319664904
Se 15.947480283182983 16.65820448026709 12.730208659084749
Se 11.995145772321363 14.267393046592263 11.399540604107752
Se 15.65876176712133 15.722419967096045 10.304415097293953
Se 16.14139026452665 14.862804152433823 13.981342629828232
Se 13.143533926177938 15.53764190654093 14.805856764225785
Se 8.023378456827087 13.38457435164292 9.35604006793854
Se 7.7613429085310734 13.786112066724659 12.263984342599242
Se 7.477058284654017 15.932759730984335 11.973561913107178
Se 5.329033130304817 13.231899106128056 10.653107852777646
Se 7.722133455041947 15.522882435039715 9.01399781048973
Se 13.30426996175293 17.307238790379973 13.465819718503923
Se 5.063524671617859 15.375106750099382 10.316024075339184
