22
Energy = -73.43161031 eV
Se 14.883151975512629 9.912972703444105 10.490169732278977
Se 14.783490965617318 9.47043269702164 8.02186130346853
Se 13.539594734466556 8.29253563026485 11.434134581441167
Se 12.25235879214122 8.561778313494735 15.25833364795072
Se 16.134822029855513 11.026900365533974 7.198310598577331
Se 11.199992116859228 8.884892338948843 10.948641472881725
Se 12.437530405906141 10.807657402440277 13.45809136738546
Se 12.302298431287252 10.259208288780998 7.726160961394978
Se 11.032724036333608 9.992062925613768 16.531793231720016
Se 10.599642152604334 7.327041845582124 9.388347656941828
Se 12.388477212423453 13.005877790317983 12.285971593470986
Se 10.396802620415 12.933285811573361 11.018912814792515
Se 11.15940374800077 11.939563884368484 15.08736346452176
Se 9.489543227289046 16.46220288723761 11.700122087440656
Se 11.218066996283623 8.359684995607857 7.19386505376616
Se 11.401459139088844 16.309016596154375 10.599917824314671
Se 6.964759052710905 9.092390883141672 11.069256914850016
Se 8.818717599650618 14.07131142973606 12.230076206031113
Se 7.3071883353316025 11.616337759604887 8.51914947375905
Se 7.093455177566532 9.346797965546068 7.479538720601196
Se 6.134325554909662 11.255490782929362 10.46377468848145
Se 5.861519123066286 8.283837323443874 9.102575091891119
