23
Energy = -77.45123243 eV
Se 18.357179464663197 15.017259866114 10.942690074566494
Se 16.977773984876393 13.073623603113706 10.976692459983031
Se 16.82986423545266 16.64669148267695 11.535010739444989
Se 13.90339682053828 13.620005183887809 13.308530186447193
Se 14.933463338837187 10.093169355056109 14.124980426165859
Se 15.770683747030843 14.055680333187142 9.14663684033966
Se 13.14988172099972 11.467101537903549 14.229182706017152
Se 12.582143982412852 7.966283895724663 14.157427715798494
Se 12.067247352268206 14.952683269347462 13.699583807178584
Se 14.838414203713736 15.849666317001748 10.240100311202026
Se 12.621557071793443 11.740214733145217 10.321276951718556
Se 11.962007995774098 6.831565954687741 12.122597105877098
Se 10.601139101573276 6.82239648052791 15.119981450905621
Se 10.417488492395202 14.172432981608575 12.037261602221754
Se 11.525003891719853 14.048571526154872 10.067276178845727
Se 11.615030268739256 10.793511800400553 12.078584106132896
Se 9.9433036038347 7.829817661044315 11.633840708604147
Se 8.986363529154866 7.944618805398752 13.95666508713298
Se 8.571375146603835 11.121652498959719 9.897261025014297
Se 6.668166819519867 12.42938806231002 12.667384223181642
Se 7.017475153729535 12.713449362967104 9.006459181447765
Se 6.844239732947821 10.493120284303343 11.422634707188688
Se 6.832985392062556 14.115331539229164 10.824052413356942
