26
Energy = -86.88773494 eV
Se 11.869803428941498 8.821183145268117 6.083254225935263
Se 16.253158024921287 9.085279016428977 9.300273908737497
Se 9.909813478531115 10.611611248258967 7.70000541102893
Se 9.999028111806718 7.884751397921004 5.358482460165308
Se 13.653986692838803 7.708478713756454 8.45945884506965
Se 15.3991417758162 9.483838406343228 11.287237863383535
Se 14.275057070613757 10.725896323180034 7.983331738580043
Se 12.7787545702564 8.30492433785091 10.379199653278814
Se 8.375757129784782 9.329190140700138 6.727654986326601
Se 10.364694981872535 15.153626710089044 11.573649796140682
Se 14.608906903711594 12.150576497406597 12.659744783205086
Se 13.208633661717622 11.143450624505448 9.854492629132082
Se 9.251492660354115 15.740819068157988 9.532719101210201
Se 6.460057995388584 14.127359875438026 10.346175526317714
Se 9.536030154062331 13.954836328576185 8.136061862575504
Se 9.231852947052369 11.640749539941165 11.082567036683859
Se 13.240337774767557 9.973148979698367 15.540591644658072
Se 7.50626017803111 12.568839776205701 9.199455120968203
Se 13.326519435984867 12.325477063818632 16.297277422633947
Se 14.74499606044352 13.367382543840966 14.574520664007807
Se 8.904326594815513 13.44666609902973 12.43885053605436
Se 8.278861851018458 10.878296750020027 15.754575275081704
Se 11.391836430640247 9.710431123616337 14.198891444486252
Se 11.108827627585772 13.256259315547243 15.644651350843201
Se 9.6793853859484 9.00161514920051 15.713989306366269
Se 9.45406282265394 12.461620657307442 17.087301848892615
