22
Energy = -73.93435036 eV
Se 10.865139096283682 8.528000237764553 6.534913680315435
Se 12.294746838327248 15.645733990754694 8.26418555130649
Se 13.0331194708328 8.928826383175156 6.996038589110715
Se 10.17359617539172 7.91668211328221 10.050506715469096
Se 9.994173491609025 10.577219383188353 5.610401591636477
Se 12.785453547535681 13.382142927981644 7.665286175134553
Se 14.66834003068533 9.782066083212664 14.723511591083144
Se 9.753738260577023 15.415951042155232 10.786775942439103
Se 13.455925236524708 16.057381874680544 10.193280603085809
Se 7.844280628911912 7.899051600078506 9.521108432928939
Se 11.326092842049698 11.960308829165607 8.829902497247254
Se 11.641148190760081 15.609988287904423 11.92038221241258
Se 12.979046052678294 9.827480891166116 13.220313676662109
Se 13.421908629593775 9.762458787547162 16.97271685396708
Se 10.069264591097081 7.369400444696148 12.295763727945804
Se 9.33831484552716 11.69572087548089 7.577430479008287
Se 11.26734655027698 9.468552620642205 16.416449981565698
Se 12.31335246408033 12.154245516490574 12.852286128295853
Se 12.045677723451854 12.852299290521758 15.089849084797967
Se 8.120857641441951 8.769031122499777 12.991125028122772
Se 7.628673998714808 9.777576376817214 10.981099147265233
Se 10.269242960753415 11.722650835168755 16.0325212083231
