23
Energy = -79.13296976 eV
Se 14.526318034659226 14.151852677413835 14.832624855206024
Se 15.231653593716848 14.116919036142086 8.132574055946746
Se 17.456440448565647 12.662559640878882 12.819223965318086
Se 14.461534703819842 15.564155375461633 9.841666348689719
Se 12.703973709497035 16.835522701242613 8.939312167046037
Se 12.869464561485048 12.526687365842681 14.45840760793658
Se 16.3042501584991 10.700919111905076 11.963427206749415
Se 16.411477628559073 10.90163524421966 9.652469729445638
Se 16.516293634440082 12.855836974009101 14.940493147480721
Se 14.48667584214657 11.963839777077215 8.723916950388505
Se 10.717645992180005 15.561404114634287 8.929607964851746
Se 12.65406542057248 12.465482237849471 12.088600853540438
Se 10.401951153586642 13.037832042853097 11.656127734698718
Se 9.668175373685173 7.906554260974307 14.325713678985345
Se 10.24398421961551 9.972863128636385 13.573280102515989
Se 10.095617000784026 15.334984499665378 11.192350075985948
Se 10.217261772153359 9.454675945722833 10.968893725230906
Se 7.346136391465055 7.904069865494819 14.937360319780838
Se 9.598728270206237 7.339901155623006 10.89580855737982
Se 8.039522361710196 10.748928546680498 10.243289688804827
Se 5.259505693213728 8.691394116370764 11.872485574408751
Se 6.669571154466187 8.957967592107318 9.941544558043134
Se 6.129925040177614 6.944578289029675 13.17295138040897
