23
Energy = -76.91406617 eV
Se 6.36280078767818 10.546272673811899 12.528604170013308
Se 6.893699916953316 8.511336586353583 13.457486546542238
Se 8.871497545248287 11.41760264586116 9.188399291581387
Se 7.410472658438526 11.9544443558152 14.167776461095297
Se 9.291241484796203 8.855399200413064 14.004032015727644
Se 11.074253288355713 11.851416854585139 9.899260295569146
Se 13.113312403402109 7.815872123622035 9.724539167631276
Se 9.507062109724616 11.119622080397479 13.444813739039118
Se 11.564336271470102 8.1313664635635 11.448477130372963
Se 16.014895408605 9.271683267177675 7.947332200523725
Se 12.90172986406519 7.5196457875792815 13.306091624540326
Se 8.83183031799934 9.56737362853161 5.913039109045156
Se 14.374585111992346 9.963305138119976 9.284986518106187
Se 13.85432900134018 11.188319044595687 12.809851782679143
Se 12.320485970697801 11.0509865293455 6.093309442252805
Se 13.40698463432108 9.540396392856943 14.453681833492096
Se 8.825696946521692 11.676625120776482 6.801448870575567
Se 15.608384869260686 10.56418641883351 11.432766576648035
Se 11.30121594298917 9.202958164266015 5.440470951256742
Se 10.869403481905907 14.463642010193421 12.627923340095055
Se 11.282525998162662 14.167579996055288 10.339384708883118
Se 8.715710024213921 17.276128546473448 13.88958991242585
Se 8.591672994977976 15.371770422899942 12.734792245354559
