22
Energy = -73.89113032 eV
Se 12.101129062194476 8.162976073483478 11.325985514747892
Se 12.726312467581224 7.841787668968194 13.598255835585249
Se 14.171492081185699 8.651855355053984 10.244572761142711
Se 13.431603229707138 9.814891437973394 14.595985332691699
Se 8.440014324163805 7.737133500641165 10.76083329981263
Se 13.832719561390332 12.51841414070732 10.700057455111775
Se 12.002066277584712 13.15249089103206 15.324414641983319
Se 11.415603842158832 10.942270023374599 15.383330004812436
Se 8.593526625694631 9.875793321195736 11.337549097460784
Se 16.22347113374179 12.810687362038793 11.072816894725829
Se 13.812181293281187 10.716036959025342 9.180840572288407
Se 14.053729833085505 15.929079107213179 11.474325727284157
Se 7.8705132176658745 12.939776589783223 11.722568323794071
Se 6.514542642189094 11.20634517891724 10.982694061751637
Se 16.756033991734064 15.324180015980076 13.778363865118646
Se 16.495816118146962 12.946817099665623 13.36513466611506
Se 11.2608472616535 14.233187727275212 13.197057258869805
Se 9.161741545825533 12.452140742289508 9.652717961020361
Se 15.089921010869489 16.177889383763937 15.074690829896403
Se 13.556233584574915 17.19079060674569 13.220446602986613
Se 11.20937029119311 16.32678452261567 14.054890004061106
Se 11.077699956157739 13.577273965677715 9.512490288677578
