24
Energy = -80.79126355 eV
Se 15.51299510260141 14.277489646958944 12.5694562462337
Se 15.782998062209595 12.173109173861556 11.546576725538367
Se 13.639450361907114 14.05350126087354 14.027899508627131
Se 15.302335762603331 12.317581326809051 9.237060016544978
Se 13.965497820776962 15.652431375452707 9.382944706478812
Se 11.789216459966656 15.250792994694077 13.27949846325778
Se 13.661499290400577 10.283553398699187 14.367208974586998
Se 12.209584478113333 10.852694559038829 16.07141646396626
Se 13.934962760336857 7.912607871603275 14.418527758813605
Se 9.202381961708326 13.383747339362694 18.00834313207636
Se 10.505681047639614 13.651661776141479 11.981458957760596
Se 13.010249207118198 11.913106564196873 8.72698268958414
Se 12.633262303775895 9.620007475387586 8.799016879608807
Se 8.977383378007541 11.288874200347413 17.299294958171284
Se 13.572906646066652 7.067931756637804 12.216885634452685
Se 10.014670675424131 11.294978766542478 14.86774898338605
Se 9.279481957310896 14.977109600367974 10.537346037392865
Se 13.259731843509611 17.75027749944066 9.184389404142077
Se 11.402962631097465 9.645525834731576 10.959588733221622
Se 11.55148738310823 6.019877724159074 11.975982627705124
Se 10.861419218677446 17.627333589797832 8.430306653018368
Se 10.458152375921307 15.37856686815157 8.455469957140387
Se 9.599797566094527 9.504917432878496 13.573208134141094
Se 10.113938006175974 7.771643678937507 10.854417239998224
