20
Energy = -65.97297624 eV
Se 13.743848615777097 13.682484148397766 7.635194372516234
Se 12.215711245961453 9.201627008193842 6.816198092158414
Se 14.600497177458207 8.54347110180861 7.461379565612537
Se 13.628029842620217 12.927242926806022 9.720148214102982
Se 11.218740937277925 9.49598222354562 8.813976091140676
Se 14.535576423286997 8.663462088284112 9.709704701170292
Se 11.085170364266066 11.933379538038135 9.610305078011468
Se 15.418819865250338 10.946757021171644 10.400681043443473
Se 12.050762170336323 14.407526479646549 14.048798753045812
Se 10.102336386644415 11.491693382858127 11.552704718451944
Se 15.112353043821088 10.92352570491901 12.599351621591264
Se 11.94903623039095 16.28005604065563 15.5197891518377
Se 12.649101228390851 12.660410168974842 15.5547572866755
Se 14.451618656051876 16.80768732188324 14.962614114770325
Se 14.64792979608974 13.31866042294961 16.57495633917301
Se 14.939683678705482 17.865197929804 16.897241005917632
Se 10.400254548527771 15.126283372555525 17.298060457180657
Se 11.069688524441066 16.536299627211548 18.941718914424268
Se 14.094060138493083 14.164120646324612 18.718460431437954
Se 13.575065027872407 16.512416747636323 18.652243949002123
