26
Energy = -87.84141101 eV
Se 12.064773989725479 15.248179945405562 7.515054509969428
Se 13.54191095612748 16.7531107973133 8.483310792208986
Se 14.083838386826882 15.934509703645128 10.705708052274819
Se 9.863536568415384 15.67374731870761 8.313258883300012
Se 16.87121525625444 13.47806902251487 9.859173526068028
Se 9.360883609154858 13.805279131446655 9.658582559891878
Se 17.15116194957665 11.236022474826703 10.030822219685705
Se 7.430106153341858 8.017623939772339 10.83774526629981
Se 8.850183974882421 10.014654513386846 10.254590379526793
Se 10.181641142480816 14.211812635847616 11.836943592721731
Se 14.492777588397644 13.679924029224498 10.579213783149802
Se 14.012272545021261 10.14054827322328 10.889655957120159
Se 10.050638745041258 10.203700187830716 12.211493655331651
Se 13.961952508721886 8.453721459016112 12.390104143159778
Se 8.517152765221118 15.390297996034494 13.03586228905529
Se 10.559474464275741 7.903044410991181 12.629155449947966
Se 6.907492915230873 13.833484268900047 13.70754450109964
Se 15.41570935060447 12.90688109440262 14.002126453523724
Se 13.178359100416984 9.099496331763033 14.611240304772021
Se 6.806877489782966 13.767426244204701 17.529334172649865
Se 7.800958689404239 12.848857724562757 15.749882364744385
Se 8.17563989691265 7.612845791866756 12.964311315567105
Se 18.09473144687557 10.85616442876838 12.348419273567856
Se 17.725511857018784 12.86538741291464 13.379408602516023
Se 15.142591814891937 9.604730912501587 15.803187154930018
Se 15.180086730179124 11.952367850355117 16.133242390350542
