26
Energy = -87.1565664 eV
Se 10.108671906964698 6.470612317689725 6.192103071290849
Se 8.237206983022295 5.5653772667317245 7.241242533774899
Se 11.94670854093243 6.538280393138353 7.749013140784022
Se 13.142973731221463 8.457208387799827 7.096642711626999
Se 16.012345557076173 9.813917086526317 9.775658965028569
Se 6.588052084049732 7.156538000337559 7.91116882749254
Se 11.236390387044358 7.795708767548392 11.247780456011824
Se 12.511046628661875 10.356397678642809 8.302592611971486
Se 9.786100871891147 9.272196255467138 10.053769018401585
Se 13.915185091022062 10.308769393001345 10.336448100032419
Se 5.364471284027464 14.680439824641859 7.4148372199499955
Se 6.1656316850468835 11.559889971167978 9.796177388305173
Se 15.184215139670547 12.982938945684056 12.631739285327512
Se 10.541264686172578 13.133295824246277 11.787478291541781
Se 14.06654906297105 14.539734543102659 11.226532523603895
Se 6.619134331718034 7.07039345048609 10.24655707773752
Se 5.214719230678417 13.86907370647478 9.465952232218847
Se 7.400708542031461 13.412079624519055 10.660130274617526
Se 11.029224731672693 8.390870587721546 13.514495008241996
Se 15.891526153153864 14.059683687015616 14.583526029756598
Se 7.642877020383069 9.089990162703701 11.01797745209287
Se 12.187970301442926 10.413437417052181 13.923474439121089
Se 11.955466583243878 15.001468581361376 12.149422238764366
Se 10.498037284056172 12.063754311557942 13.906214301744617
Se 12.385238985610668 14.652145182521165 16.052613323693045
Se 14.220995352210338 13.37994473716125 16.22708947897081
