28
Energy = -94.41660037 eV
Se 16.672887491423502 14.960382692848205 11.376518576278178
Se 17.568235480694085 10.622279452117814 13.540319942181243
Se 16.494189595507816 8.5966184655271 13.976714303718191
Se 17.094550734130685 15.26621168441214 13.766632902035706
Se 18.780538436325312 13.872872516495207 14.285426774163867
Se 16.95813931164248 12.06419229939593 15.45931434401481
Se 14.352640131467018 8.781332939575707 12.966605677225662
Se 10.375601960803946 11.628972611449013 7.2010958166523755
Se 15.126582140999512 13.226223632790008 15.001258471366638
Se 13.055518198857277 15.074525390586851 10.41578872077368
Se 11.328898995317555 11.081581330534704 9.208692972456435
Se 12.527351267228589 8.49999159938068 7.004707798369415
Se 13.036319016952332 10.029173807402609 14.469278204249488
Se 14.8207667274507 13.607361622177189 10.966041290682425
Se 10.056629426745511 9.296486623527942 10.174049766014772
Se 8.357142205542749 9.587663161915339 14.904026125841773
Se 8.925177377197905 11.175916127557999 13.2432117594662
Se 11.386515405564202 14.786750093858544 12.13133470910668
Se 11.401123351769126 9.871164846608059 5.686724266398737
Se 11.873609666492472 8.583750729742306 15.9293107960833
Se 9.626159513944069 13.980731837854321 10.515285567131405
Se 12.06827964978376 16.837255279608442 13.69081624054682
Se 8.178542716281637 10.285696942450166 11.182905815024643
Se 9.958901090333404 7.869747303603061 14.747063311854191
Se 7.933695065160757 15.339772208991253 11.627021401749465
Se 9.814805435420054 17.01393058900271 14.352299943847774
Se 9.016340200906951 14.897527136987954 14.373598475550402
Se 8.5705615784966 17.47344565783459 11.619810857742893
