22
Energy = -74.28581828 eV
Se 9.836645731976223 14.971696790472581 7.24426718915235
Se 10.20846537803206 11.369345132245527 8.301814555691793
Se 10.33712813996922 12.74977126134155 6.48108746945143
Se 11.646797745651169 15.680971772992057 8.55882843890721
Se 7.2783940187936675 9.92075969454882 9.96403053130929
Se 10.830656069976166 15.709771966247748 10.777479083442696
Se 8.512419330210722 10.632469367318548 11.655267828277152
Se 13.75096934489587 12.121926718627064 7.048707106043709
Se 9.890897612600739 6.193429362441668 9.963590891634148
Se 8.084954527718173 6.955116175870846 11.503521750438088
Se 11.08082698541909 13.590324493242845 11.783483784233507
Se 11.31150091353203 7.96934400543311 9.668382734119739
Se 13.454611693370245 14.417691842006182 14.680309009322963
Se 12.73838978229437 11.170768019403692 8.766171103219857
Se 13.323848197916872 13.451435623896147 12.57658355224267
Se 9.086227721982654 8.412071397676883 12.905149568132106
Se 12.731845202518853 12.713160612909947 16.290069689610682
Se 10.475578224707508 11.123145293964235 14.653696614625863
Se 13.097222727761919 7.692437163645555 11.302948403955943
Se 13.990219948183098 10.878109921121899 15.998888114535315
Se 13.30938184648554 9.723335461520877 12.37804691997728
Se 12.060388825163548 9.555979919174455 14.554151457236534
