20
Energy = -67.01603378 eV
Se 9.05490211055596 11.117008088188788 7.8391221425226
Se 11.551424297692797 10.780581330077755 7.144103364424198
Se 9.121022592947767 13.323810558687962 8.408850150035352
Se 12.499741015006283 12.686327902405408 7.680323929625801
Se 12.421453445154418 9.384483756423313 9.49652387834176
Se 8.960758510534495 13.723039363651802 10.776207718342766
Se 15.753605115016724 11.326132832342642 10.047740947005853
Se 13.25717415414298 11.255697851868646 10.354758919693959
Se 11.077806289774134 14.213786818919163 11.648239384356351
Se 16.253818564657863 13.030326198732658 11.48136884746509
Se 16.44742655451542 12.008000942478724 13.717666604907885
Se 11.577829290467234 12.37428540582124 13.150526496494189
Se 16.475750863961245 13.880460858885861 15.038308638618854
Se 13.760783246714613 13.685839665697209 15.19024585037614
Se 11.163301541306952 13.132411188640273 15.295467959684018
Se 14.923902154755275 12.97641521855236 18.754301459971064
Se 12.371813620732334 13.135186903112842 18.780768459422163
Se 13.804216539201146 15.641386255933272 16.412583332603376
Se 15.495591399575192 15.107237008958236 18.532449947234348
Se 12.130784729090474 15.320687886425304 18.353548004677183
