27
Energy = -91.45294726 eV
Se 8.276015040565728 7.784743249610664 7.193169568124647
Se 7.020941658670088 6.776620108075958 10.645375856220438
Se 15.21985817449976 12.95464034596868 7.075798095348133
Se 9.296556327937841 5.935158737873188 8.057703916048956
Se 14.838565787212245 8.791637493712173 9.74608378956293
Se 13.681874919326708 14.585571820339768 6.313997566218574
Se 7.12230880360569 8.565540179394302 9.34683701659548
Se 14.54220750730637 10.77118238617835 6.476076531747968
Se 11.099343297275889 6.728318296976292 9.371824123051754
Se 13.317186343368114 9.68796535956524 8.18921425742812
Se 10.481028804250563 12.448139415717245 8.806772625758157
Se 10.397809343785905 14.732642037587524 8.330494854653232
Se 12.6615750875344 15.459846625325163 8.248788866660016
Se 10.133922312352258 8.960625982012521 10.665087944722472
Se 10.932191260916104 12.216855781554278 11.162855631437523
Se 7.4285975627358845 14.726271273826432 10.649377920715235
Se 9.511685702598948 7.086634573706905 11.893941993976341
Se 5.719528554722659 14.31360543399741 13.752539324316372
Se 9.229421774946726 10.917089482679126 12.091443391363176
Se 14.96655912772711 10.397213130677489 11.511438853484885
Se 6.472676932908774 12.671674329943476 12.498356923303405
Se 13.607920780747408 8.601994355270485 14.546287047580138
Se 8.497259426027846 7.9315602565360095 13.99713570840103
Se 13.033312157859973 10.210774939165908 12.774458050924984
Se 6.598779856706104 16.19939341876779 12.045200676010149
Se 11.752873726645428 8.93160878302565 15.893872136800004
Se 10.165646413285085 7.198087837393373 15.467768438385415
