25
Energy = -85.22770559 eV
Se 9.653222553715374 11.273436175081427 7.64486480271018
Se 10.960130764584111 9.871721768810884 9.031410827212117
Se 13.983849813647758 11.773425437075367 8.540603027570764
Se 12.485760500043183 13.210064239195752 9.665604649496174
Se 8.907584445937697 13.053931501528147 9.010748814030148
Se 9.955274797948695 6.229543739336186 9.33550884606463
Se 14.09008489322153 14.966257342962852 10.072143226146128
Se 9.153912097474583 8.398993784164812 9.707454581002775
Se 6.973720696940888 12.224889643297168 10.097144988143919
Se 12.790362051179683 16.96241268170518 10.649658181406151
Se 15.042039760312122 10.408638025162466 10.181577087001818
Se 13.659884642020375 8.593052048653455 10.62750847703763
Se 9.920003560815172 15.646779694126517 12.822182537391438
Se 10.270557313219289 5.265036434691954 11.465697688161386
Se 12.464924429187208 5.841298902059817 12.202594898190235
Se 12.00694002135403 16.626168511227547 12.839708878137692
Se 7.267761336801411 12.263462551995671 12.457669698947784
Se 15.144526496970844 14.231118023904322 12.223907038553136
Se 10.263025303406632 13.138762383593638 13.460197188903702
Se 11.9297255238377 9.506977932196687 12.46064365795794
Se 7.891404143627626 10.178402378545808 13.402607208772519
Se 12.218287528079989 7.542120230303836 13.79641609942934
Se 13.85717953520257 12.421600696648776 12.888165457811217
Se 12.340573404370163 13.27100128798702 14.543111173460323
Se 10.100534123919923 10.432174323564396 14.20414070427982
