32
Energy = -106.02054072 eV
Se 11.681129051280472 6.713256797646298 12.306599594911537
Se 12.57118629088672 10.20335272427777 8.9109101035298
Se 14.964200394921734 12.962292564434948 17.42444871002387
Se 9.094941227133596 14.969920904939741 9.051434498155412
Se 16.838870280802283 17.045234227790186 12.136459649502113
Se 10.911858096400305 16.30184585804502 9.604678948404034
Se 16.178523909407794 14.576960053488575 16.421607172637092
Se 12.015684662738934 8.892587420325604 11.520398576891589
Se 17.0415708373716 9.509175026199445 13.670486822153288
Se 11.874522713483383 13.038147558837268 12.303743988138658
Se 15.62635346450088 11.174886559097157 11.255724105709845
Se 11.662798048742184 6.878208761120877 14.701788799414123
Se 7.293712047018873 10.163561914574535 13.870704860775204
Se 12.844497044733355 17.167997980976025 8.091584470800669
Se 9.383283898357362 9.868845254546578 14.896177419103465
Se 13.99942745145811 15.437429067910767 14.143675530289956
Se 12.744080489023041 12.74163894538989 16.595720735238768
Se 8.16906027348675 12.567965563204778 11.401433231632334
Se 15.768372898063951 7.9227732148218495 12.787939729321536
Se 9.471629057619731 15.0894423050984 18.011141957467082
Se 14.037136719404268 11.726140860660738 7.905577408589092
Se 14.496406325269831 12.833459347373646 9.931285781543739
Se 12.600611597140768 15.364033850532861 12.214460580079413
Se 14.329321504878584 18.321181361142333 9.413621006020602
Se 16.20134733918635 16.824046276011206 9.846205130808805
Se 9.918788014701832 13.155609934306705 13.50593632434226
Se 7.470142841728684 10.19766077876922 11.52387587865797
Se 11.004377039449553 14.473694060819614 16.5282914031505
Se 9.499220759854847 7.5317695186359055 15.360147662847423
Se 9.638896221514518 12.626521875173383 9.585117985199307
Se 14.362122882967993 9.13246207533696 10.723155815622727
Se 16.222586061082644 15.07041761583971 13.304929115592836
