38
Energy = -124.83243205 eV
Se 17.330538358129893 18.34923329551535 17.503885238196755
Se 11.381179420870946 15.923323297384757 11.388808017568373
Se 19.035944189696192 18.20666213402848 20.673112060427762
Se 14.060746981518497 11.703970856740321 13.14306171146756
Se 10.078497392815592 14.379817344719916 9.185594559440487
Se 13.711424417440467 13.144380634482781 16.69367200460828
Se 20.420780008115575 12.614889989605123 11.081518157669349
Se 11.391860200769635 10.892510451033539 10.713132872786234
Se 19.176951270336303 15.25240746481285 9.401191672455806
Se 13.06591546031167 19.01464461739113 13.337543537324896
Se 20.162429102680864 15.030614165147282 11.677501667158865
Se 15.332865783579916 11.53275074505968 17.53550820748885
Se 17.36995113930474 12.302654141264451 18.282951942472156
Se 10.929557527196351 16.45908172405842 8.002768338748497
Se 19.74499857479007 17.633340171678398 12.048409914235602
Se 12.4710097983925 12.763982822078322 11.844570295465719
Se 12.233305895299374 16.75995512732781 13.455467698899398
Se 17.517046277054504 12.888715262880712 20.683341058850186
Se 21.39605732519657 12.356803957176846 13.245673446343895
Se 12.957694119395844 11.190099092551687 15.335209127392613
Se 12.369882016042412 9.669297827725515 17.664766968074527
Se 15.631095148037886 18.13980003700059 16.08783359862178
Se 12.50780992175795 17.05910121707478 9.57242041057943
Se 18.895325550133474 17.564236284490445 9.905313617071284
Se 12.17250254261446 7.932193466742766 16.2003405380051
Se 11.065403826039379 19.544771546182552 17.344997122113426
Se 12.41226317491341 8.844066741746081 14.09985978348038
Se 21.263792089021564 14.526360668960853 14.006125197082909
Se 19.46181937636336 14.144574964820876 20.636930526194547
Se 9.713405741796672 11.99720485755824 9.562038147566094
Se 13.526883669480108 19.941150025646483 17.23091531037779
Se 12.84958420039313 17.299917911625567 19.562909655061148
Se 14.046777682115378 19.308717860919412 19.41834502680127
Se 19.45057986088562 16.312282923038218 0.19144524491262416
Se 14.841681124879138 15.793542253205004 18.41567110257632
Se 10.730561598816676 18.83290796137457 19.475442406396407
Se 16.811971612782468 16.54164032640076 19.21114655686469
Se 11.848531787904331 20.350033208382133 12.00857098444218
