38
Energy = -120.31956636 eV
Se 7.593669275745859 7.677574771521701 2.951276541313228
Se 8.069122657942085 11.364497274314285 4.108145819897815
Se 3.9968028430011815 7.421681308848098 4.251160036037174
Se 9.728767048942036 9.766390212816905 4.745008273704095
Se 8.457026473843788 4.478747069384314 4.487387792346714
Se 6.183714028589793 4.866309418030527 4.320463464933618
Se 5.93601897324643 8.90448158498812 4.431530756893208
Se 4.278134860390113 10.64660382020467 5.650931011587057
Se 9.370150642363122 6.69887794296849 4.212640984959354
Se 8.124996874238498 12.542500091791414 6.282481506205802
Se 5.556521930551433 3.161599051214172 5.582107959531085
Se 2.6118607815462007 7.309105189302224 6.0037861030832635
Se 11.934612563814092 8.421056031704847 6.026151998800043
Se 11.138941214240878 5.023651632744102 6.697892625308486
Se 10.097159101845174 11.554705362874566 7.143520026833583
Se 7.789874908254458 4.46656416181425 7.493492616017691
Se 10.395342358799942 3.0806737104994357 7.491828000987131
Se 9.020342440698276 9.427122851786642 7.156256635016121
Se 6.336776153275727 6.630814020142177 7.410604512617609
Se 11.023603912833014 9.138361467212913 10.151638488452631
Se 3.4480924638247865 9.42380152999493 7.473089583096511
Se 4.257215648188913 5.464486345220025 7.720709214724188
Se 7.196392234871667 3.241193116416272 9.24818371618114
Se 5.177840958405336 11.018073413687482 8.241053072033413
Se 9.79882652437251 11.902116881415402 10.31154131681619
Se 12.447326267810777 7.110977064463332 9.66668751061909
Se 7.186096639563167 5.294936665473485 11.151535140174675
Se 7.729148795803952 12.332430989065786 9.327407124889532
Se 12.657988061409123 8.978238754632999 8.244348174337366
Se 7.554172472691452 9.189490003633157 10.585085987488366
Se 9.828698234144301 6.477409924509899 8.015115256910182
Se 4.4003666688495215 7.748518333820055 10.507885466468064
Se 10.679013253719484 4.873869777049677 10.132495642810584
Se 8.851243929132133 9.872006403150609 12.323862896178248
Se 4.248628928632249 5.055844064831424 10.123022848655426
Se 5.259808875516156 10.097546738935234 10.635844183291479
Se 6.317208867580581 7.236746793672254 12.150565818411243
Se 9.445492409338158 6.227996503879417 11.670262170403527
