33
Energy = -110.26399897 eV
Se 16.387637957698058 15.238112284580762 12.259509232567527
Se 16.250555627033137 14.917054459416217 16.007356126184575
Se 10.755594627633554 17.18901134028359 14.902675270873775
Se 17.25366792112693 7.434609284453532 12.939682157182574
Se 13.473842773387851 9.10773870844248 10.169981450526222
Se 6.501013789537035 9.822867767913879 16.94292024116436
Se 15.754616113177466 8.156807596577282 14.628286086683067
Se 15.516565923493443 8.089869141307796 9.544239805265926
Se 14.624301581517289 18.460104987244716 11.648499600287078
Se 13.076635255410293 13.850648113027534 14.160479777711284
Se 10.07346188658817 10.621551257606495 10.564803684229364
Se 9.093970869005577 9.853716217107998 8.569703829327786
Se 16.99222179795158 13.390818411702444 11.171922294333184
Se 10.828075534441522 12.856192355544252 10.352221586735594
Se 15.921783817156413 6.495099965191765 11.238474365262134
Se 9.454828871634819 15.958318151984784 13.200384472287443
Se 14.91138898790796 16.454936588965563 10.656218895290337
Se 6.723279086762688 10.249518534298433 8.939272896170133
Se 13.944264820713775 15.371935304804635 15.760214163694119
Se 10.214454195356852 14.656283776113776 17.69721474935686
Se 17.30431338497708 11.514535011276227 15.28401001640517
Se 12.991337533752331 12.641913104666536 9.374833774455471
Se 14.102046201217386 11.287604342681522 10.941723331148566
Se 16.59585877303053 19.755069025490993 10.571360560606092
Se 10.363415309623646 16.230482438598813 11.187063290221113
Se 16.497914772020327 12.80726592421671 17.06319117971008
Se 12.151609690694206 12.224873857652542 15.601848774428849
Se 5.717028827042655 8.279893409807771 9.267204778538934
Se 15.439652309989908 10.454580150587885 14.228347939141024
Se 9.939320820028371 12.898425177836573 16.123555249595565
Se 9.315765464961617 16.567148501325846 16.626351884404503
Se 17.489349238126874 18.280757047621133 9.19664992916577
Se 7.163517519298833 10.984041235399564 15.198169910620791
