35
Energy = -118.1703666 eV
Se 11.833383020295603 12.136494732101474 6.290095928643065
Se 13.126571935558841 13.414106178183712 8.006973988506623
Se 16.554583232494547 13.630886104630278 13.537925656795387
Se 12.132701204845173 15.859481777125973 13.962248477090132
Se 11.663465942803 13.72062656366848 9.721450381902432
Se 8.575388707778254 9.057596130065615 11.142970193802482
Se 19.379073045736682 13.18411145486783 15.939794780111125
Se 14.424613603570194 8.29222562320415 9.730041868511222
Se 13.977297029002688 16.194522636041828 15.393881113294974
Se 12.54608750371869 11.880795762325555 16.421158274076195
Se 15.172418443025647 9.40834079606718 11.518118722683914
Se 14.272002835984003 13.170761598885019 17.625474804206302
Se 10.08523539758787 9.004781823549173 7.867681804918269
Se 10.77132630132438 8.668306964702062 10.053177832328696
Se 13.112093265177792 9.654201878192021 16.777925351859125
Se 9.948962236848013 11.394587512481587 7.3591554354004405
Se 10.195797699310821 10.539344187980541 14.203735083208523
Se 8.927685781115303 8.421138340970536 13.275003942532056
Se 10.950080885386646 17.875836764208763 13.882284039628212
Se 14.402668661774321 12.664270185801291 13.429251025093595
Se 14.166234178027137 11.728485850941041 11.29373143166373
Se 18.694586544775554 13.919816722408306 18.02908276803249
Se 18.002683725630767 16.2915639578457 17.59537422125279
Se 14.880162578702691 8.76302730686914 15.389578579758656
Se 13.998435576584491 8.098332413009144 13.340534957501834
Se 13.302821557050777 15.26050072698776 17.50726260866043
Se 9.945356640509036 12.041547182194789 12.539349699918969
Se 10.09574068091468 15.403888953577042 8.809642841812652
Se 7.991991690946413 13.435663340419305 13.142324803985797
Se 7.308732514578311 14.18627291800871 11.067584847734938
Se 10.676003321586311 18.643327341961545 10.152037384918454
Se 17.70189965349473 16.497289918971724 15.408045523694605
Se 8.842021125360517 16.055225952806587 10.654601203793632
Se 17.701152092576095 11.965472137592178 14.861996500328276
Se 11.984730108250771 18.976042230519855 11.961338640670629
