34
Energy = -113.23368838 eV
Se 16.62360433455774 12.643065412355568 16.624754142376457
Se 10.608780442264461 19.844482361106966 13.009247542738395
Se 17.655383649100393 14.75036409101432 13.079230794420567
Se 14.807234434999504 9.801254421866664 18.055209049408166
Se 16.869701663979523 17.697716714685 18.32146397432628
Se 16.9233716736596 8.647292995027593 18.40521918408884
Se 15.922383110513918 15.115776284481074 10.051736904918346
Se 9.215023476274972 18.790420678303352 11.402048491811495
Se 15.337927167447292 18.60870610760404 14.128556986839957
Se 11.197055424948083 12.189731405585482 11.34041906489449
Se 19.3375271258274 13.853814022774387 14.353582380059159
Se 10.984889275751556 14.944603641503967 14.293718472414115
Se 15.114315929863224 10.914706585457672 16.01494561679972
Se 13.819610454259694 14.90286528702015 11.115981392905802
Se 16.728099259414623 19.390240300499716 10.683743277290292
Se 15.209438933291702 16.525457122389316 17.402411676097355
Se 11.448427308315765 5.546749858144894 17.42805566011785
Se 12.654363442223287 20.23090088040662 11.940872571146855
Se 15.379288175765387 9.122253398425842 11.986689969450785
Se 10.299831155677824 16.772494347120546 15.760303898575122
Se 17.846956037946466 9.540985835886616 20.237667793437296
Se 13.153449062712204 9.348880641332237 12.975511791516098
Se 9.269138930794565 15.169987595984098 12.746706096399263
Se 11.829206700975012 9.909414279750406 11.136848651328627
Se 17.521091456781004 13.631938112432175 10.904092560896336
Se 15.782523356929362 10.944928537297352 10.738339061347745
Se 18.60699708059078 11.908861805164202 15.569907153538292
Se 10.077060959811378 16.632633963851923 11.03936691706873
Se 9.515365195742334 5.114464119898821 16.502686322159377
Se 11.394068290167548 16.39943893855568 17.783358401521383
Se 13.891422879149793 18.212466691967652 12.408801985868967
Se 13.224475206742717 17.868999159750203 17.904628331748036
Se 17.383035006173476 19.39874907444114 12.793061680252224
Se 12.320030317948724 13.576432248516028 9.811909122839095
