32
Energy = -107.15953503 eV
Se 13.91268380669431 14.48991630693876 15.110985145014638
Se 13.999904647300783 11.64815593160191 9.193003002421936
Se 8.241240283936047 13.23609008409598 11.819816922607808
Se 9.47699783980419 11.14342366552566 14.682760869973274
Se 13.212957720076114 14.592506098630663 11.648397447902088
Se 15.207518630336976 8.262691214257655 10.88295364959894
Se 14.887873492013789 6.729732785646763 14.294151619781202
Se 13.048165892119005 13.672209452955947 17.09316784567241
Se 13.162242664430869 8.089374020055905 11.727901523498897
Se 8.457403317769359 15.535805297357355 12.89517203164438
Se 15.024218206344345 11.155789094285103 12.867646003287625
Se 10.377686847785613 14.974658663093079 8.989512129791851
Se 15.743574568747388 11.014377242206121 17.290636527995733
Se 7.202810681508664 8.542266548297258 13.168771613529934
Se 15.155752028669633 17.741903588996873 13.752390326969715
Se 11.826002558570574 17.65132342170965 11.829000721006258
Se 9.40428308107558 8.870486559358495 14.183707331678129
Se 16.55409513912808 7.258300702339279 12.953722549162645
Se 7.512895883619531 7.712049471893255 11.120083733255363
Se 18.04650213760998 10.952144622431597 14.312561015349681
Se 14.803406106400582 13.118868609016305 11.073910841973701
Se 14.869676859879604 12.827965670742895 18.437560286862727
Se 12.668714787476182 17.93021347330248 9.53455048291482
Se 10.472332536437674 15.515430889932873 13.847900445636093
Se 11.261415578927346 13.609546663847953 7.2942742619290994
Se 13.020618545473265 10.203144601720016 13.227144727597594
Se 17.5102583827678 12.209733161249167 16.07943388908156
Se 13.59829804357523 13.301401524599935 7.607082137616525
Se 13.19984925533053 18.99340981442905 13.152753941113387
Se 14.756706187686405 16.69877252166735 15.777849549468597
Se 10.135079912514989 12.228639180667766 12.622609985666308
Se 10.681163804550952 17.291140294664874 8.504692745600435
