35
Energy = -116.49729728 eV
Se 10.362413081941218 16.85791178041176 18.663319186518862
Se 17.187995859861147 17.239281915940367 12.655168244157556
Se 14.155253790829544 16.992876009229278 10.618251648574608
Se 11.543882059765059 13.400552599308234 18.839899698585263
Se 17.59753570914789 16.419907220166127 9.121764185179421
Se 11.56231491704319 13.061713537563195 10.226388558547818
Se 14.357301096843706 11.899966782295746 12.44707083811323
Se 11.628352943811272 14.653477561758729 8.254978435999956
Se 9.330510849688402 12.545670058748566 10.264971400049975
Se 11.492409545158475 7.387981591520884 14.722008208485498
Se 8.298502597791344 18.028363521307316 12.06180051324325
Se 15.494006171114133 12.82496034157825 16.144364197946825
Se 15.190350341069248 15.64836063806097 8.975107505349227
Se 11.033626351833888 7.844127073511693 8.596447111640591
Se 17.03695651533714 18.556034333623657 10.887415477286485
Se 9.936313849196884 17.799197394826223 13.552828968098968
Se 8.859168426893245 10.943486071541694 8.569058903044558
Se 12.996957397280708 9.018020040411406 9.147790050144105
Se 14.79723859033117 16.157174831098654 12.651889519701559
Se 9.177537536030583 8.863323558869649 9.642953128858807
Se 16.326539883641658 11.809893085157418 14.004340163586889
Se 13.719139268462714 8.35804848502965 11.305757247058304
Se 9.663510257606395 14.449648387384533 7.251529354164726
Se 18.65610038346269 15.134975150279422 10.589301730849819
Se 11.09520656227287 11.210067906865762 18.287931459859568
Se 10.186509244158893 15.34859397634875 13.740076564327223
Se 11.688896803210566 15.018368920286317 15.43062472737172
Se 10.126066708060257 8.062275220539343 16.35499437831422
Se 13.664277034301099 7.352869274217186 15.781705105384583
Se 12.897677084702526 10.110264440899014 12.709525366834294
Se 12.560695769296775 10.52826212808417 16.50521483210916
Se 17.37862828344893 13.517743495746958 12.96411893954102
Se 15.253984374461073 7.242730473625405 14.218574898376925
Se 14.751340291062638 10.97198642531963 17.321590236818174
Se 10.127401234381432 14.999341284926677 17.467461266729494
