37
Energy = -123.3519305 eV
Se 12.02623642940478 18.625535855568707 16.255489481819
Se 21.768412222030552 22.08420640746583 18.917873597034855
Se 14.712133553786764 18.039924527467598 22.145151903284354
Se 19.87561498439072 11.768773097808488 13.846529243174503
Se 12.845117382176113 20.52540488163288 13.009705982498302
Se 18.133360718793455 11.120533294364149 12.46028861377779
Se 19.961030140176074 10.181508934759238 15.706572916316496
Se 10.69379926969241 20.773946564106488 13.962796173084794
Se 16.123598477828832 12.129891477357226 13.220811541007224
Se 11.391702360652202 15.042598617503007 16.27720094404346
Se 19.120023986576093 18.782583076299577 17.404453066447566
Se 21.30916331397464 18.120388815880563 16.663407469552567
Se 20.25166600624475 12.867547975315185 18.343246478702433
Se 11.966222093063104 11.620746072232015 18.05444535780012
Se 14.606397379201045 15.937227063201322 21.429055677903005
Se 15.860875438471169 17.82661518430825 12.123073932127088
Se 17.066188223159042 19.204017419467384 10.407586514818746
Se 17.945272833064518 15.36384953318428 13.507716169374893
Se 17.610903102427 18.337931692109414 15.6544311106759
Se 10.013589690589876 11.52768170175302 12.491154600676328
Se 10.346593847270551 13.844008482548034 12.823663596146897
Se 21.5088783955682 11.316152525491791 16.999817150233298
Se 21.86405471461975 16.371513091258414 18.07661420597388
Se 20.145411614391993 14.870455523790394 17.18053679955995
Se 11.815993625561301 10.370712779523311 13.488045714172998
Se 11.385816252251844 20.86004863999542 16.22610340178085
Se 9.519663090821918 14.38818304960282 14.96335543403081
Se 14.709370995006852 19.41805270818063 10.779115447806376
Se 10.152025871757777 10.633251750780401 16.909138222148844
Se 16.16175017256412 14.353929921822942 12.355272526412106
Se 12.810170583102781 13.177354292463288 16.48620848387383
Se 14.988109636302317 14.338278814023257 22.945971762933684
Se 13.817031383060401 16.597119160145148 13.58853969698243
Se 17.162396857734954 16.01013458130451 15.683342590273394
Se 21.25263628467856 1.0696934595634493 18.773686616449353
Se 13.875320541689188 18.68411710639378 14.508508916493154
Se 10.931882057615091 9.116176091965054 15.298452531602736
