34
Energy = -113.27335429 eV
Se 17.893542093779818 15.170722212314844 9.846800220906688
Se 10.068588870023659 11.562998914460021 12.054166723689354
Se 12.8471436756057 18.189340491908155 11.808346413006594
Se 11.099585776150905 10.10867031319132 17.154000148581563
Se 9.89150911221523 15.363087056187407 15.640468355715619
Se 9.322956353289152 14.953962395813269 13.373437416845123
Se 12.717429400009674 9.826424047916008 15.443064597101849
Se 16.17396017296213 11.556121763754174 7.170916372629781
Se 16.018731841896372 11.449498044622699 4.937020158228645
Se 10.258698257247064 9.354763531067256 13.039416858381687
Se 10.23409889207159 10.914083972558203 9.812401362672208
Se 16.31841863768649 17.95667108473441 11.962370962651587
Se 11.002830297243978 12.354245705517048 17.877158607963146
Se 18.241100068204545 18.890132909260974 12.620262821476603
Se 6.197288885999893 11.273770027405732 16.463325865037028
Se 13.647336709418658 14.70446439049297 16.22791413205388
Se 9.16387344050509 13.49737251454081 16.900382775983566
Se 11.268920694749474 14.627511413633943 12.07895763244931
Se 11.466267155639017 16.724654803147804 10.827803995292545
Se 13.656464758091381 9.626987409287036 10.677529592120967
Se 14.324714141015335 10.875497122665077 12.502042320163087
Se 5.338538708617648 10.738855806768504 14.474711812635515
Se 14.794862363441554 9.791316729963503 16.599200729201137
Se 16.564219054939993 15.532228182147193 11.724955963465097
Se 8.627138102826722 9.172393814165602 14.718682373080469
Se 14.999402956746543 13.522021477678054 8.02863039720493
Se 16.498424288039793 15.309501405281917 7.9283752855275775
Se 12.532258813266964 11.178197662867177 9.264407185571729
Se 16.666346471981893 11.528639003917808 11.866278515075853
Se 15.924982685264972 11.763542731625895 15.94351579521259
Se 15.408329117711574 13.487815475781398 17.43380137845995
Se 14.038144971151409 16.863713460877605 16.62450849731167
Se 17.262024842035768 10.231546120503276 10.16860116408359
Se 6.553653170258186 8.7459910637104 13.693030175226005
