33
Energy = -111.24838811 eV
Se 14.045716196638436 8.543675732526605 12.375704555548358
Se 16.240152491207272 12.692745215787566 13.7412810731604
Se 13.285699087993544 16.986966630690656 9.681594535828486
Se 11.489205472818947 13.801181086535982 7.48742548466135
Se 10.152226808153543 7.419239940531612 10.555035696698724
Se 12.78450720309142 11.89104447824565 12.236045136254345
Se 10.506679028611401 9.370705011819323 16.26706131084482
Se 8.95576972516966 14.312997182070447 15.407620901477271
Se 8.513866617788482 13.619118362651731 13.238899156926031
Se 11.19527456525652 17.60704217303274 10.319347766344393
Se 8.362154031733846 8.846451027021017 15.411637509591438
Se 13.271154742141732 16.73125774865254 19.184272819114824
Se 8.265648031032178 9.580267133977998 13.17574815042145
Se 13.48484541567505 14.739067910884215 10.537419611757072
Se 17.630946371230102 14.507494445478619 9.751215971111396
Se 9.83027423916759 15.232625644353838 11.872284838083107
Se 16.517952566447914 14.998606744827327 13.252669967772576
Se 11.440731869291017 5.595465777768695 11.59281593931711
Se 14.034777653817766 12.235793893812156 14.304816342522086
Se 16.455892657653308 12.568573243033015 9.666433866141379
Se 9.838254814236484 12.845652578584435 8.86034494973566
Se 13.167020042989751 5.613899500305364 10.092164445702696
Se 8.740320937865292 14.68848661584722 9.884077999005733
Se 15.00107577551662 6.8054161883303 11.25946198068746
Se 16.536984380866517 16.315666338877403 9.008782261769545
Se 10.91870520230306 13.20686682610437 16.208362479526933
Se 8.202356088427935 7.641181302340807 11.776146011371546
Se 13.812838307232465 15.669120604734314 17.297691640527113
Se 14.113467623548338 10.533638008595752 10.922873843105727
Se 16.99562208241995 16.06653504257167 15.31666478445181
Se 13.588886254803294 13.41110577450235 8.58425984370943
Se 10.223740226125031 11.359015955176524 17.50351912914953
Se 15.083874350564198 17.24971674214786 15.912940859500122
