37
Energy = -124.68740027 eV
Se 12.723510377968685 8.69863935767111 5.02302532588329
Se 10.597366599882713 9.006616996163526 3.9890591914088898
Se 12.632150087633056 13.804416238207123 6.602642220456894
Se 9.783320130450612 5.891631726690736 5.539309393722347
Se 8.892514412462898 8.175629708289662 5.368595345998687
Se 13.163772667576529 10.068092692334924 6.869214399481277
Se 14.226620342873646 12.095536842101723 6.232803783978288
Se 6.706409829804955 10.813722151057389 5.218835764255141
Se 9.497975013948906 9.981985143070307 9.340582348319698
Se 10.728964296283715 12.557082938374851 9.195835760227713
Se 7.956848416235074 12.129278882887819 6.65675672314643
Se 5.362972419017112 9.370508304580444 6.766646723784024
Se 8.523670932299872 4.8951468588561 7.128165963966321
Se 11.613997999198498 5.897189202577877 9.539456175291198
Se 14.696954266597226 7.026188262691465 10.71292273571158
Se 7.1198952165000975 14.321318045968527 6.863406744718949
Se 12.57801670021765 14.222019842308043 8.901549083536521
Se 8.70010216395998 4.649073277595186 11.34240039078689
Se 12.628937617586589 7.6740798171229265 11.270653903196328
Se 9.3137679535735 6.048734473561324 9.409027652029645
Se 13.803483452735737 10.166853470509785 13.05477406765987
Se 6.391098423104393 4.631905855894294 11.64853079643228
Se 5.720644208426033 14.552477410013616 8.816088978187187
Se 5.668623570583992 10.380224407690257 8.815846398465203
Se 13.138819539320405 12.315753846417678 12.481975153020143
Se 10.958227507834868 11.574477791458609 11.31310149358024
Se 7.397862739278021 9.288148104346723 10.077256455302877
Se 8.779743921733749 14.75579512132355 11.164577485618034
Se 6.731010624672051 13.502343826248804 10.593670475006386
Se 9.591494840951164 13.381732891527639 12.750727191250858
Se 11.91337678203083 6.573922952229205 13.317816833936467
Se 5.430670052045548 6.776030272056442 12.121813668444693
Se 12.661323307415987 9.615820176887553 15.104918712179273
Se 7.5104256997971355 9.4002531670755 13.729129061574314
Se 10.344502779995784 9.681433203054787 14.68041589840724
Se 9.762312226545657 7.6749021747894295 13.41517425603242
Se 6.0276703296795455 7.680092016587421 14.222350895224718
