36
Energy = -120.60940469 eV
Se 18.56594233215381 11.761060325182756 12.512704187162962
Se 10.614606955056583 16.298732987450315 16.334573495153688
Se 17.004830165707098 11.391969024375841 15.97122160546501
Se 13.87498406979058 15.507502450204123 12.397492467569158
Se 14.323234211255574 15.977080489844514 16.6785085850267
Se 10.138031360685055 9.156209073744996 14.353798120462619
Se 9.897723623094487 18.336769546872436 15.528001352564067
Se 10.886083321162394 14.977236998499395 10.01123834735089
Se 12.428652042793498 8.714792728958841 13.531172974767173
Se 16.295169090281867 20.126514111212135 14.330142662204585
Se 13.310280633613406 7.501483351418653 17.450288669349288
Se 20.03941878153951 16.119094911331686 10.013231582733708
Se 20.254140751385155 16.25666045840313 12.227281006653778
Se 10.941693412710777 8.333362825820673 17.822053596299497
Se 18.027043616944145 12.976110010101603 14.427275557716605
Se 12.743613821198482 20.717352833584577 14.466186709255055
Se 13.35101795425573 5.330492669495913 17.925967688862915
Se 14.102324378373513 13.596336304130045 17.0701099448009
Se 12.559776526764939 13.978867986472848 13.52389541010522
Se 16.794122099060786 11.590643060900634 10.951900427375195
Se 11.018761050800986 10.398855437840723 17.015112621407994
Se 16.631712812498087 13.771655317882812 9.999283933429801
Se 17.91961600962176 16.3435811656541 12.99029400838381
Se 13.173164733207752 10.50204139612135 12.265477732236324
Se 14.433477598847492 20.179516537947244 15.920004473105314
Se 11.276733117802669 18.869568664405417 13.49386672088773
Se 18.11207012285972 19.245779866469135 15.426160406312466
Se 9.818755834233038 7.209530299292587 15.382314237857365
Se 16.255491587156353 12.804068985697178 17.666700491918284
Se 10.53505910001109 13.38037625949407 11.592188053398694
Se 17.99820963853136 16.828222659984057 15.251248994608101
Se 10.057436382439118 20.41265953361218 12.430793650073655
Se 12.176962197726889 14.241099379880179 8.285356027430815
Se 13.994455125612381 12.058317888032041 13.884537500447125
Se 12.441661744835857 16.680599149982505 17.858058836151805
Se 14.36247996452275 14.38351305292471 10.19730365193024
