38
Energy = -115.92400776 eV
Se 3.2654352491264147 7.017603807822254 9.536414501564854
Se 10.355378381558538 10.127629460439447 3.939488520245616
Se 9.283217750186399 3.711222277224761 7.088111994274375
Se 3.4098341065964237 9.406074069394785 7.416074223866444
Se 8.25360505005143 5.561340210782434 11.924999282095575
Se 9.496698584153501 7.56978468930517 3.437689483734851
Se 10.686999672649295 6.73310375828929 10.664257458721714
Se 7.172994315373574 3.2098766376402263 9.635904576950873
Se 6.3551876353990995 7.273697422954957 5.0768553396941245
Se 7.966823922207353 11.774868878134985 5.952184805646768
Se 3.366836867638035 7.237189073920733 6.973403937908332
Se 6.865299013477631 10.639814919439573 11.1098524774698
Se 8.149209955903805 4.81786345694944 4.314824581617522
Se 10.402767340324116 8.282607386787774 8.896725758897514
Se 6.4798959480673926 3.792729446456854 11.787101024438117
Se 8.68150095588404 9.762695055477057 6.0030959460431434
Se 11.34492997820049 5.869027853906853 5.0294196117542205
Se 5.110990221658627 10.584222599874618 5.96368826300576
Se 10.082872845068312 10.217083756452908 10.265866469885081
Se 6.984745839334257 8.058870802683678 7.906981123333248
Se 7.240517642243876 7.083509943154503 2.679098355466115
Se 10.91566995217917 10.641003648778923 7.324432260657302
Se 7.355418845499984 9.869502432519754 3.6432688365512904
Se 5.65782993606118 8.20999258240222 11.871553060443997
Se 11.835548253888566 8.168071496592857 5.688700069596696
Se 6.006741160272382 4.360258586951424 6.63488854409241
Se 8.065404062023012 11.543207451715343 9.137966412918267
Se 7.971607883862382 8.557684460441854 11.481133369288846
Se 9.22200008686633 4.79613766685345 9.806072147872847
Se 5.543178887628239 5.936287002524682 9.166223673333901
Se 4.343441662610334 5.358795792128702 11.35611549474403
Se 12.807467643092115 8.517071073813263 8.23427883580567
Se 4.444648872495498 8.486473198367772 4.4430510844798325
Se 5.638814068313042 11.699365159077951 8.232860128646111
Se 4.736615427235574 9.8584145577308 9.699292924534225
Se 9.319062888537248 5.890105590585168 6.31704309887208
Se 11.653235722932513 5.441347877634449 7.725672443001653
Se 4.818360803960562 5.226253347351234 4.92619731110788
