38
Energy = -104.70260974 eV
Se 11.092432700797193 9.457560441085697 5.0551499051223265
Se 12.89930731771653 11.704780767746055 6.866662931906872
Se 8.71000343565166 8.529801016348186 5.943908186257528
Se 10.477674828026329 12.734752561527966 4.997274474871769
Se 12.664689433289093 9.150235279840066 7.318905617583259
Se 7.886103935032871 10.731324177039435 4.873552885485363
Se 8.298240482419851 6.320655972313662 7.3544666465420425
Se 10.840654334405993 6.93751421581363 6.184782705052787
Se 6.21963766658215 8.474821896627759 6.395792691218564
Se 9.633111894435686 10.643113921511564 7.749302667288504
Se 12.825947624268098 9.02649266658292 10.146039730163784
Se 11.909500098163647 11.406704301787974 9.311761518148646
Se 7.777391019723677 13.35607495650075 6.969453812751183
Se 12.699135832257891 6.746781990913305 8.540930989880748
Se 10.7731173929825 13.88398677983256 8.311565307699373
Se 10.774518171476688 8.519514801075026 8.129695495094525
Se 10.233887795344113 5.240049662567486 8.613244899777342
Se 5.540972757215323 6.568952823644715 8.6071368389447
Se 6.896597337273449 10.931132883060195 7.3702850717498025
Se 6.83606836935609 9.096945231284487 9.117660301442934
Se 12.156633784709223 6.44052477298547 11.03880959921756
Se 7.5159201733251875 5.182939748255637 9.68282644037622
Se 9.26553163708955 7.078682024242381 10.984057231501676
Se 4.73317468923284 9.50731363860358 9.129114885856005
Se 12.779812912987886 11.047833394745794 11.756905761820663
Se 9.666380105846175 10.54878942117377 10.84376242746128
Se 8.667665283467574 12.640611305302937 9.295500742769628
Se 5.896258841221156 7.41045012177422 11.314239361406527
Se 6.195915533556166 11.968303067204417 9.725521034085261
Se 9.871237484471711 4.401279366124516 11.219134769612728
Se 11.343899646209831 8.72908042219426 12.533833693780133
Se 10.33595520656066 13.284374559008219 11.148822987532668
Se 6.169016570530008 9.898286610256495 12.110475970797816
Se 10.291390432243917 6.707905101740176 13.690156309548417
Se 7.295096178248342 6.070560912703717 12.858462682258574
Se 8.207025415465594 8.993993147489729 13.009249686136943
Se 7.677442564743271 12.04871026591451 12.176945674773224
Se 9.77274842672608 10.88037305484939 13.702576126756087
