35
Energy = -117.45258781 eV
Se 17.13151104376651 11.473772964478828 12.465877575040965
Se 14.088992209838553 15.529622331502978 16.398024347946354
Se 13.266078436558043 13.610643898337608 18.153445500866773
Se 15.81036349781363 10.163792376331955 13.895885028153357
Se 7.062605472560803 14.891305845328564 11.417240650465862
Se 7.900807804881254 12.569010987545644 10.908807421730932
Se 12.20326361151753 7.1264205419604645 14.657226738030323
Se 14.051256858262793 6.022115073211128 16.08472510747886
Se 14.229113026789982 16.71925211624656 6.936154053524476
Se 16.564239486725114 13.742440582940095 12.842595618368513
Se 6.757052211670295 8.093652857581086 11.331831850094414
Se 14.359621787041606 12.174592021747767 16.418321231977334
Se 15.527471211642741 14.03069013453649 9.211778200107895
Se 10.550090587459422 15.13215443068045 15.66007303969352
Se 11.071689972510114 13.250618827194028 18.21919952412575
Se 14.665300208665625 14.152206685957658 11.518406183056364
Se 8.831469983210548 16.248586544684503 11.01410091775216
Se 13.008849976266657 17.519638707359626 16.674328743583125
Se 12.292694625245005 9.267017283994639 15.180814409365832
Se 16.513636587039944 13.73146135047033 6.439608725347453
Se 13.782594439940159 9.679028375101408 12.568520593551368
Se 10.786244226327836 12.122850352741555 13.28514737677757
Se 14.569923063589508 14.439312724164736 5.595196470781803
Se 8.51903142838559 9.371538551755469 10.973396918574055
Se 13.655467865554757 7.48754238911335 12.18143377245008
Se 11.163026887097148 17.32306809086718 15.098909508375952
Se 15.984295107525826 16.2322185829611 8.581807483766257
Se 12.043261180897877 13.828150747602736 14.289273273217713
Se 15.593335105634061 7.650812788336213 16.40182130805278
Se 8.768841003832438 16.56239154797815 8.562143144641377
Se 15.885282840994968 10.994065435826537 17.78630052857033
Se 12.302537689399314 15.533843827039657 7.438538819767205
Se 10.798270938047082 17.480914229661266 8.076539601986699
Se 14.988704237420428 8.93576725157952 18.409239774489063
Se 10.18361222042088 12.767696878194176 11.037764513448215
