37
Energy = -124.20143564 eV
Se 16.170426716110203 13.115007153384035 10.317755154981482
Se 8.137615166012823 9.600020007008391 15.377965684060124
Se 12.14704878920184 12.440911683002668 10.066721591301816
Se 11.42198382369072 15.904741776457445 8.292500852050244
Se 11.71230240759292 6.811891617508988 11.781034394963635
Se 15.333629717618946 10.361976760468476 12.204918190985403
Se 13.872161978966368 14.026366807078533 10.35009745296883
Se 11.689534589171037 7.400538982980043 9.376573487764528
Se 8.23558334168591 8.823707645493117 13.217007707623097
Se 13.655973692456344 15.67218306923286 8.364067119993774
Se 11.09334551472585 12.580917675371664 15.48373343378819
Se 9.084150578044113 14.237516160216737 13.966675681022117
Se 9.264773130485738 9.328037222489904 6.775563123488662
Se 6.078664148156484 11.447892873595128 10.755715149040684
Se 15.461503438474894 8.424529704543337 9.407312366075873
Se 9.739839449277287 4.4560781832336795 9.968597027279408
Se 12.24617068734295 12.16069657021885 13.435344076391063
Se 13.384461378720887 8.288616075621293 14.742389293582475
Se 11.266937174736423 10.492328098029496 6.050190185628669
Se 8.19017380051145 10.526102803337594 10.428990554036893
Se 6.05288462489078 15.066380740836028 12.263340596772114
Se 13.201304606888032 17.638125357007148 11.117884990124903
Se 16.298540678959263 12.838331861770627 12.582491158823215
Se 14.476841260396572 10.358254820298962 14.48197796852152
Se 10.409657404999406 9.548800480364317 16.0930963903521
Se 10.773059940357816 13.391365193077313 11.858630115621082
Se 9.57567344925198 5.680115118460567 11.97267398863184
Se 14.541827960872396 10.217294846074472 8.175971964724472
Se 7.970720727915795 10.804835413797074 7.963170979996853
Se 14.44967230181666 8.015088038050191 11.505637829614882
Se 8.172930088803394 16.004466116870102 12.554658295467096
Se 9.64675472676466 6.494838683272179 8.714137633120641
Se 6.119964341599338 13.779524557611266 10.274160733808412
Se 10.788333962162833 14.982164612439066 15.512884591865706
Se 11.140293411502752 17.441563452013977 10.369297076723514
Se 11.076616728537468 8.487708897717187 13.905125238684214
Se 13.215183781438187 9.255507617624803 6.402093062143162
