39
Energy = -131.36734154 eV
Se 13.130967997925575 12.61407097219233 5.938684630072329
Se 10.235130187449608 6.992974620170146 7.914163807201763
Se 14.522913378191427 10.864433053993126 5.340981774842403
Se 10.884077980865198 11.759228260690652 6.337064721185486
Se 7.226411025301423 11.402466454760097 7.2102487551380925
Se 9.653383419401036 13.439311535316696 5.219109871141071
Se 10.233013731276182 5.851172184892783 9.820502704965026
Se 8.975534880735719 14.79380258099338 6.963050832172698
Se 14.279549751476786 13.95294804891899 9.352331417679773
Se 7.831781114117713 9.144902119455969 9.246327395867027
Se 8.255557277004264 7.614576529180195 11.002227754407587
Se 11.760530171325314 9.041237160845018 8.398245928182229
Se 6.972248534511731 13.56129226797519 7.7779911293220545
Se 15.02145003542598 10.119088790885739 7.606580187051447
Se 11.685871666319942 14.070713465906397 9.936531016031697
Se 9.30910670480399 11.069042412021329 9.870392558860038
Se 14.565134791608038 6.374154274064773 10.74116101654191
Se 16.605897803084556 7.484350963006212 11.192486538963657
Se 15.875198126986293 11.927110869152175 8.717847050938776
Se 6.60120952990946 12.487182032936845 12.632880518477908
Se 11.907791110320504 15.520476434727259 11.715929024529753
Se 15.307020688936028 14.534813278540186 11.239749510532745
Se 5.273300420428593 10.89314559406778 13.663730003709345
Se 8.097781014890844 15.826627697447298 12.961251824195248
Se 12.160519172671272 8.837663830182427 10.603840411700434
Se 15.869560995559363 9.523321028444897 12.141829950793454
Se 10.400517157327895 10.358925856689464 11.722915341521722
Se 6.476761849279626 7.523336432396104 12.668497526391034
Se 6.905672315440271 14.401610969519608 14.211890744840167
Se 12.997305650513193 13.273521627874201 14.098704857323796
Se 6.758425959438404 9.137339815040402 14.339562072033923
Se 13.890182915611144 5.708738163929687 12.908231387125698
Se 10.974069822359292 14.64165251877413 13.699686733517783
Se 13.112963649135539 7.757321693706446 13.837593349532932
Se 15.15685411601474 8.866808645056379 14.300775943315266
Se 8.876487930476026 11.625000650879823 16.67196727127335
Se 8.624146326054218 13.827058697986361 16.092934199079206
Se 12.508357328129994 12.154365060069619 16.067900474644798
Se 10.728570513697417 10.675470451314235 15.485456808901095
