39
Energy = -92.15925638 eV
Se 11.979987385813264 9.577677318995079 6.9125797017744794
Se 9.980580112516424 10.836763455888622 6.827111795962981
Se 8.073659071362792 9.252635941347265 6.712511081727169
Se 14.431969654272418 12.867295805100364 8.555106139883302
Se 10.068493109108877 8.485105227965743 7.856392666165993
Se 10.093268852549233 12.692264460762496 8.304406095286147
Se 13.330575877454926 10.619054576339474 8.6913141264584
Se 12.178412641509299 13.85266795221392 8.41705989872539
Se 8.143270116863674 14.08756305237598 8.765015505300509
Se 13.83373706543449 9.240609961591863 10.584100304451777
Se 7.9909148948044635 9.844058798568465 9.081749414167268
Se 10.569286445372935 6.6772065103020335 9.401218809285018
Se 7.9719373819918005 12.054617186807342 9.995045803158005
Se 11.624465374367174 15.170258689703264 10.28413988883122
Se 15.338817694389842 13.791751812976157 10.79988138606426
Se 10.190847504405836 9.0946912643393 10.359865961620962
Se 9.414474809024789 14.397043691072817 10.801046760924917
Se 11.41517984294076 11.264921124919173 10.077854586913173
Se 12.093643486183108 7.622317789863442 11.061514601445403
Se 7.86583736796626 8.804320671083321 11.294033083265491
Se 12.962847262297714 13.083337565975928 10.794826299435565
Se 13.543142847190511 15.403038369591258 11.727120901374235
Se 9.188196391823745 6.8611008292709625 11.342380841229646
Se 7.674833249366029 11.923478767804232 12.351646558829854
Se 11.000163959166013 6.300648572067897 12.925405999119453
Se 15.043417509653898 9.819556408067038 12.564144031042161
Se 10.113276466401642 12.251754850836774 11.95047025705748
Se 8.484117032729946 14.139882110362201 13.059485099403005
Se 7.197405062446447 9.795954721692738 13.427181454686682
Se 14.745855586806824 12.241747943474543 12.642011412599905
Se 12.669521801922444 10.670757746763378 12.361279266975794
Se 12.75946707487479 14.089412099530461 13.592006319324751
Se 9.54252102080679 10.36919572425596 13.705001025213054
Se 11.234662826691212 8.669771191154288 13.207348554231368
Se 13.433951031161792 9.136171499995113 14.282236416606306
Se 10.553448930985747 13.30563597165452 14.082754532906245
Se 12.672705863983314 11.359275519624733 14.844110854918066
Se 14.438416552456346 13.076248135184041 14.919653810422938
Se 10.419768108479719 11.53728394805463 15.70606602078766
