38
Energy = -114.92221933 eV
Se 7.7155322813958875 7.645979181109389 2.429396015258999
Se 9.024939961770903 4.807850769857802 4.017100796452578
Se 10.857708055568693 7.727608985387639 4.089862293898195
Se 5.426870054732125 5.076324386955192 3.6937766856205725
Se 8.012037050293234 9.920230556775708 3.4745339963108446
Se 4.985781098010651 8.04228270670812 3.637443847151868
Se 7.947808829961437 6.705267406445707 4.733719663567522
Se 11.354987338890341 9.949250264926931 5.109801295410006
Se 6.192535665712537 10.711751164697283 4.184089887153323
Se 3.1482236359639644 5.36378589224106 4.275229458119072
Se 10.265582840479631 4.99016008048806 6.668179466300464
Se 7.090284490065464 3.67532102429522 6.364363783400947
Se 11.889739221578468 7.994864734321242 6.1745687393107875
Se 9.10601520272904 9.33985444365699 6.31295993133005
Se 4.511888760435305 6.857153897492945 5.929540449882032
Se 5.6324973880694 9.806021527843168 6.630544336538
Se 4.466469569966426 3.984291345809003 6.933026058483672
Se 8.368863826603393 11.613802433423846 6.272018859780687
Se 3.584639134894856 9.290086143204634 5.777176317246216
Se 7.56554813697494 7.487631805043859 7.613863340830791
Se 2.6875126183840017 7.3962023566608925 8.043964583345755
Se 10.204236882958213 11.077778314437404 7.8080422306846895
Se 4.369328390821069 8.944601430093854 9.152348077569092
Se 7.658544749553688 10.902381476209447 9.1510786263396
Se 5.3383427040342895 5.438027461952521 9.464052006376617
Se 11.67982940905919 5.666085414131243 8.399890343088213
Se 10.377193796087365 7.709502160668046 9.268310253177203
Se 7.671158418170231 2.8910240417254505 8.371777432967807
Se 9.226319894821426 4.545388417595275 9.271243655561728
Se 11.875399613150062 9.379539213756463 10.100097451838927
Se 2.732709616165946 6.0728063382113655 9.956372191870257
Se 7.520474329318078 7.262784838065495 11.453250092980689
Se 6.299067694183675 10.059464540817252 10.877065149506441
Se 4.489463300959833 7.429860378280093 11.179773492254649
Se 8.949628119558886 9.89846469512351 10.831289978003038
Se 9.710501905555166 6.486847474508559 11.455686665866907
Se 7.378978575723668 4.841453259753613 11.330565094816546
Se 4.656479422268403 2.981391422196115 9.537119436575082
