31
Energy = -104.41853985 eV
Se 12.704739011088718 15.676512847658731 8.898127297570399
Se 8.804324218801156 6.708748560573571 11.515829110767198
Se 13.515724109876446 9.070488456255807 14.2692268957522
Se 8.842565904162177 7.580581820031183 9.46014334687301
Se 16.0385715097768 7.401935483899054 12.118055124438984
Se 10.91181322221885 6.778133242587967 8.374918829306148
Se 8.462939007872617 9.69924073372217 15.055143118908171
Se 14.7288580524871 14.32756210024728 9.18933014346762
Se 10.503860040940156 15.856450994037969 12.468555285316592
Se 8.387812217540835 15.87597618896222 11.340861164818078
Se 13.823137473631366 7.019639138576673 13.327211138532574
Se 8.314205197989049 13.534621339663088 8.33013537443266
Se 10.492317458168719 12.73262103993155 7.890178065308631
Se 13.883274182632416 11.462105692332882 7.314547056571233
Se 13.354345026367117 9.712707639173713 8.607232139791485
Se 16.460756565969625 9.563364449826219 12.384020606235156
Se 15.9756559757097 15.70594378000979 10.618674671943674
Se 11.72596803818604 14.612372320808612 7.0913344362819775
Se 10.070433167389611 10.228696880822154 16.73582588702176
Se 14.868377036723194 15.426608025804727 14.428731191532481
Se 11.90164913483831 12.926396434673151 14.737508261102356
Se 10.490878175418299 14.151651957910788 16.165552649614288
Se 14.102642804215423 13.470167387629033 15.47366258333826
Se 12.821992673996816 10.511942624711523 12.470789732608857
Se 9.440778696489033 12.208546230711569 17.699636190061934
Se 16.343368140663863 14.671105061750255 12.709317340980439
Se 10.625281652345992 9.848784310782417 11.933579945155769
Se 9.074615440997231 11.079612007629185 13.240776580706084
Se 10.051693907555876 16.285917303020263 14.673827244507457
Se 11.689972803923094 8.58521361399105 7.183656967463255
Se 7.9593748350837705 13.658278015323981 10.665537302650645
