34
Energy = -110.3514763 eV
Se 14.067658630516046 9.376522804997304 16.183547987416034
Se 11.305648839835467 12.427921457583793 10.857136296724365
Se 8.825696927497875 7.022783559219083 16.912641107434187
Se 13.168802283075198 9.559253058543991 12.497590980829893
Se 16.679094340921985 12.788791845500585 15.990977617615334
Se 8.510657139038484 13.558792400164219 15.093126978774743
Se 18.802163893926426 9.535287865475329 9.909498398279396
Se 6.772209350301231 9.659602083081507 11.410992890631844
Se 11.1770403589568 17.67733254497771 16.365552473532514
Se 10.44795518838602 8.38135899781307 17.50369317120948
Se 8.227673793023733 9.943975388446217 9.729871264204418
Se 12.773308350119603 18.96116750001788 13.283553080549204
Se 15.70585719894301 7.839156193589195 15.45249215804092
Se 10.096885587485675 16.43975380002857 13.831382425379594
Se 9.144252975101999 13.550039696902571 9.109848224518867
Se 9.791303255898727 18.0390461350161 8.859162204646918
Se 15.329806960578216 14.504983656098029 13.88374383674826
Se 10.963199484071868 10.279134598648303 7.551422714544743
Se 13.199162013516753 17.225811757290806 15.67066992479686
Se 16.914511149462015 10.54411075989955 13.023564751079945
Se 12.15869596754775 16.001813507940383 13.223534206169695
Se 18.43950487257674 10.928969900629248 8.198085150415627
Se 17.199107386913415 15.669066381702898 13.922349964012023
Se 11.807958882511707 17.12164494021597 9.100770183505409
Se 12.378297608139201 11.261769787769458 8.961192240068259
Se 18.34393245551932 14.198582183245348 15.76048495841353
Se 10.718224828217636 19.321012044272376 13.934585431804127
Se 7.537751500897149 11.994937560437103 8.550880144756956
Se 17.553996349857936 9.179186090603856 14.841952315023335
Se 7.873965534375088 12.024115139044936 13.64027391528879
Se 13.302966465191062 11.89862359508743 12.140390542929376
Se 16.693472474741572 9.231412427105592 11.088865338165585
Se 12.291319403386884 9.091154778905272 14.620404170027793
Se 11.875345378028587 14.84031238830715 8.973189781022079
