34
Energy = -113.51359927 eV
Se 14.914172291621089 15.433109964479405 16.86163343540638
Se 15.715961633429712 15.285086860349553 14.663086886987353
Se 16.18975953622735 14.861424197852811 9.959120117418086
Se 13.068876489085039 10.452580390578177 17.992090882700406
Se 14.736605723268177 11.716960182125378 19.243761010345274
Se 7.741685657473628 9.320595141579714 15.072061095388824
Se 20.705892694287805 10.65326616042288 14.217991918384818
Se 13.898579158120567 17.023340724157627 12.008737317562218
Se 21.637721389650807 13.981382636114054 13.05453864207291
Se 19.543801162890997 15.091816369957403 13.314632870703996
Se 10.527931205836168 13.417621648326906 11.42335342748999
Se 17.69607493026068 19.849764863294315 16.90465144283049
Se 12.5246657871011 10.252674500680715 11.272433619644422
Se 20.29789067989029 8.55006726127223 13.616280025440028
Se 13.347547915934959 9.441032620469116 13.320978465518872
Se 11.106826846631765 14.334136547654621 13.550265842576117
Se 11.40807839135677 18.772837748262763 15.660795958046956
Se 18.433205488637615 15.472331019540515 9.614913494175115
Se 10.334156539166825 11.087915594518538 11.645323509048833
Se 14.253618037588861 11.272850130902768 14.506604070262469
Se 19.295661599414647 16.582248163509284 11.516383681031792
Se 15.002400009472568 16.923003194910734 9.939309350877538
Se 6.321213085326139 17.204215317242358 13.709611219116985
Se 9.116993505783691 14.741547977426269 14.681898559066305
Se 16.640789668368072 10.549562354214734 19.299894391600763
Se 8.532365682337295 16.95794542319125 13.61969344786281
Se 15.565001993921927 17.442377443502505 13.66248737385083
Se 7.201312995628367 10.992119752681491 13.753720663352947
Se 12.61038935074687 11.804168162211136 16.133614069339714
Se 9.10807459093039 18.671650228548774 15.357207071620804
Se 12.535605622022057 15.300286442167486 16.872302846044892
Se 18.332270015959285 18.601078699431824 15.212183845451234
Se 21.167279468228333 11.896077046293561 12.146285538497013
Se 11.875710854198507 17.451045232926436 17.580273911080543
