39
Energy = -113.82965118 eV
Se 12.734699759601076 12.004941247921094 6.340898552866191
Se 10.236145234841112 13.398951057043837 6.489765866953861
Se 11.89433211151009 9.486394445359732 7.09157275636783
Se 8.270701856303726 12.194085203595531 7.881725218332551
Se 7.117894655590901 9.812357267735427 8.279009554136566
Se 13.797500821782075 12.841412797364418 8.78797743158603
Se 11.201749877851194 14.634164373044799 8.772424317480827
Se 10.908503146590249 11.538514412154077 8.677308320130212
Se 9.579728545516723 8.531451187474854 7.640995785168786
Se 7.056654374338028 13.517598330235469 9.574399056916606
Se 13.704423189398192 15.118391072381574 9.321186506431877
Se 15.3869442085427 10.563347897789695 9.737473625469987
Se 13.25483338866451 8.612267800518998 9.207004880004904
Se 9.006963349173942 15.953979507021936 9.73557538018496
Se 10.203829663379317 7.57416561416013 10.11014697104359
Se 9.379378560157281 10.22183504663141 10.195324111467292
Se 12.621494335955 6.343562690285852 9.698651230224202
Se 9.727831852651576 12.763015808506573 10.691609714058897
Se 12.39929573796616 10.800330732917894 10.55727993664248
Se 8.3382321982451 7.585807646085913 11.89551177079917
Se 14.911828081701849 10.486915421915663 12.242577389463456
Se 12.708806574048142 6.693038997872869 12.150908746968895
Se 11.903897069004508 9.673352225128415 12.66393826970258
Se 7.022301477316771 12.344747854629402 12.146017242787897
Se 10.22633748048295 15.761388226444934 12.023880761678498
Se 11.803342133251016 12.766559292493879 12.08268506347401
Se 8.29456222341647 10.251445603253341 12.448065016059063
Se 12.945304329608854 15.358463672869483 11.713865320724253
Se 10.233627885821681 7.301644070150232 13.528178581955896
Se 14.72848355016639 8.19134204768124 13.63456988555303
Se 8.738276553070385 13.726660304227465 13.635030621605317
Se 15.554392377571476 12.393354581880486 13.717609023167654
Se 12.758783969539763 9.26957493574234 15.429935247450901
Se 9.840577632393838 10.428506995295422 14.263966878103021
Se 13.594107131144469 14.202646619347247 13.819411124366333
Se 10.74823425684865 12.784987200322055 14.781002834013325
Se 10.265779965102578 8.248182779119416 15.968939092777163
Se 13.470478016529732 11.53453077261445 15.57064260725757
Se 12.33457830721262 13.990920143073222 16.397771188916526
