38
Energy = -100.06641908 eV
Se 9.29079019883427 10.097820373757187 2.612903418038418
Se 8.18835577668249 8.146160837672138 4.090907697175853
Se 7.940630615799007 11.570248848644706 4.639710926596224
Se 11.51276381394715 9.877944774399364 4.282115483959426
Se 5.929091468967256 6.793651606960989 5.4145514865308675
Se 8.734220731100931 5.4699309282458435 4.9375403019068935
Se 6.427409467824942 9.923283933662223 5.821590579013795
Se 11.385162563324567 7.171374888935221 5.488604034306419
Se 9.6760026653638 9.852794422172973 6.617164702459576
Se 10.699750435676458 12.518830216011763 6.506813280842112
Se 8.484549935599613 7.432073147396747 6.795221541020931
Se 7.791755644936879 12.334870376598115 7.339852193321052
Se 7.379518395819443 4.690679067453233 7.753063349283013
Se 4.453458047347097 5.677502283130842 8.252082118372668
Se 12.72001933031807 9.807334636610115 7.032970947163992
Se 4.061509134440713 8.782080272714337 6.932681771532301
Se 10.37162224977864 5.271073219630978 7.793853893797098
Se 6.307295198102626 7.845147827002722 8.255682246028003
Se 11.35701882378888 8.011249858206723 8.219927420619833
Se 8.32886631306957 9.636662246204828 8.562578946440548
Se 10.628649327544796 11.419450398310493 8.872459848549862
Se 5.4851654721218335 10.911820361715533 8.748496079625221
Se 8.760324214347126 6.9166959346562775 9.198571933672106
Se 12.60676336987324 9.317380302322608 10.138710336112089
Se 11.618705690410028 6.3653958590806345 10.291604620568206
Se 4.247522264436725 8.253412341528907 10.168566542869948
Se 8.166658993192195 11.950977427222915 10.328542975229869
Se 8.947318896507245 4.578365902966304 10.485593783131142
Se 9.827731576875145 9.247548876816424 10.501631654292193
Se 6.190842375924182 5.602629599248485 10.649645647770809
Se 6.978631568204599 8.713549834483128 10.533799711913991
Se 10.740187212857377 11.458841287809182 11.900549320346553
Se 5.622122884444264 10.795743802708643 11.597200153441333
Se 8.326140460652312 6.770290203673986 12.441822102609184
Se 11.23741210174652 8.602862694490979 12.990229413771038
Se 8.337422358937506 10.017208781010327 13.156509649896691
Se 5.917946517431434 7.771654570088185 13.017702040771628
Se 10.624706251013345 5.699500403698792 12.932590194262742
