33
Energy = -109.81102958 eV
Se 10.2706758298668 11.085612837676631 10.99234639695985
Se 15.722781697801645 15.246280349384078 11.122975492845267
Se 9.997285282189576 14.520082571400023 17.25213947610233
Se 15.741300959611273 14.007187342890992 17.374502433248363
Se 9.51783066739586 12.44427993895368 18.18155225747894
Se 16.474563592539802 11.49034343160594 16.550912611643742
Se 8.764663636137076 10.94541371411508 16.473498179236984
Se 15.74949096554688 7.4928453346115464 10.097961840848223
Se 14.981417085651952 15.057506726910958 15.42110865670275
Se 15.067522176732068 9.116164884559472 6.809049422192377
Se 13.8335672525545 13.41121441325647 18.53014382168758
Se 11.656965168286671 16.445095188128075 8.449490230456242
Se 14.60821448950926 10.40919300321353 17.175586354764203
Se 13.27309365911048 18.415570816580992 15.424761067977926
Se 17.885353882705626 14.742459630881777 11.101580732249865
Se 8.884479366387769 14.468265833218513 10.038889582495399
Se 11.650460830361922 12.296128552193608 12.515056180198869
Se 13.113921387232706 10.827157831832453 15.251532420637986
Se 10.127198398833201 9.072951940400975 16.7856441512328
Se 11.79348575620015 8.934080067236556 15.062058549616491
Se 14.105312736743238 10.730247303607864 5.630100109012213
Se 12.692382946141057 17.007776383038273 13.404524427175266
Se 12.165642008679717 8.662272040492468 8.944281021594083
Se 13.329637734419936 17.72617746851618 9.4700368906249
Se 11.097106788624258 8.864052876511831 10.993856182965652
Se 13.881589422611935 11.96522790381061 11.76909187525965
Se 14.591369611667877 9.24812239040465 9.395783990311593
Se 12.503082416601183 14.824236104401399 16.554226067169324
Se 14.385342143030865 13.391409127302822 9.996741521413318
Se 15.396023698975974 16.71959476250404 9.092920405832842
Se 11.971098490557766 17.545721315851846 16.995744331215977
Se 11.285908918555275 15.5003867435131 14.396779141858183
Se 11.049107956712483 14.954818128970329 10.313001134967575
