36
Energy = -118.32060509 eV
Se 14.447068480582635 9.530346825586319 11.433903961292712
Se 15.835023748115887 10.633211438164725 16.828431014829384
Se 10.488402881837409 19.52643729863347 12.142784105497654
Se 12.560741221299113 13.54339772971132 8.580121025058004
Se 18.43663649342876 12.215607127195087 13.834754201630805
Se 14.133096646626043 18.41506026508171 14.834004270974516
Se 13.628586494357092 14.52506579130171 13.218209439688346
Se 13.673872224840016 7.6826968060173115 17.511634704974057
Se 9.09219428541357 17.80328615820642 12.27600227603212
Se 5.973689076084495 11.983005962914156 13.281454846467476
Se 14.473862223962183 16.948939064080243 16.71727401440317
Se 7.879525144304231 17.72462796915016 10.004507100360241
Se 8.718762700977654 14.457210544111552 13.541060663235967
Se 16.477340417366445 12.98879919530499 15.179147192906164
Se 18.553525812984077 14.586997965720785 10.974727286877673
Se 14.596899309371823 13.485306837828464 9.77050120515828
Se 16.859389233224984 8.326222468641879 15.760893099338183
Se 18.837293744084157 12.82821782967433 17.007654882932584
Se 10.96625663924803 12.413198618451796 9.932140399547556
Se 12.292944514012998 8.976957783753758 11.295434775565846
Se 19.339267894253705 15.435704417356643 12.84744439005839
Se 15.286935758848648 8.786740132902032 18.624469193175912
Se 14.704530053563563 15.311753626445526 11.233964787432388
Se 17.826916773132503 12.181106347771923 11.662917254889132
Se 16.814339423634408 17.343868181736628 16.308202762371213
Se 9.101052722220745 10.329411913275171 13.368794090871264
Se 14.911658381285323 7.375403394308632 15.257724769333272
Se 16.07944526699027 19.558392042713788 15.688458052962204
Se 7.454904085145316 12.955654361571073 11.916756950544064
Se 6.016616824716488 14.462586565471856 10.522644068083142
Se 10.338652904187542 15.578287373417405 12.36836428283507
Se 17.40197595881085 11.622849787336422 18.322853486877843
Se 7.687013984913195 15.542908818048199 9.278991057526465
Se 11.01509251237271 10.147075680097393 9.447729221104158
Se 14.628662683407953 12.460631365098818 13.686938538440268
Se 11.330832741458865 10.255098043841913 13.365142774299656
