34
Energy = -115.26616825 eV
Se 10.369803116129503 10.628866993692574 10.40409120523525
Se 10.70609012223368 9.023148309705695 8.71880306742001
Se 18.622434719466842 12.074197979463497 14.697698973767935
Se 18.21024108661545 12.702631789638392 12.468696500406228
Se 10.981999937727148 12.776749384798542 14.933269441695662
Se 9.576960308482013 14.092377320819573 12.164271337696425
Se 9.63618596317078 11.054399147320742 15.768682913046106
Se 11.279603776009845 14.138906820968066 16.952288387532573
Se 7.352323072343744 14.502439524386622 12.910644718216435
Se 11.909466471501407 16.212804975663193 16.199879527165393
Se 14.701212703486945 14.650529751845285 8.415260463363726
Se 11.17442987391416 9.113970063137167 15.95413932928294
Se 12.065242946537191 10.285032872618979 7.226552053365996
Se 15.16356376443684 10.74212831544596 15.459440092842751
Se 13.514317925746756 15.741761622794414 10.162876593108011
Se 9.71225406227422 16.70881417026387 9.61654612707983
Se 6.880721578417048 11.69049763465151 15.358763798685125
Se 9.60175147028675 14.273141054012447 9.822314908601394
Se 15.345982122827357 10.257303428904105 11.623031821446334
Se 14.342993634045795 16.089223945474558 16.33819575398133
Se 14.197239962485444 11.645945169683095 10.01360816453852
Se 15.32855928810051 9.366420599110702 17.376692183757246
Se 13.57089419013627 10.113520406167066 18.74344753876285
Se 15.313941365648846 17.523835434969474 14.782232128291708
Se 6.433661455261919 12.328559221366904 13.220460487696617
Se 8.545726625972213 17.331526124362306 7.827240684620144
Se 12.271767844756114 10.62754920334017 11.781208054181388
Se 17.636294200799636 10.726082324311765 11.283120082861847
Se 11.722160674586629 8.718972439828432 18.1792980881601
Se 16.59061808980705 12.593341267747928 15.787865835893577
Se 15.005725327180972 17.363527375201873 11.001911561521888
Se 14.214517014389301 10.055528052026352 8.054359740461408
Se 16.211530724515804 13.175495477045507 9.43526193792526
Se 16.138682767033202 16.409588294382296 12.838840766302415
