39
Energy = -128.04459694 eV
Se 8.707871179309564 14.345584922128007 18.73874526439664
Se 14.948361088836641 14.014981233376348 13.898651150419676
Se 15.803063743320708 13.85208787624509 21.190704481777072
Se 15.275739583611035 14.707449803182625 16.093426267274566
Se 16.778892744335444 14.355111384804662 10.608492688395925
Se 18.717481937631998 18.298330957712153 15.984405847010093
Se 10.329252974293183 21.24431937821244 14.151986479160161
Se 19.275004394615532 15.007495644214222 17.603230443287032
Se 13.419450013619459 19.119188905092173 13.487140675503515
Se 19.383463020952007 11.56581979175447 18.929372006574564
Se 18.706884694722742 12.707944939116791 13.79358602286065
Se 15.072219362920782 12.223298627907946 19.516867864081945
Se 11.099914781401301 12.796149835713729 18.754789849158787
Se 17.554041288039247 11.089448247750497 17.315715078948283
Se 18.103843939738137 14.197374097051647 21.253768008852184
Se 9.2373789884505 17.967135714753017 15.774472826273973
Se 16.753014022755057 18.88883122944203 14.885788993525736
Se 16.245466268787453 13.600573423224612 5.43242361343716
Se 10.115034404218175 11.39410992177217 20.11689438462782
Se 20.86883863168993 22.704182843677216 14.990644258116214
Se 15.331677853437363 13.87608139411697 7.411447786694702
Se 20.34500804469452 19.95535301017846 16.91681860145035
Se 9.648021990397497 19.112158107824715 13.709004737575565
Se 10.611937211069668 16.075373584107183 15.984910505144457
Se 16.209576707313925 10.245095758242469 19.448803316464772
Se 7.81078437514663 12.852939851773948 20.073951958955323
Se 18.31670882533611 22.384403215961427 14.284010147090456
Se 14.33781961420536 16.892402779606428 16.331107017488936
Se 17.116247697179325 14.627238342734293 12.79537949162698
Se 21.796451916091545 -0.11693941594180646 16.73645165906399
Se 12.788212966079543 21.252488641080593 13.617374032204356
Se 16.590164042344377 21.31040664741911 15.280833554408225
Se 20.706428632660128 13.12098593000172 17.79634802322926
Se 12.33741528061672 16.542494942011693 17.527626293431236
Se -0.5398493980374254 22.410903467666046 17.98402590997146
Se 18.935515897935705 15.867683274532002 19.79028881466283
Se 18.201658813768574 9.8421932461796 15.586566288929776
Se 22.618677358135276 20.23853569697953 17.518825710500867
Se 20.38626759750514 13.938917804166541 14.609172555782553
