31
Energy = -103.98063822 eV
Se 9.588468829236886 17.97036311388836 11.647227334240927
Se 10.375910681519615 11.762570186544837 13.146803910005595
Se 9.688391624839587 11.89250217117379 10.90018687187865
Se 11.412569758693316 8.160146008307494 13.840112322444751
Se 17.203208991279006 16.794655668110924 10.376062404868495
Se 9.060531805297284 8.114389166830378 11.123805044522115
Se 18.110111362979836 15.518121262933573 13.83086367010915
Se 18.94835603826964 18.068567737412998 11.09800142138257
Se 10.321615832840417 13.874055098748824 18.550809936614797
Se 14.003681570825442 13.768582664952968 13.48097197217593
Se 16.66507126538762 11.045766939449132 14.491944538573312
Se 11.588662611618714 15.181619064719133 10.864798246282204
Se 19.59024104321894 17.181690705666682 13.354652681355471
Se 15.406678348646667 9.373313460325722 15.15676733203581
Se 10.00470953654471 18.864908599928185 15.073419096662407
Se 11.388459815702477 15.703732265519665 15.419918079179206
Se 17.759764721192848 11.151103594413968 17.143492509231617
Se 11.306655267419893 19.397560342089502 13.392045915330574
Se 12.421248798552888 6.82831647859911 12.294674830480563
Se 9.63433555271762 11.84492394379475 19.168045316804676
Se 10.166536373846846 13.841481706779211 16.101958131072518
Se 16.455580662797793 9.476645205727227 17.673548880861283
Se 11.29236438072563 13.147837500795907 9.677552510742583
Se 13.862963429412048 15.09544069543542 11.532183935301967
Se 19.015988890882245 13.516019678976182 12.816429315108243
Se 12.258105478205993 10.396697478901386 13.462534753693234
Se 13.709824259050796 15.144439373366806 15.364244352467333
Se 18.171743267593943 14.798431574221636 9.409411967134858
Se 10.728897819196575 6.8659563753235595 10.385554306892143
Se 8.31359437128815 17.458091547025234 13.352510751181462
Se 17.561946341954457 13.190991785090297 10.999439111033684
