37
Energy = -125.22107358 eV
Se 4.337895230358708 10.846681366989758 5.281531935823204
Se 4.791186246670294 10.883068237374186 10.673870776640216
Se 4.5686276106703385 9.895910205926064 7.432394678905986
Se 5.03652798383357 13.076531182537975 5.561517253207308
Se 5.364297281544506 13.196515873078978 10.68441429333461
Se 7.0233321139035345 8.376372328405239 4.945990806154834
Se 3.9747937441980055 7.674217273848949 9.440334836379998
Se 6.050217275132081 10.619876822014175 14.399283339302313
Se 10.72525376317207 8.208352530720804 4.928892193170004
Se 7.649246268111624 14.268671252821902 7.891167077949
Se 7.372818855312263 12.893347295158597 5.996170652192953
Se 6.192905632819884 7.297757925370026 9.375061450981026
Se 7.612270333471726 13.103056187335389 9.94716221514087
Se 6.734195161760742 5.311912874475583 8.098200888099669
Se 7.138742314484241 8.506939206795064 14.677067929051582
Se 6.922546929050581 9.087877254188038 7.043606465657821
Se 10.754128511161584 7.373114479202518 7.122450109384932
Se 12.92330276832477 8.183866527440207 4.025462816240806
Se 10.990880129113835 11.468061199341127 10.192396489580892
Se 9.326081182417012 8.148858474563346 11.697735520282615
Se 14.110417186607613 9.955971413336727 5.019137864794699
Se 11.947004455524045 12.816335373912267 8.62067776245843
Se 6.428226056682313 3.6235301347865234 9.792546645926912
Se 7.685816428017232 4.065460310189549 11.584237925525795
Se 11.5760027048258 7.929228882226338 11.128950606546097
Se 10.785018804460977 4.993630022376558 6.984380867546798
Se 10.99256673257029 12.749460547434685 12.315361450830624
Se 9.339699125046762 8.91911211134773 14.015632873186838
Se 11.60923923409903 11.311503953654746 13.918675910012315
Se 11.80749061690567 4.086019203123011 10.39542003819277
Se 12.562064943715104 5.851571763864955 11.7639774709754
Se 14.675980016316464 10.486596120854028 9.963238710701566
Se 15.513370139971986 8.893052484385588 6.604043720537084
Se 14.401711719768851 12.438513142335424 8.813671849031333
Se 14.166383434989887 8.637094714556348 8.497492632869639
Se 12.682926722791526 4.358270630921819 8.217263538246186
Se 4.224326219470642 10.461154570381163 12.948072282412104
