35
Energy = -116.47661035 eV
Se 8.517854877534369 8.272767644068612 11.738913425174232
Se 13.267598227986259 8.901401186541557 11.676569466241428
Se 16.486770557931383 18.303357203838903 13.122933849495578
Se 8.81792910440666 17.2001138394256 14.391664366059812
Se 16.229128352257362 16.544240238544674 14.556762072595685
Se 12.187980197332573 18.78682671442873 15.452328278201854
Se 13.5017982425885 13.775474602512043 13.452240027492794
Se 12.00985652708332 13.813116640461917 16.54455954864436
Se 15.728605217296316 15.602634186456466 10.881755125686961
Se 18.456845646978376 14.461018608098074 18.860159115415968
Se 18.300804955791953 9.66307870988892 12.22566080479466
Se 10.018067741136228 17.410802776356892 7.269822039033064
Se 9.176345982530322 16.126438293352603 12.320067632660066
Se 10.186656060702974 7.217623711256713 10.272213695590127
Se 8.708917504833023 10.492018741722982 11.555126247813698
Se 14.071963618392443 12.40052545891072 19.242159048332507
Se 15.510893830522171 8.160208475360767 10.119075513908253
Se 11.95574477523449 6.780374598689246 11.678722204031564
Se 16.791138847984406 7.742747180652171 11.903135394027485
Se 8.794105585817189 15.708671353134232 16.222272307157915
Se 15.980916697835545 14.593906186582597 12.822330378320892
Se 12.489639095136106 14.379683511706334 11.513219986066632
Se 10.510724621094045 15.76710320136458 8.731005098480763
Se 10.946030134434778 15.827155558781781 17.19177623262794
Se 14.349063678466914 19.08893163473863 12.441185159727512
Se 17.323285306192087 11.728342337111185 15.327836693159531
Se 14.359203608600803 8.8817310150189 13.621669732762129
Se 18.50387229027584 14.86178069571796 16.697496120374925
Se 11.428799831582927 16.5410062683445 11.721197365303972
Se 18.55387877335216 9.854365516872486 14.529694619235535
Se 11.707489254712895 18.17895521616818 6.025981528189251
Se 15.147795703811644 10.953047123722358 15.916207728271058
Se 11.857851908395789 12.402542949028664 18.45561389011797
Se 15.006473602237413 10.4745402024018 18.22775532465369
Se 13.497268171958407 20.26440531038907 14.368036537730339
