35
Energy = -115.21816082 eV
Se 9.074889361726225 14.113027552383768 16.022566270160294
Se 15.8056359590081 9.74387960711527 13.8425608585371
Se 17.50824227144371 16.12492513819678 13.032678752652048
Se 12.369535102970314 10.664677331463535 18.629382763922386
Se 11.818758393964886 13.45820004251861 11.116402798872908
Se 8.65908535136603 8.667951759009357 13.348452608345438
Se 16.052548466470537 11.375505415888044 15.349247782337626
Se 10.853809058053317 12.274191920877344 18.663953023972233
Se 16.736169173563543 18.397846041714544 9.284438936959804
Se 9.237746524082027 14.557802625570766 8.580125606548345
Se 16.40583168897256 14.295266776303366 13.587460545787343
Se 9.41057277680418 10.75618400992621 9.719785517202604
Se 8.704650822751967 15.620620755703493 14.462952407652791
Se 10.3129956793685 10.26465597234797 7.59678332837825
Se 11.208766768944797 8.601365606913088 17.696651579536645
Se 15.860865924113863 10.794661072377284 8.81765692426141
Se 11.372660214142206 18.376782048235196 13.240810476024189
Se 9.217265785221523 9.500718781605734 17.02052621367757
Se 9.599438934501928 10.273723646645161 14.785067469037301
Se 14.122152401523035 8.28861702308266 14.854638673798886
Se 13.531197667786898 8.239935576653764 7.431937419569777
Se 7.823168813750411 15.413728413165911 7.130103630966148
Se 15.339331725769107 12.560220376135351 10.282550571176891
Se 10.012528301568045 6.752942183989833 13.172162885882384
Se 13.443401877572338 13.680452489681898 9.40712137470559
Se 14.814454553820275 8.732206284055698 9.366842360488251
Se 11.225289184536814 8.092139926651656 7.85762023338998
Se 13.053983025504916 18.17594880379322 16.545389187073923
Se 13.6997076771275 6.664629999326767 13.23629697082561
Se 13.043867795782326 17.159911283813262 14.565115581484534
Se 11.522469498297504 17.27109931879138 11.175726116807994
Se 11.203989084028485 11.178936762032281 11.19290655727615
Se 13.058202006702063 18.417458703860795 9.829154630256825
Se 15.175503336805862 17.35611951179896 10.48896446367196
Se 11.901184341832117 7.333566788250887 11.845865028636887
