32
Energy = -107.40860596 eV
Se 11.060554559471706 12.35557325265387 8.8595999285118
Se 10.55170354690143 12.061803648708967 6.382302018170969
Se 8.634217019564238 17.26453219352632 12.227480623144833
Se 15.538409352143832 8.70437688300236 12.506612397341252
Se 14.832667900245328 14.69943617360293 13.41446415016684
Se 9.958497388087348 13.729737260491481 18.01945220118688
Se 14.989750089704636 11.149349423935753 13.077920601844953
Se 15.07235292002856 17.552028064557632 14.533068218602777
Se 8.246295362100673 14.42417730999714 16.562033738505644
Se 13.568225866055535 16.15789699186076 10.143747904079627
Se 9.864875210103346 16.47818951357499 13.916779757835704
Se 17.641163112594302 10.43465247902057 16.791299493783107
Se 12.459371011850562 12.454376452661895 5.33891504030305
Se 13.582649167008334 7.63088314207505 12.850580501539934
Se 13.855089611775693 14.86099435735931 8.24039936704486
Se 11.647590127193709 12.944690790469641 16.514037055633775
Se 16.873290383906234 12.339117247510192 15.90984191780937
Se 10.145095150957056 7.78976268820114 11.613035302469038
Se 12.955600140928267 10.975415791562886 14.082191265484742
Se 13.388968985928802 14.493114942153195 16.583326704060166
Se 14.991939482644078 13.28768755509834 18.056234734410605
Se 16.31160540883333 14.80301294697621 18.998127769335184
Se 9.590166701543247 10.093191633505567 12.623565477161902
Se 18.49135938407642 15.763604680663011 15.091348331266403
Se 12.238223621155406 8.065510397294663 10.81162434223973
Se 13.330931598864932 12.583180938945656 8.80238355161118
Se 11.426571710706096 11.326355273268042 12.163972683370305
Se 8.585741582116487 16.669979131360478 15.993507119518654
Se 15.550030413278808 15.597729444370522 11.493869987267866
Se 17.18327078734615 17.556467675280246 15.79680097411973
Se 15.52574505184282 18.28832085404488 12.466699254184196
Se 18.45590446992053 14.012707981144201 16.682634706872626
