33
Energy = -112.55202778 eV
Se 16.870244524363848 12.926817675923106 14.266921912622179
Se 17.246444272889203 13.778942542744572 16.39250314772904
Se 16.959535561234755 16.135069188018782 16.34397265797194
Se 15.894954820296494 11.203851869696502 9.214040290114623
Se 15.816322004104233 11.048215841649384 6.83608605684687
Se 13.906812850574124 12.249998809561319 6.255295920170556
Se 14.415812157827213 12.804745379674257 11.738129681952069
Se 15.566453209701528 8.999218013775872 10.015991126865702
Se 12.065777744314166 10.699181757875985 6.579120131341541
Se 14.21393106094843 15.893277758589344 18.920635989629666
Se 14.620336439790028 16.362674307090334 16.647740750861075
Se 14.428683911203352 12.96898315017349 14.060510368264715
Se 14.820743683226675 14.989567155232193 10.801153400774092
Se 13.94534526955276 13.54600115204408 19.110464474442598
Se 13.359290559683059 8.2627077207408 9.672106027129121
Se 9.701281147356811 15.53194178617989 14.770070935083956
Se 11.874172893073482 8.952172491990511 11.39011539200404
Se 13.041322148257562 15.435198095646829 9.33541907801381
Se 13.587026688867423 8.980181696915922 14.640768102059887
Se 12.356930576341444 7.528844615464889 13.203545767388942
Se 11.873834588809903 15.268592952780491 14.392130662837706
Se 12.510410914302902 8.95098475704266 16.724166784527434
Se 11.622276514871459 17.140935546214955 10.122902707537149
Se 10.56433703985285 12.598464033781276 10.472180182098665
Se 10.44034217769884 11.885578414124083 7.625235411958359
Se 10.490066905930496 12.234011413537178 13.068636078359523
Se 11.627859903954002 13.135776675611105 19.11651490796894
Se 9.747418501883734 16.25753654412049 11.30041480496018
Se 11.041618206736766 12.586663400916265 16.880487851553294
Se 10.552190039001815 10.28126941796841 16.808812799656547
Se 8.35506951118619 13.04989723689633 10.057821412418221
Se 8.680211529318782 13.311095251509709 13.838480349651267
Se 8.25703783979503 15.47687932019593 9.701272444478134
