36
Energy = -114.12019697 eV
Se 10.63714684848289 13.746627827345321 14.288841330207802
Se 13.842218327030917 15.522856930334969 8.996463881875528
Se 12.029588475903356 10.128809607088755 16.742657259298714
Se 13.866780240267676 10.58748671950032 8.699801956383878
Se 11.934405766362017 17.47376587304817 13.898636535213113
Se 10.915854756871553 12.56988128463568 8.625132867876308
Se 17.006804855943347 10.495901103307649 11.90746639366061
Se 15.89002601080404 16.07465044944035 9.113178993595072
Se 6.955143024482838 8.910425563146067 8.608170632452202
Se 12.921573715408615 14.213125087176948 17.638514425977924
Se 12.303942525215904 15.30944622753951 11.376293481236116
Se 12.778533429537998 12.130435986833236 14.940763488600052
Se 7.629663910163764 14.013474900832671 12.216310962721252
Se 17.55533846923461 14.040762558470087 7.706334310776733
Se 15.003897058982627 7.820670674082935 12.94516375511048
Se 11.652345512321554 10.954552800772213 7.3095558281386905
Se 10.03539551078455 10.675839532229197 17.51745026810674
Se 15.132661744831557 12.53999451866626 18.385174520243723
Se 7.595956224962522 10.309441536554356 10.213385674265584
Se 13.146438557974646 19.22709197377124 13.840103034474293
Se 14.104328578990382 10.590810166461807 13.414656951861948
Se 16.331586614184086 12.151032059015991 7.415920107607714
Se 15.409910281011243 14.351220194499595 16.969694880688373
Se 17.875295159276156 14.111168386563548 10.26378054545169
Se 10.43685663700391 15.35524048485477 10.059562477114474
Se 9.358624066157834 9.566804622135857 15.313203223112849
Se 13.307850990393032 12.076640430528926 10.274065616668144
Se 10.767042715915233 15.246495117305482 17.64304786988062
Se 9.491313111617508 13.722903609891446 16.31920509620747
Se 16.32105757273376 8.290807987208073 11.141520788414747
Se 15.298784867563565 12.253019320544226 14.635385575635379
Se 8.643478487908062 13.384077795844354 10.175303881286906
Se 15.041601086940444 10.49657544221685 17.38085828434985
Se 16.29540589690895 12.477461825457894 10.675575916521138
Se 7.316437674047246 11.991913537368811 13.358491631024679
Se 9.376681487544749 10.660496067229717 13.245187463127818
