38
Energy = -122.61618676 eV
Se 8.162239888181855 10.41119235262519 5.205681085556546
Se 7.957643837174127 6.833172992909949 6.067400802287602
Se 11.756878076156099 7.935466564078947 5.648543291174162
Se 8.997617135485857 12.559942747852748 5.139426942696805
Se 11.241579728771482 11.238695349940773 5.836578294705438
Se 10.680419087178743 13.935030062430421 7.615824583865572
Se 10.028448689092988 6.09823473790271 6.970835155669293
Se 13.209688135880125 11.583018694056435 6.938604041554832
Se 5.226925746098408 8.667831414877886 7.549510842366566
Se 6.498606616254007 10.622993862732287 7.682800482653774
Se 9.348853206612768 9.364434658817663 8.574474601138867
Se 12.734375698528488 9.987830970843467 8.84934234192669
Se 13.306666119390227 8.104970146389237 7.31132980235602
Se 6.748710929005911 7.027619973074508 8.156467354063613
Se 8.280354176841755 14.137688359325963 7.893587832557162
Se 9.750250719147873 11.4677590410832 9.58165931299558
Se 11.292902131284986 15.078103556388507 9.54596519114465
Se 5.7161861589211975 11.438368257686031 9.97936917763468
Se 9.281978908445858 4.339331511352979 8.759450709493457
Se 10.308724324627123 7.253747277779481 9.955706548375762
Se 11.275831232914266 5.066107275638629 9.574425501171449
Se 8.47019285413222 14.37458922097196 10.251047186557185
Se 6.105813086368071 13.736260325512404 10.313578710700742
Se 13.67016356710592 6.55673895953767 11.154357093051233
Se 7.176096948414052 5.895219142174912 11.533809497903892
Se 13.756321587652364 11.73930327266854 10.888633552089464
Se 14.1748412196351 8.673947353778635 10.517517555133892
Se 6.250758024246038 7.9631576177792125 11.231874006005278
Se 9.91489339061707 9.721870635580014 11.171224465442176
Se 10.509570930892222 5.9832727499274725 12.522508683424915
Se 7.434047079593896 11.699629544178915 12.734099733027126
Se 8.69405178777582 7.115506727050532 13.881775710119118
Se 12.12968312751926 7.521697466205019 13.296400664290738
Se 11.025075319754414 13.12740153637036 12.696825616050084
Se 12.2123150176328 10.977653364051879 12.449488718891288
Se 6.5965985977410675 9.500439308550837 13.156361173435723
Se 10.111965882365505 8.821271039693078 14.524677777115722
Se 9.19550047997009 12.673271375591066 14.071605408782604
