35
Energy = -116.84721423 eV
Se 8.659427395171587 11.515356166555748 9.360839455173586
Se 14.765430778427806 8.897190663917199 12.619678727665066
Se 12.686579336284526 15.112470025397865 7.1688655764444835
Se 12.21795108692599 17.055292984258738 8.166589498269522
Se 16.41683473165593 10.398801096151221 18.289294988726315
Se 11.058404707619069 17.02956295328126 16.979229712531676
Se 13.80927690479253 7.7327272667791584 19.13409238723083
Se 16.370208499132573 17.385376068800824 16.61255480771639
Se 15.767444906453893 8.164137833416714 17.89215773460037
Se 13.621656987326816 12.756254085368179 17.168272741046163
Se 15.22988065916588 8.107969762625478 9.8046471864135
Se 13.825908427627942 13.941497958136715 12.523473752523891
Se 12.718781776076101 8.05928323243949 9.366704833425773
Se 14.764574940854931 12.304200973010621 10.903563832418348
Se 12.586709020702653 9.286153862183626 12.572780559627562
Se 12.172279494379058 11.69059266254378 8.158982218646106
Se 10.129115656290066 12.111821273827964 7.274167990052757
Se 16.083338108218843 11.0001096908418 12.236445160092252
Se 10.18845627921462 10.72157980367571 10.738129849030054
Se 12.657076884408523 9.379702133272502 7.504732905953351
Se 14.941067721874358 15.78992131029683 16.095619909689514
Se 11.959320877141135 7.947931519633365 17.688676450695954
Se 15.640089187899633 11.71699225791494 16.498393886690437
Se 15.188883965582734 19.197811802387285 7.130045278061639
Se 11.811313983823785 17.03155487891178 14.79290698678139
Se 11.987221763220164 14.725465241818217 11.40438168773999
Se 11.830268609569195 11.494636674127756 16.287420335190276
Se 8.434528660520032 14.025625023529425 10.747188545275536
Se 14.386050484220657 18.104180522892822 8.90142960506452
Se 11.026202991592385 10.092198229765364 18.001559590544275
Se 15.954740854213163 9.919561671020162 8.752772129544754
Se 10.0031861767068 13.450292662622159 12.218827710902234
Se 10.244016310644579 18.54996573422461 13.809337747169865
Se 8.594203544541156 16.985475543330217 16.585435944404466
Se 8.553428632485089 16.93369000515661 14.280460867415142
