31
Energy = -103.30949849 eV
Se 19.751652839178806 12.630504171933861 10.929362061239608
Se 15.248195447895501 6.269494463961969 11.78655965325728
Se 18.356852589950172 13.08949452105223 12.844677252321816
Se 16.630141856099 12.106887938167985 9.982430766855
Se 13.466546403255526 6.81757053931972 12.952615421104634
Se 19.133193000230694 14.87108743949491 11.481998365278407
Se 13.804660299027926 15.289179964577668 9.397991296365138
Se 17.959353200056718 15.063630074598702 15.162459820187149
Se 14.834210679204931 11.68368516230688 8.684754053585152
Se 12.16715553439913 10.046912784167498 11.802095064251647
Se 14.173430014820541 13.877948224657862 7.692645725883716
Se 17.271702288918636 17.2461603634961 14.254358074618095
Se 14.988782019173005 13.244060391755092 16.601719089912702
Se 16.701738413254446 14.789954434194335 17.124896226350703
Se 11.5860319499939 9.703661274277838 15.266919127803353
Se 12.943542333085187 11.088153134434492 13.735603004408585
Se 10.08410013427362 11.049791120291419 11.19029350156139
Se 10.434912962014446 12.574951258243754 9.423984853020372
Se 11.679344155603575 10.45587713595723 17.4283032890445
Se 15.078130397220132 17.54093962591858 14.9818998602386
Se 12.960637347470357 14.351668488273859 16.10094969072044
Se 8.166265077361679 11.142626342312393 16.52028994204125
Se 8.741759678730984 11.656483223328582 14.237250025054339
Se 6.960385061192668 12.822646624557985 13.245519562618016
Se 13.408587294195263 16.933420736157686 13.449603720013576
Se 12.999833229652697 14.576625616070372 13.772087878157205
Se 10.97033344122077 14.73375380575677 10.26129161193461
Se 9.934677253734481 12.149986494878299 17.624106086017235
Se 6.9281783719963865 15.140375262407515 13.736762211387594
Se 9.016507596199242 16.110241913912198 10.617742533712756
Se 8.88925525827794 16.200786513743704 12.961166297074932
