34
Energy = -115.51503201 eV
Se 12.904756358077101 15.39677819045048 10.562205246179593
Se 17.70921074609371 17.7225333709311 6.178448820301046
Se 18.047574808121624 15.077609004784401 8.682767461257326
Se 12.11173162280456 9.160021883664992 8.720876035080817
Se 13.979504462426227 9.635285584066272 10.025765259998444
Se 17.905713493080572 14.822051084182256 14.32335190605835
Se 13.521791083682535 9.361845207190706 16.946864379538226
Se 8.209770323282017 16.675735938641672 15.793164792998617
Se 13.48686402619139 14.240983985247189 8.599415819283063
Se 16.66560075829282 15.851089189443075 6.8067712496564
Se 11.41569854736495 14.303279299006716 7.383894021032688
Se 11.895706302891117 13.961602312479876 12.15357954136908
Se 11.957498570228841 13.125414063650803 20.133119774764207
Se 13.15062490034031 9.637754836521713 19.30420436176529
Se 16.601610977281567 12.296914251945392 16.69559517800313
Se 17.162968170851826 11.521039315805144 9.780168174053548
Se 16.706549505925327 13.065124871352948 13.814291703713213
Se 12.032084717777012 10.758511511900176 15.91738105545428
Se 15.632546355060555 10.429205476969047 8.42563244444499
Se 10.149705040455977 13.53446488675187 16.764972210647457
Se 9.615295271774583 13.93375622802464 11.534474645651304
Se 17.778332818909423 14.071926940095956 17.189718525568452
Se 16.6629344976911 13.860687435938425 10.098627160443185
Se 10.457253144612563 10.86034484626676 8.72029824035734
Se 8.757490552120615 16.09340039974432 11.998159591440436
Se 7.192461852330457 16.034325980903816 13.752052646015684
Se 10.399788146600839 7.743112209321213 17.52485942539097
Se 11.812550585001746 14.44995205221376 18.184733563026796
Se 13.895236734487048 11.786533810430736 19.881651226994215
Se 8.162749161177853 14.75808455902021 17.156806439834817
Se 14.498452146838664 14.023549008431234 15.511176066965985
Se 9.831324724264972 9.573254727784542 16.42557537204273
Se 10.98484068452135 12.093630020386083 6.756499784907763
Se 15.644234076531577 15.806868312065534 16.043223910992175
