32
Energy = -107.38261073 eV
Se 16.40222435895823 9.00693722877668 9.420700305304427
Se 14.913317211201909 6.407361553825446 15.308254869958153
Se 16.722970734144663 10.278923377043956 11.390126062314799
Se 11.637141292575274 6.449693942726617 15.549419665011083
Se 16.90693828087329 10.581660010973934 7.727766938803244
Se 11.880742886630236 7.183219262087292 13.378612870636855
Se 14.762247178091405 11.632008090094647 11.411660607410782
Se 14.971216706491257 11.947300477240393 7.747163398863642
Se 14.385308942598066 7.186847400595553 13.214251360364425
Se 13.373989779853881 7.687498051761404 16.626471943858203
Se 15.261781861413978 13.220825421960694 9.715656134404934
Se 12.39099697316549 10.987036481542694 14.34913738702636
Se 11.426229332742722 11.507742161830212 12.301526306511219
Se 13.640407983615262 12.931997962366683 15.030198874704256
Se 9.893335960766963 13.280831129686389 13.118306100738868
Se 12.46407226323646 13.755512574332968 16.91167135524449
Se 19.0347209341007 17.00538417823702 14.218920919759785
Se 12.592183353419832 15.063702266447896 12.601739761095777
Se 9.112352155269985 14.407215656526347 11.355679492461018
Se 17.596488638861214 18.686067432982927 14.249462627876456
Se 11.318078449754873 16.074459665148478 11.114370483025011
Se 15.355359791723778 17.94053384966561 15.236858505942775
Se 10.663554626186809 18.29632422295916 12.409731928012365
Se 16.522147004876825 18.89333729345602 11.84086392511544
Se 16.10468619445191 16.82582581999426 17.137334116419133
Se 14.303451055282489 19.080559770010687 12.002190980493939
Se 10.837600969327925 17.232275005704665 16.2075684473605
Se 10.510917908504046 14.908088000562005 16.244406858138074
Se 12.006015676951561 17.94582868683884 14.22474702879612
Se 12.99417838303072 16.80882292429824 19.644382576849715
Se 16.38595638104842 18.400781766182252 18.840373039781696
Se 14.103016808027922 18.73272457089397 19.71767475317821
