37
Energy = -123.79794997 eV
Se 6.693199159155931 8.538621193127943 2.4562967725369647
Se 6.855693821442567 3.933717840641301 4.92246224036932
Se 4.533730200585583 7.775723875210219 2.704238529334141
Se 9.580301281604806 5.813509773008106 3.7597454891020923
Se 6.76114615387868 9.650396033649232 5.717009636840273
Se 8.921255382269859 10.476868898305511 4.8506925805806524
Se 6.9751003172659525 6.282643419612273 3.8971790127209
Se 3.4656686853709098 10.02187813200862 5.5787955128327456
Se 4.728532781353965 3.866177142532526 5.828418494329729
Se 1.4742565482586514 6.856658679385756 4.0060665318199495
Se 10.540969718702215 3.3142352214622868 6.4801280831006185
Se 10.180065714999662 11.371912433717503 6.571938080579331
Se 13.431415972156515 9.316064619164518 6.146279196143495
Se 3.325151239351616 7.590483976881467 5.0165458066379625
Se 7.667737684365753 11.59866514343771 8.46035438402751
Se 13.119652514905878 3.5566411650462224 7.494249377908629
Se 10.447731353469544 5.802457076519739 5.862424083735233
Se 7.022937205128256 7.375240042739868 6.118301958368968
Se 9.53801085638206 2.8971627449173094 8.409895411184754
Se 11.552562817169921 9.328216755438662 7.334655572566281
Se 12.15687714933005 5.807097287307719 10.208336943377894
Se 2.2996504484322853 9.987975042839656 7.7028268467295185
Se 3.719729091498079 4.659428780566443 9.430584308470515
Se 12.437191989853625 3.417336840765142 9.617231195818842
Se 12.460346962194238 9.99466448468997 9.61630982013709
Se 8.427410587413435 5.89450012888584 9.989282221146825
Se 1.8236289366667757 7.810689797324207 8.232956761502173
Se 9.168401024155937 13.088817726999107 9.585811696084605
Se 4.055389849323318 8.960689566008664 11.798852270599257
Se 3.760036166135924 7.057040152355738 9.589277774381381
Se 5.423786063534012 3.7314812206785373 8.149056681197145
Se 5.646271908623542 11.518003934841879 9.677280264316266
Se 6.110422585999342 9.785787853873812 11.390855384129217
Se 10.648096853206214 9.854304146361365 11.04349266516076
Se 10.318660170217013 5.817575332327957 11.580908784070697
Se 9.810921221985753 12.052228806144031 11.582691612835825
Se 6.79812864228665 7.0751737898967715 11.068637073996946
