38
Energy = -112.53285229 eV
Se 14.764216740019656 9.052081162008264 8.237208123313387
Se 9.946764387655444 5.416665959077584 11.858065088605771
Se 11.725959038409746 6.829949033677358 9.384365632403583
Se 15.149676422839894 11.584441852696859 8.228570730321364
Se 12.232346841044128 6.532523482440809 12.340052784379765
Se 12.638466291304997 7.6289775139618055 7.422267076064169
Se 13.724726609455574 7.567872389185944 10.428028691543561
Se 12.546117064703138 11.129408322186807 6.86403879145032
Se 14.053309079558765 10.884878131264237 10.89622455747362
Se 8.798843029803752 5.684977212578421 9.6306867280244
Se 9.955797802415256 7.080521345872175 6.675111774400325
Se 7.651451163408355 6.932793659415132 12.09466484125816
Se 10.918626689867539 8.43583200296892 14.521288822450503
Se 10.430997988812605 9.749814312519659 6.017912552603155
Se 9.916793181623518 8.891162185545847 11.570390558029503
Se 13.269012800620338 13.337997021932281 8.990773107288465
Se 11.254707882090878 9.94690443021667 9.619938494771526
Se 12.993169938996202 9.91100082279416 12.824250428521054
Se 7.484535491117422 6.446006555598866 7.174936877795097
Se 9.058625589034266 9.053862997851684 9.161403024663068
Se 12.140416684130942 12.681037370485255 11.502162475103287
Se 10.539613619951473 12.504185858227759 7.740129966829308
Se 5.442987709575633 7.990327870183592 7.338824631779168
Se 8.207202044008595 9.3479631937593 13.983136811975658
Se 6.375500298885628 7.522356444846716 10.189578076887036
Se 7.802737086024242 9.202616311808086 6.095631631929944
Se 9.31222148041765 11.309444121557302 10.441698411553022
Se 10.828643797694165 10.761271677284428 13.700753063172753
Se 10.72503920562838 14.555371207411593 9.952237468182295
Se 6.707759588438815 9.967863056466136 11.596257936148671
Se 8.081698531271494 11.578015113581477 7.217117372570167
Se 10.472641340628392 13.468508002206187 13.380080634226088
Se 7.68593038470223 11.513412799268812 13.179601107182897
Se 5.761099785732288 10.173400531359613 8.45452801873476
Se 8.181341053469545 13.803543892674812 8.216935828919736
Se 6.326849149766334 12.176490749222571 10.235974477408524
Se 9.756272923483717 15.62780111951928 11.72828880014178
Se 7.910254214921437 14.28621250012758 11.291870579323597
