35
Energy = -112.83109944 eV
Se 16.77557883934446 16.882162365161996 14.772435408579469
Se 10.86658413095252 14.543755806862727 10.61388899461422
Se 15.793465623418943 8.266500649502342 15.070697500866254
Se 14.517639514018462 15.314466203227827 16.961726341407626
Se 12.392021848886923 9.256411025194376 10.51419232005049
Se 13.071805902399301 8.7361910454537 15.70646452154087
Se 15.562136822462627 9.647323873127979 11.699367482724867
Se 15.394738492708209 6.781220946277796 13.522798676216032
Se 17.445465504115706 10.372346129627555 10.35591364618479
Se 14.41644398078103 10.714168798953402 7.92553351576056
Se 16.012165808550417 10.529372060299814 13.75482087005187
Se 18.067252322743734 13.934467270824076 9.15012277322479
Se 11.379362943514533 13.487004120842764 14.958928025563935
Se 8.46654808261179 16.88475486961785 11.11933587052824
Se 11.507251161785714 18.402178101692176 12.245519326290298
Se 10.502028058506577 18.128043583615824 10.243122476120213
Se 13.890437210368114 12.979900255862818 11.923008757740186
Se 12.33392076484021 7.286887406961971 14.177124750429714
Se 11.543294824793543 12.599674133485534 11.54004430793385
Se 7.63895989541143 13.695025835353151 14.241158531911045
Se 16.459574968074218 16.87514314327842 12.544983291635383
Se 16.437492948808668 9.750079327346706 8.253971884152834
Se 6.576969562454452 12.545997186590162 11.883751470549582
Se 10.194628510454637 11.607465405879745 15.849407636338483
Se 11.11111645256219 8.315196636439888 12.35014732370183
Se 13.67338702285817 14.658208324595249 13.545030098163858
Se 8.846995441888433 12.24381508813399 17.62154485564778
Se 8.869886741007669 16.803456426140084 13.31010235090636
Se 11.52409267659778 16.013548636487247 13.25695139469172
Se 17.91620183347442 16.01142291023681 9.894728088227245
Se 16.541959137912627 14.612424674589638 15.917684090151687
Se 7.170184698181027 10.556609179350316 11.090636955236867
Se 14.815406811623856 17.57450738629891 16.544611622958556
Se 7.04385946145777 13.491374014089793 16.406374493331377
Se 12.813470164741323 7.649075444830129 8.998356459398666
