39
Energy = -131.79708103 eV
Se 12.548620916856727 9.017593921696436 7.869540180614774
Se 16.942265341312087 11.462812957506653 8.452032010990465
Se 12.15161493732089 11.360346235599195 7.579850297021751
Se 11.785893647657375 14.496124246677546 8.101919439365243
Se 8.682170848496026 12.312587202202394 6.396428897024185
Se 10.620783217817538 11.463240420645338 5.6887126199088405
Se 15.400948669223522 13.264926731451965 8.62544532904689
Se 14.79253135293378 8.623003312378424 7.2445930938399385
Se 6.740755997719172 10.514119636522622 8.88795362948553
Se 8.752545020284733 9.499606022386295 9.396142144190353
Se 8.942371829791595 14.818533256025972 10.178534974053969
Se 16.01145287683382 9.386434193137266 9.136592816684074
Se 13.964091378049513 11.22747667780557 11.397296280182744
Se 12.652671175327837 15.047323026219237 10.065403091660775
Se 10.567446776589913 15.859586608669353 11.420389467323815
Se 10.05332386484956 11.252726733199607 10.617894774569246
Se 16.34937478593033 14.914178549457857 10.122897222960582
Se 16.299980140542363 11.383758473011683 12.07576172181275
Se 5.170699175483365 10.779533537721614 12.409065850847309
Se 12.824270585383509 8.755742480789056 13.655949327293097
Se 5.079305864033945 9.636652162175972 10.335429885318362
Se 14.043864919375384 16.531704827979265 12.93638314310797
Se 15.794342883951446 14.847060706147964 12.404196406692211
Se 10.021866811869376 6.156418522520577 13.975657953395146
Se 9.353073546064852 7.846125261840681 12.570806592610497
Se 12.691389371748405 13.106590316328274 11.902088528374593
Se 8.522963894259588 12.775929941728865 11.434443604453056
Se 10.6253778494265 14.584735066138133 14.5905383227227
Se 16.42909089526994 10.774970682920527 14.32167229789924
Se 11.459229556194268 10.844472697112217 14.01912441255287
Se 12.019407269057576 7.148349672439672 15.047381774760328
Se 8.400536372722877 9.595675158826676 13.950613640022876
Se 12.869282913743493 15.728400618310316 14.772544393376814
Se 6.0632249018178275 9.279623193677518 13.991877688823017
Se 16.59386865648933 12.837767176831708 15.595343475490091
Se 10.386705657426152 14.391473699456263 16.889569371126047
Se 14.50223909391248 13.366105556962449 16.28473253658084
Se 10.47708418328294 10.803555001669837 16.133567098443155
Se 11.487613012080647 12.379015704959716 17.59590589650468
