36
Energy = -122.09061977 eV
Se 15.682846287520205 11.9106233602775 15.893539410024124
Se 13.760224849542888 11.47980472347235 17.19710001891023
Se 16.617997188582006 9.924436457599935 15.138927514027348
Se 15.585752493186774 9.81531259682383 12.914463719168669
Se 16.407645726556684 7.938463695675019 11.883876713226082
Se 15.109484154666273 6.061503607817024 12.726558862089504
Se 11.823793835943645 16.235723057259232 15.100473458395141
Se 11.401880762567343 9.34562804656788 11.714345237407422
Se 8.63884827200355 12.898685042807257 16.64524609765379
Se 13.512709032234092 6.610705911579737 8.63272835475625
Se 11.434901327280107 12.383860746760355 16.478163411809696
Se 12.912859220989262 6.772926210001414 12.518769264173185
Se 12.868268692032805 14.399277363591809 16.024623553593518
Se 14.977645456666494 11.4753482198802 9.66367927875106
Se 12.041296110654564 6.075592526643265 10.35959845274659
Se 8.161834882472496 15.003687716052555 15.756474015637021
Se 14.052695370810762 13.501551003343629 8.733374403392407
Se 15.115836745045858 9.947880439085461 7.884641028431528
Se 13.096751451232496 8.749780333254414 7.654199981735983
Se 10.122317274273536 11.757132072725433 14.40752358920188
Se 11.922309035261119 11.361834657251132 12.747472963276964
Se 9.441074986751824 10.572355979806117 10.69782595807298
Se 7.111194095186769 14.804209750283704 13.663067008843578
Se 12.060456940836314 16.075566067581384 12.70907735238658
Se 11.883194165635636 13.618819451675245 9.417105560283284
Se 8.013005507439914 8.804660363309107 9.535489077739388
Se 8.124869552281714 11.146549047522996 12.484751693745482
Se 8.9186174402039 8.580974863685839 7.479037952163472
Se 10.727558282623242 12.41183035937159 7.381014688363202
Se 8.758303956227984 14.503012471864952 11.96344660675071
Se 12.231051431040727 12.508675977159317 5.760536989117476
Se 9.932575583872017 16.566058943762894 11.86212676290558
Se 6.241252259319184 11.312077184533416 7.511936994091131
Se 7.492086543081566 13.115883100268816 8.718823166576575
Se 8.8024414151873 14.08029606928382 7.121060633500953
Se 7.718778051193276 10.375589304664516 6.100515761938436
