32
Energy = -108.43519488 eV
Se 8.850863104684649 10.111141118134954 9.818887276193268
Se 9.679255676218226 15.402123915007953 10.478189413992546
Se 9.158946323061533 10.826524995812509 11.98739245299104
Se 15.771652394841595 12.583887536854697 9.016357758951132
Se 6.881587691159667 12.138828801492215 13.849122093095174
Se 12.83109891734955 13.381491920638734 11.285682133495193
Se 13.92172425540867 14.698049443999514 17.97283803201628
Se 14.218133059091755 8.8221615923896 13.791344015356872
Se 11.771858595284737 7.790039045358704 9.088275083764188
Se 12.352849192381134 12.521537491831664 6.257924512514185
Se 11.713335752674029 8.937295473197537 16.784195021137055
Se 11.882061920852976 9.18358208058961 14.587435880742856
Se 8.745847404998841 14.334573949214864 15.61051797043643
Se 6.434926315323934 14.064580739959817 15.126650689047052
Se 16.91835355792702 14.715508290967382 15.322679501410294
Se 8.267074994796808 13.184969923468689 12.085624391662567
Se 10.45050587081903 12.839588932902638 7.534174057728781
Se 16.224906502437282 14.978443740876129 17.55167367068239
Se 13.899496762083045 7.801342745607994 10.092698095684632
Se 9.439909245782065 14.882252078138695 13.384146406811222
Se 16.623622596775142 16.792226445091654 14.192347895455365
Se 13.865490298842083 7.032293393050919 12.351622506960362
Se 11.090359596068526 10.06821072540205 8.675043533623048
Se 16.697233486385986 15.92879723921026 10.552494202210747
Se 15.228165201695068 16.27622850024508 12.370386174510067
Se 11.438990068395888 14.399680258828905 9.376618380268576
Se 12.025764602842845 11.910549055658008 14.433135089840016
Se 14.038394828184188 11.657819165412967 10.37819577407472
Se 11.532764334928338 12.228861136423093 16.62169850149814
Se 17.28880708098333 13.639673870815294 10.481191546451914
Se 13.480185409889826 12.368485431490882 18.013891416140027
Se 13.383486085791398 10.60690208988544 7.0352176492126555
