38
Energy = -121.45547713 eV
Se 16.86784432494182 19.50224259526306 10.609195465669194
Se 9.957911226515657 20.43496137640153 20.015026932775395
Se 20.79785366757965 17.789016928408966 14.214771329363563
Se 10.611053333035683 19.42735367472158 18.124728551072565
Se 12.90381418867069 12.558490049387885 20.663769625276615
Se 14.784158857809768 9.5668914369913 21.11271769402896
Se 13.500677051143217 17.141191278913567 11.491057971733015
Se 12.683278459003473 16.221463100623406 9.319530059666192
Se 21.132949875579715 18.592923584954587 19.826950369405743
Se 14.600841080372751 12.571822509736489 8.73686302699971
Se 11.814468946136381 17.865263047617013 13.752264328497295
Se 23.034906491926424 13.853236034168447 19.571105038581468
Se 20.971689465545893 16.874849362250064 16.699284789299213
Se 22.715578964522987 11.915645731325721 18.467660492115254
Se 22.005074990522175 16.514704894660426 19.2117858081412
Se 18.63220599970045 18.21666323021396 13.501817985725564
Se 19.99120367136459 19.234722446396628 17.927640587371037
Se 13.792956791629635 10.761046795667397 19.497999078727517
Se 13.331820940646784 12.81884760661253 -0.005751610050095694
Se 14.964257652951114 19.316840175593903 11.993285029725715
Se 20.329778474965313 14.429159976600296 16.76890089064051
Se 18.282988296086874 17.73152277466037 11.139391136190426
Se 15.05890506565863 14.770479041024089 11.38398091480908
Se 19.486085067156374 12.872026723880072 13.989760662595407
Se 16.951123854954364 21.23422217763678 14.299775156238393
Se 14.921349991282426 20.020899286409772 14.955317296932945
Se 12.626563337926736 13.882991800801921 8.675395333620454
Se 12.346239062613277 14.011363911593886 22.513462509295344
Se 12.239578018385457 18.753530979967437 15.73785861665342
Se 21.6114536995213 12.505156479118627 16.337813926918574
Se 13.152463757146686 22.1439505033558 19.10949808011075
Se 15.113985541499996 12.123317401948901 10.960206516932635
Se 18.48163031391956 20.737670197881926 15.95959392814589
Se 14.216787490535754 11.014044456595759 22.967753608829003
Se 17.724315785896653 12.663269212523101 12.618322068766059
Se 13.996730488691705 21.113848947631293 16.795256982137793
Se 11.761397109397281 21.83196897490409 20.810948576453
Se 17.22168924120023 15.042506076377212 12.220235251857035
