33
Energy = -109.81795096 eV
Se 16.105174203499804 11.804534852845165 12.085217449305112
Se 13.675343444428487 7.920364660319825 7.879329561121311
Se 10.32396506685997 10.489105279302889 9.348596146347925
Se 15.582153028391405 10.138829944171865 17.388579672852305
Se 8.177116855620401 13.167530330445109 11.034595831241022
Se 10.481918985173207 8.108673067981762 11.966006675828458
Se 12.313838580870048 9.556190571803084 12.74371926127119
Se 13.137409058461307 11.346973677756058 17.624847156001028
Se 15.336476735321087 10.327965615827399 13.70914634676336
Se 9.135149912130707 15.477845983259822 10.43139399478106
Se 9.202821526857988 15.817896860858278 8.240703491259598
Se 10.310466918488705 14.82622275425057 15.598544055818959
Se 16.299665167765074 11.420592786456696 15.70019815326649
Se 11.574230886309914 6.448807514676443 10.753139152034567
Se 15.955173053916283 15.08049222240155 13.8379046069585
Se 13.361844004023181 11.966260731556172 7.354151635417092
Se 6.811161124661568 7.95558222888463 11.18068430439692
Se 14.288288345365697 13.457940415117642 8.74813742241428
Se 14.015178238868506 10.034617119544139 8.776541254344204
Se 11.12656758549186 10.568845865837835 14.544755920629216
Se 14.778074152050689 13.765026124410133 12.12718525885011
Se 11.514415056540837 7.125763760722917 8.476658575954437
Se 17.710112367159436 16.107745344841355 12.910609787860933
Se 6.684558093433327 9.826849975047752 10.02887392618674
Se 10.076420678282293 11.874920553928858 11.34364063646764
Se 11.56628031945341 9.562835735642544 16.555064944039085
Se 12.388064761697146 16.899006444055125 11.589464085017976
Se 8.785817470728343 15.884807263906069 14.402285919237038
Se 11.72388461012494 17.72258171701459 13.780903807369503
Se 10.786500419998545 11.876842172865507 7.588251287841501
Se 11.443956796508386 14.803782890601699 11.340980927787582
Se 13.364262405437078 12.934574054562429 16.103191432603133
Se 12.469803247645396 16.206084580669163 15.312790420296254
