31
Energy = -103.25266717 eV
Se 13.615617095455743 16.205426506013268 8.562552446001185
Se 17.09817482864423 14.026944436650203 12.750592887003643
Se 13.614914001872508 10.849256352562284 16.44164488684834
Se 9.184895787933547 10.073227490603337 13.456301847951854
Se 16.006004972362003 13.63896251130991 17.22483387377253
Se 7.849349402831984 13.289973917875797 11.465799536570202
Se 16.181963952646203 10.74753739736519 11.26347103945059
Se 9.54244764103421 18.036842256237808 8.914281067921225
Se 17.096237214625624 12.247875314244517 9.913529325472222
Se 10.124309869025748 15.999312708898426 9.611251506523953
Se 15.112977118295214 9.418097041175347 15.321513659819415
Se 13.180558447597377 6.271667131690014 14.478235063326073
Se 8.99969084847889 15.380785804517144 15.798765745575956
Se 7.818098067882564 15.305794407633345 10.311726231808116
Se 13.776981422075714 14.623550293897187 14.37913169580293
Se 8.835211920008122 10.365445242077096 9.192606730772216
Se 12.446278552560981 11.525512152336068 12.422310391279977
Se 14.05555388823841 14.080439295716662 8.997600614089144
Se 13.692392432445656 10.810672708931767 10.64857361263833
Se 11.096588431744234 7.974729675151758 10.991374219648746
Se 8.939092282837683 8.51443722263881 10.824998966932723
Se 7.029687024517916 11.600825482313555 9.941631976451884
Se 15.103673975792585 15.558595812821379 12.750584549209105
Se 11.334826089221774 9.49073062019875 13.413850832643801
Se 14.49212280680917 7.175855814840689 16.051520432511673
Se 14.721779489634455 11.921924216717038 18.224284559848527
Se 10.72598117353234 14.658466814398585 7.500459849798171
Se 9.497847212754623 13.722743149307878 14.439493223060381
Se 14.51506325612616 15.328067747797562 16.54616916180217
Se 16.35261188090393 12.112103808555695 13.618391074028203
Se 11.819622227300146 12.90474998071251 8.40307230662699
