35
Energy = -116.61655294 eV
Se 19.59541695409867 18.34423366458573 12.434810694322245
Se 17.994074467797315 9.003120614163414 15.97124035244002
Se 15.619898016841097 12.147811509949738 8.245724577640946
Se 11.63615009829874 15.566349906869807 18.871660588430913
Se 15.868438503638645 18.592619608609557 12.079534101200263
Se 11.317388745412817 11.58149413260082 11.314353580714638
Se 13.4012593957742 7.167282296558078 12.076377420063972
Se 12.726053874205528 15.087552508773786 13.6983181626547
Se 11.855151494466233 9.415222657538823 14.686929158981378
Se 6.529018750831249 9.391029277086462 10.342421356492475
Se 10.953878419670666 15.391998279015873 12.17766284116238
Se 8.926324318310382 10.81535128013016 18.100181882392036
Se 14.062865037224139 8.983697192077413 10.711729150503839
Se 18.04607695380603 10.074839527020842 17.882875311747483
Se 16.678630130529584 15.448466204237393 14.031780981002115
Se 7.677324369579131 11.234548583058023 10.870957007307858
Se 15.712640717547588 15.021572298962258 12.022240464880223
Se 16.656552659084895 18.033192658473446 14.077708244486539
Se 14.794141926688635 14.264313003978648 7.964295288595007
Se 9.489740509950629 10.591081452424804 12.391031166679461
Se 10.063846427663357 8.213007499102778 15.679355023393311
Se 9.343624139856 16.546922036313568 13.681202067265245
Se 18.190319047837583 18.75230184134027 10.790347594635907
Se 13.01937106357492 14.749303107943154 9.486699032532853
Se 12.114202271046707 9.929611354153225 9.79532695189162
Se 11.140162182200413 14.064023931890649 8.069054220354493
Se 9.268084017663634 14.70029855205552 9.105060990778272
Se 10.429671087085906 16.329578038225623 15.719504028499486
Se 17.53081256235339 14.625492790601063 10.396222111793701
Se 10.192100982361286 12.524692070342498 17.15021260550674
Se 10.194060996626389 8.808699975934545 17.947973863447807
Se 17.36267659676029 12.382638025794499 10.047080161135211
Se 13.672690673131317 7.965526538790604 14.281071059192822
Se 11.490996358797204 13.341181722209978 19.060894197504883
Se 12.601537692481838 17.066127302383375 14.993345203565934
