36
Energy = -121.26266579 eV
Se 15.912779546843199 10.767339812024737 12.775724247515512
Se 18.610991469612987 16.25572213300972 14.511815430192193
Se 15.513648656776473 10.067476561437337 16.603624182877244
Se 17.91358098877179 15.502604700672531 9.57462494781196
Se 16.37958822075185 17.16561658846152 14.024636273968689
Se 10.512590070594309 18.326584628238063 9.460180362481418
Se 9.1431048472375 17.522922955297762 11.929382587159402
Se 19.56230594469457 13.488048761155511 12.18342394131845
Se 14.605955423934553 15.598236665537708 16.713105725815716
Se 18.05398785622489 13.304384497669298 10.380531773125915
Se 15.062354818730133 7.17267885963829 17.301262743501457
Se 15.743815288959164 16.25881165146781 10.253452631947638
Se 12.260582923686814 11.283600677226731 12.278053013381056
Se 16.53038107276652 13.087276768627648 18.757767664854622
Se 11.726790178764395 19.784351099418686 15.667198004315281
Se 17.100617575738607 11.993027997203527 16.761245872105736
Se 14.038573218831466 9.776723809112806 11.74710125507003
Se 12.616606333540986 7.469856576713862 14.633480904386412
Se 12.109122765826779 18.227128285169968 17.471185233347825
Se 14.357066333426156 13.927140087031535 18.540264653996843
Se 16.501973218753964 9.35121291949843 14.56019019386521
Se 15.460852617909346 15.652966226745283 12.51212401523237
Se 12.422556206687787 18.78055205174782 13.649980606207535
Se 12.452664125259485 15.32205761923932 9.487069339689548
Se 18.407416696703393 13.959624638031379 14.213414257758494
Se 14.439550014682574 5.967674713103993 15.551829772668844
Se 10.843093282647436 13.862232887256171 18.332270396616863
Se 14.286744738926554 18.01114859320525 18.020007575124
Se 12.662741830206254 9.112602602437388 16.113294727829746
Se 11.133488933919159 16.87997326553166 13.308513391169337
Se 11.236115025118963 11.690394241112358 10.225247853160692
Se 12.523619393658501 13.111332168773444 8.785827854529535
Se 10.290716068559343 16.249642129972376 8.696727849222736
Se 12.605118356045157 15.483215603117868 15.711142425882903
Se 8.61683612981348 15.525494289699745 11.11267757502964
Se 9.721335198877128 13.424825239664706 20.180746746251614
