36
Energy = -120.23744099 eV
Se 12.576641738945693 12.042550611927368 17.61509987076525
Se 9.70598936044002 10.11643933476119 12.88365945976481
Se 9.122732573100322 20.225782931133903 13.166243516259154
Se 10.185743192353822 15.507740114709629 17.59099512799989
Se 15.584313844256393 13.579565212142528 14.22373263279999
Se 17.559518812200878 12.52419651098465 14.566692708128919
Se 16.708118029909148 15.417357886514424 11.431285340754577
Se 14.831662684247652 14.640222489504742 16.338176202475807
Se 8.139042507065072 16.534537945941484 17.080346837765244
Se 13.617602649741062 10.371841649960002 8.534167705550754
Se 12.132722376908117 12.222947852528582 10.893798538150115
Se 18.024745975465457 9.20537584398347 10.52944378815416
Se 10.019164816238092 18.49166877331661 11.890240694320315
Se 10.566499602522649 10.720059742920247 16.988399874368575
Se 13.565662372490998 15.31733734661876 10.943564568437102
Se 19.138796394530694 9.28240564133657 8.62932752014227
Se 14.666887263992692 9.358460387102541 12.191019481145881
Se 11.861734619348157 7.018603002640166 13.142063807412889
Se 14.989497079903737 13.891318063242105 8.278769033470667
Se 16.049630489816046 12.640701099781243 6.667159247580077
Se 14.81878330052108 9.930924421818602 14.547682995730984
Se 13.138455381995836 15.866033748264282 15.287683464753183
Se 12.293471244520763 18.389149836289317 12.73388060592984
Se 15.444927435846465 10.274742587407745 7.275941485591744
Se 10.448147438065208 8.237443170821697 11.67660238756733
Se 7.508756472972033 19.31835343019402 14.649397813221832
Se 16.999172841481535 10.161823782509588 15.217829716486513
Se 11.52713260606836 11.601737284224154 13.12382698900712
Se 12.591364940836472 9.535326029752332 17.382576655131455
Se 14.009193533332024 7.107220400042794 12.15648116611896
Se 11.113135042202233 14.646707779291326 15.571692667928504
Se 11.364199559209395 14.369147335484266 10.362641144032866
Se 8.328999677766241 18.888762618019886 16.820612754843683
Se 13.32300452602733 17.650305341687844 10.758365278632223
Se 12.590594845010372 12.8091869104776 19.686554178501943
Se 17.01932980708837 14.008882529136418 9.715646782235147
