34
Energy = -115.61901483 eV
Se 18.12907281502341 13.97339063857217 16.97816238519485
Se 8.599936419772687 15.675698057002089 15.799634988257829
Se 7.539075770084105 17.94801944033659 8.728059095479109
Se 17.237126734262368 11.554328552515498 9.369778561666578
Se 16.882571731532757 8.940400728091017 11.764131943393455
Se 13.721805166691487 9.347022407023026 17.339318682380295
Se 12.073435613057864 16.704216206001192 8.17033224207649
Se 19.197549350629785 14.993169453204247 15.039141684214584
Se 8.635745704071809 9.026267379196392 16.588063271895074
Se 15.328972889648488 9.450602133176096 15.528908329188386
Se 7.7147241013474375 11.157535507369742 16.318235889337878
Se 12.505202402925798 12.554110698860708 14.430131417857334
Se 10.5097767470208 8.802497604515603 15.120215792093724
Se 7.896564527842865 14.46461552627284 13.91200763549503
Se 8.321668697919874 12.663255456232235 18.05854096259424
Se 8.93613340793576 14.551290867155767 8.11361098912898
Se 17.861567178981396 9.70338010000274 8.206136155369274
Se 11.929488877669735 16.37497062248958 10.45342933715659
Se 7.465091136130215 16.019855757163434 7.116988548583542
Se 17.56413929866871 7.8640516293576175 9.95508062284619
Se 18.930865738963035 12.13544016164294 12.682260841865322
Se 8.488627785770353 17.235002912188513 10.596599965553212
Se 17.824307555225232 14.183963671560443 13.355565819171282
Se 9.76014156786056 14.304018003886942 12.389672387036047
Se 17.97600005270549 11.767899683271617 16.337235150799525
Se 12.64042113115116 14.820601333559766 14.661707350609626
Se 15.864871475324781 11.651644165414952 15.07095071255455
Se 19.257112871860176 12.423766748508218 10.399566185398514
Se 14.370424445700632 15.711515693297414 13.176491564534036
Se 11.082658104965919 14.781010175351897 7.151139239670074
Se 12.195532460204074 7.816091519371439 16.440864803905576
Se 9.868359474149653 14.148204934651618 17.092326968115938
Se 13.844627702596743 14.960917752438762 11.070639512435848
Se 10.783983776993859 12.262292808595047 12.634498403760762
