32
Energy = -107.34157637 eV
Se 12.655598955057634 10.530885265952419 9.344897199078602
Se 15.658598719529067 11.605396910221968 13.821869264839973
Se 16.484480875003193 7.886763857317444 10.464433566643518
Se 9.948036306106378 9.272920839358514 13.333387330423452
Se 10.943699396685094 11.419563740320205 13.174889246353773
Se 8.081261072468605 10.92667032018447 18.291865465542834
Se 13.640553734941054 14.574875612022172 17.055887153564477
Se 10.527163953030724 10.320195014617418 8.453732673314558
Se 9.5436696738272 8.35511584078039 9.579830417549116
Se 15.368334003552913 14.74089907666415 6.688730181692334
Se 15.259246081557071 15.290570128639562 15.310641917081709
Se 12.423494747806938 16.792215135867856 7.935021335078323
Se 14.824752694254787 7.411241077893635 8.847874661758897
Se 8.678468098238575 14.423931051988879 17.175913500112337
Se 8.157741745649679 12.601057065107677 10.777387388343875
Se 16.92094022470427 13.84410577093888 15.74971548399938
Se 13.41806815003633 14.565670103456025 7.759833460558478
Se 8.923686944535948 15.771310327099146 9.001196522287955
Se 9.534550004329102 13.392746578830765 9.085610493383165
Se 13.853847669897586 16.658457127183212 12.108609877978656
Se 10.170574311356507 15.545993106518004 15.802284696618937
Se 14.313514453757495 10.1330040469038 12.621728710569961
Se 10.835319130069566 8.094072569477763 11.477278382336854
Se 10.244760842072642 16.326221532153173 7.1698038730333105
Se 14.243170454777907 9.486549469256046 7.905545545491903
Se 15.356509135263746 7.985953169716645 12.529263791791792
Se 9.161604089340365 12.941336625711312 12.904920909272471
Se 12.008201031212213 16.21712463090004 17.192778435626995
Se 14.052556101394442 14.653355948140145 13.049419120607885
Se 15.09318395798629 10.84022496406114 16.178010584666236
Se 13.922186625319366 8.971579343377822 15.930432795238575
Se 9.418075270735114 12.085842203836267 16.943054469656946
