37
Energy = -125.86290069 eV
Se 13.686573098797439 10.030607601332063 11.663538904930888
Se 14.193971319019845 11.559835228901681 13.40898314892621
Se 15.204966771826983 8.178258086437147 11.61004822842115
Se 14.033562408822458 10.49018525101943 7.123381340963106
Se 12.797438534125924 11.57118464528345 15.351672030395422
Se 11.183399279608029 8.574544843939465 13.158359509667633
Se 13.81252707166209 12.42752192019702 5.74122196778877
Se 13.763881117542454 8.742527127382893 5.593828203527854
Se 11.629418328061732 12.803198654081388 10.244304811319715
Se 13.883612361211659 6.201221966000582 11.65835553543662
Se 9.639836189621086 9.59251776782743 11.519445527530753
Se 9.37742337081282 7.920879504732294 14.54975107202993
Se 13.273671832122314 5.6734736796428775 9.484969033253927
Se 10.812093611217184 10.612532967445823 9.758375787551335
Se 8.599131787600578 5.860046651608348 13.70694989795402
Se 11.77310628472133 12.15384026896854 4.635574372625972
Se 10.991161662931416 12.990706036394073 15.012505208299292
Se 11.412402397792583 8.455808630551084 5.680412000039653
Se 11.067489281995092 6.702626539075911 9.083868398937302
Se 9.136181134810803 11.370824313316973 14.983233764020449
Se 10.005327699564608 13.1849011654438 5.858039736932654
Se 10.103924589593467 14.463242045433924 9.560827373767237
Se 6.855971893170345 11.32997896046631 5.3700307420421405
Se 8.625442701880736 11.584502711680516 6.920524469442127
Se 8.357973138994685 5.53208995281741 10.068744234828836
Se 6.801978634408888 9.117228045515512 4.475886282213201
Se 11.04499169332984 6.385226932508784 6.758321605013077
Se 6.504449986881034 9.905433892447538 10.887593704722079
Se 6.937441762361597 14.893547975577112 11.714322854460477
Se 6.6036760129423895 12.673588587821115 12.44521448667011
Se 7.466776206791383 6.760685843730074 11.737683685460544
Se 7.202516482960888 12.596721351338067 14.78977844041481
Se 4.607494041156371 8.598846441275048 5.035933523562554
Se 6.061729970805094 7.005882728535366 8.32640880412758
Se 4.508305493927011 6.773707837129828 6.590264576998557
Se 5.106613725407138 8.22660784130608 10.23507306416445
Se 9.242274594933807 15.364202476247097 11.56531014497109
