34
Energy = -113.8834067 eV
Se 15.61689083809064 9.943295199777548 8.010334913470528
Se 12.911601348885782 14.224563714355101 15.236820291792782
Se 17.31762520630984 11.548788996962429 9.742420729934668
Se 18.51056134707672 9.737233197723093 10.080225411300031
Se 15.032999674883177 15.58143538781495 14.88648498998959
Se 12.083558750425002 13.800309015623611 13.095001414952225
Se 17.69376625752169 15.26162516879358 12.409685277516358
Se 11.080093576438074 15.845505738613076 12.285159603681889
Se 14.187631488474292 17.764408422361257 9.2807932884859
Se 13.541696011663829 9.10283250415873 16.217415048085996
Se 13.430337726339719 14.592201883460918 18.131493794737437
Se 15.40988500399946 15.796301545353817 8.504875595378104
Se 8.042168075048872 13.572562411195506 15.214249177392709
Se 14.921924890241863 16.07008054442903 17.27028217566453
Se 12.689236773161102 13.244159266767387 8.830546212992804
Se 14.857505881649951 14.121088485661728 9.922495592486962
Se 7.957253900942938 11.727238610993659 11.678611020122228
Se 7.761122767132728 15.742216794362253 14.27748893940954
Se 9.365971947556073 7.238943276895877 14.243958072953287
Se 16.93129822113264 8.2548769238603 8.475358010751783
Se 9.771708646774757 9.125808286906322 15.542382254357504
Se 17.456896876108086 14.94472804392353 14.71463941648215
Se 16.42422281146412 18.86985366047813 12.306864503923492
Se 11.873725974027476 9.83383430907679 14.680964461435016
Se 18.33553774563758 17.46393452244233 11.9381480346781
Se 14.27430933718163 11.032925937318131 17.281255797957755
Se 12.43738774244283 14.537534197933994 7.060845165183056
Se 12.392508497183202 9.379895312754927 20.189228342939177
Se 9.533950723176735 9.94915644160466 11.713760239960122
Se 6.892888827402575 12.149851770186151 13.732094736908946
Se 9.941194094935726 16.623526125706714 14.177479304489749
Se 12.774331901410765 11.34284248044449 19.205496491333463
Se 14.509513077304776 17.711546502074576 11.59047460107238
Se 8.243088382584451 8.069289644594319 12.277061412789214
