35
Energy = -119.11648701 eV
Se 15.499544423307029 9.44789135208063 14.924446939861951
Se 14.760511083408748 10.472702848614677 17.030705709784502
Se 11.914689376540517 10.252327345555917 8.103336067319344
Se 14.82121241483033 14.21242321501264 16.17547728133875
Se 11.360011643929827 14.875989001740198 16.221474534201146
Se 13.479837524425776 9.107287058006925 13.818839422942295
Se 9.00383835306221 16.623862859261 13.737275067452867
Se 10.226338915646473 16.220868537085792 11.738969241841321
Se 16.27729031174465 14.839500415108139 10.655835962267295
Se 10.227891213637854 11.694687058659214 7.363956055332019
Se 13.005000101072259 13.715169866571362 14.820326212803593
Se 14.889547263251737 8.817759035157739 9.744449465696661
Se 13.715452096699412 12.279427763786384 10.722718800581848
Se 11.373504296460519 7.242526971214676 16.34856178411952
Se 9.50278780824638 10.373086063293716 15.646418783489045
Se 17.76358561538492 15.371335893639673 14.243913243778923
Se 7.868687548185777 18.748767841767684 11.15405889946506
Se 6.867332650501497 10.708723665924639 11.297345348616716
Se 10.106916855074255 10.971011430452617 13.427826549172481
Se 16.49074775974557 11.764957943672373 7.900710652443856
Se 8.207561946619032 12.131873013863533 12.646587977498937
Se 12.247829714398655 10.577017247587337 10.47579256057585
Se 15.801188399260202 16.194558947063236 15.282229679095416
Se 8.800776327563447 15.200772382709822 10.264195981827308
Se 18.49368151961378 12.709382661867352 8.52411408333437
Se 18.024429353470143 14.998178100796796 9.106514315229061
Se 15.900937453134597 10.749388025570397 10.126521094308153
Se 17.039574795458783 13.80923914645134 12.653762691764156
Se 6.863081636424842 11.69403282930575 9.151692823031306
Se 16.6225302882402 10.744298382877101 18.223013075132492
Se 7.366700330166802 17.198724296327654 9.650085670076754
Se 9.251239283564065 8.033663422257794 15.676246773285394
Se 8.176655997802255 10.521998878236621 7.587250072168502
Se 9.335694696051206 14.691851238212562 15.103091640261708
Se 12.659789608758466 6.951113865948776 14.398654145583457
