32
Energy = -107.25685281 eV
Se 13.9415466249324 15.93275453125326 13.885307874068925
Se 16.0175343353218 13.368773821926823 13.304255340664428
Se 15.688085220261383 9.26129625453248 16.4525461491111
Se 13.594760244095184 11.476814961220725 19.006456097663378
Se 13.313064676951138 17.43932588795542 17.286165433385214
Se 11.820918863482875 13.079685510477942 15.30636536060955
Se 9.303687569631766 11.455477168638442 9.201421287313114
Se 14.44847280832106 18.73264370316013 18.70206410504839
Se 18.36813746370529 12.72277479039821 7.271884222489007
Se 12.039918429424366 16.901088075173618 12.394774309473458
Se 14.881904323871437 11.838321372542227 8.644636327607477
Se 7.755501249368387 14.748636931004103 9.2458996653767
Se 17.104955938434955 11.236660864463976 13.444188114394974
Se 11.793049259684945 8.688934282879432 13.787946901030185
Se 10.72977480412727 10.980431359922584 15.51752569962735
Se 10.234245203159913 13.927069450093459 6.516788067953241
Se 17.290735550960317 11.52148868113027 8.822415802298934
Se 10.780427323595816 7.9252669346181195 11.926512989282092
Se 12.67194025362426 16.98226818813282 10.26470549737898
Se 13.971549211304625 12.993346005091595 12.173652217582383
Se 14.39351693110914 17.836519886882332 15.107033794439143
Se 14.390752608280215 13.730022098590641 9.954829449466809
Se 10.36602586219798 15.018970208060342 12.413541322429914
Se 17.466747550220763 10.677989847134532 15.670346728372587
Se 8.183956716222623 15.280856526381292 7.138432643354132
Se 10.834266587308846 13.184376040840226 8.597194567920333
Se 15.344154789106115 9.940092014226066 18.674963749835943
Se 10.299297889234357 9.410451203789137 8.526248319592112
Se 11.986599715762738 8.915339361321902 10.061921886606756
Se 11.705499522635053 9.998986815463105 19.07407710213899
Se 10.121466954886566 14.633539257187511 14.684865288132888
Se 10.04137809574757 11.043670542478774 17.824906262322965
