30
Energy = -102.24444475 eV
Se 10.939808727646652 9.760321537877461 5.949005106422478
Se 13.615373908679459 12.16758270232145 8.041786253335857
Se 12.868108484481755 9.809487584943364 7.270175843968078
Se 8.026950103313407 11.710865386447031 6.915765047386084
Se 9.492021309611308 8.898850749051492 7.645929915719939
Se 12.788635025883911 7.0006820812705275 7.497538691226703
Se 10.460681835858855 6.672599462965785 7.682722453092275
Se 5.830226730121472 11.636660933876044 7.694481395967118
Se 10.769532604048248 14.396755590407452 8.12286979027512
Se 12.106029165855496 13.24679557180907 9.721572543910295
Se 5.475524621305837 8.260243468499745 9.523621916057673
Se 15.05332272959917 10.958760867350914 9.433644200657138
Se 8.54036915839835 13.69928832813605 8.254376483955976
Se 7.583014999969712 7.268903262787758 9.7390108305562
Se 14.099555208161409 7.16849962843792 9.538982928428899
Se 10.989590487969503 15.063041094572908 11.841140310501624
Se 8.043016782794956 7.336607443789621 12.14167370731564
Se 5.8887331587862635 10.571063788704405 9.900195028870108
Se 8.260296888768416 12.493484131398114 11.268639321779046
Se 8.661580537036585 14.587842178656128 12.194474308220405
Se 13.66111533708305 9.15127160357433 10.712685038781084
Se 10.308425057855592 9.443387093644539 13.024663024859668
Se 11.523322928107563 5.961378459037332 11.361481398915972
Se 13.095182203091714 12.1900139185533 13.320963876191579
Se 6.3738209213686225 9.631146295604616 12.806369934203241
Se 9.479296879078973 5.323734031970419 12.311998018039453
Se 8.051031944632497 11.114768295848085 13.351290074370063
Se 12.310322436944192 7.694277448285904 12.764194767820273
Se 12.273300117163782 14.356647702018382 13.713309924600615
Se 11.67940152697477 10.672631178752017 14.503029685163918
