38
Energy = -121.51854785 eV
Se 16.43437344749395 26.306425738046713 15.233771471852588
Se 20.33617899077652 17.990079934767888 9.614310448479635
Se 17.55611683469498 15.071813092133876 18.41593681068265
Se 9.655980604397897 18.179167152898096 16.50251051440978
Se 19.133266989081104 8.13235414214911 18.608788425730797
Se 23.159736805033106 21.68219893690918 15.515992402223826
Se 17.553694065859727 19.923823463060998 10.629511868527274
Se 14.694044486888412 16.96131508783048 15.404136210750114
Se 13.551623872578292 16.120811869118686 13.385695376955765
Se 21.472723287378297 14.388707958358308 20.019919414809436
Se 22.569078112609827 18.482611720281458 22.055193016091607
Se 23.488530610783446 15.515694161612943 20.615904354061257
Se 15.292307167260905 25.41142822722957 16.872782669128807
Se 21.11120192655693 17.032249459540843 18.1038003832486
Se 18.470847467782164 17.75624828265315 19.21308401178461
Se 13.602833040808754 20.312326907610053 22.63963010744556
Se 20.089662552066994 19.09393907111789 11.476956340451865
Se 17.801673630724864 18.82001716363889 8.76972818814506
Se 14.032628690919454 19.227700202479124 20.003677979811506
Se 16.924976475495072 18.553160519192947 17.770099486177116
Se 11.506373204888087 16.853418594691036 14.143367165792139
Se 8.779109571287123 19.250517585189314 18.29151230323352
Se 21.92969309237423 12.10720844258991 19.500383396327226
Se 22.56054739876754 9.685978171703383 19.342187305860552
Se 18.640457171581797 13.139795844456003 18.80580456841203
Se 22.332715280079526 23.50147750711104 17.086199270901062
Se 21.420884597113044 7.694065172111364 19.28708577892146
Se 12.520047774498035 17.674201607856652 16.283794325520336
Se 10.376835307158348 20.111570738144565 20.23720883998461
Se 22.921175974191534 17.60878303999778 19.329579738119268
Se 18.56098744624448 10.308553247034643 18.640014958651136
Se 21.357307821484493 20.37456596808022 21.602043422369263
Se 22.998394928542986 19.911895098165424 16.842803434062915
Se 14.76924078220245 17.48245836651467 18.197585298446093
Se 11.423297714568914 20.878050261908506 22.627195901578137
Se 19.14894845720463 19.973441376408516 21.471135486293093
Se 11.902791714694075 18.33780748634734 20.193283170715368
Se 21.979153673267454 22.238218674250895 18.857375016910474
