38
Energy = -112.31326747 eV
Se 12.186737652364128 15.323262071874954 10.994804489092486
Se 11.569783249561226 12.334749710928426 10.282549497599932
Se 9.118061383330465 14.439908158442204 10.996297561749989
Se 13.269830164094007 13.807159606899324 8.078645818315694
Se 9.246766310798996 11.289637497935225 9.938707328006165
Se 7.9367328140344275 13.204677768268915 13.712574875767064
Se 7.820225707598888 13.50533994000317 8.258608388897528
Se 10.194130584323782 11.560320987811957 12.320266831430725
Se 11.262305861497142 15.036581564459757 8.744725801863053
Se 10.563145052263621 12.423687001722275 7.110670526310867
Se 7.582210472838885 11.274123466444964 7.280991962892052
Se 6.2956647411463 10.552467603256565 9.235304914875096
Se 7.065373342740285 10.453575201278 12.30051103635758
Se 6.5021846014865 12.795082936245256 10.195229291249227
Se 8.634414812809611 11.23480380406784 14.987843415904578
Se 10.850190485559464 12.228142743304236 15.301432087467832
Se 13.047371550176413 13.116306412760325 13.141142726529827
Se 10.150746203772028 14.193146924007014 14.026901768080878
Se 14.178882892941694 14.060524802463947 10.336114533383698
Se 14.48847106728296 11.10027577917909 9.253337585449941
Se 11.359713825699306 9.993529992645128 9.233581790376634
Se 12.919457521558861 10.318972437700603 6.5660265598141745
Se 8.50647285984653 8.437544567697069 8.412705895277531
Se 7.374961517081552 7.493326999297532 11.217734909728065
Se 10.703653924463481 9.325708237152998 6.252417355644082
Se 11.403098206250922 7.360704056450232 7.526946853726638
Se 9.98406116046187 9.219101269528965 11.271299945511835
Se 12.307078099224098 10.264213482522006 11.615142115105751
Se 13.617111595988504 8.349173212188166 7.8412737460403
Se 10.990699357759468 9.130163978734805 14.443178095496796
Se 12.435783026692778 7.113942822014875 10.557551881361936
Se 13.733618702424051 8.048511040454065 13.295241054214232
Se 9.367108400267616 6.23056755467105 10.558965287505
Se 10.291538548525795 6.517269415997325 12.809123641248716
Se 15.051660629840844 8.758768865516368 11.358619330558287
Se 15.258179668876796 11.001383377200517 12.31854452823667
Se 13.971633937184052 10.279727514012272 14.27285748021987
Se 8.284014245928935 7.74669137355776 13.475203624796224
