38
Energy = -125.24516688 eV
Se 12.02704409645127 9.515467565020096 17.789118180186144
Se 10.411034667151423 10.656698712091515 14.176039418209884
Se 18.918577538395464 9.282952863145987 17.35350336406482
Se 11.119051963294414 14.276394581510878 13.052277042614795
Se 13.587068586173485 8.63705723066944 12.400598273206311
Se 19.801187829661323 18.427923172608768 8.620638003683622
Se 10.104404887384522 13.187811821125269 11.268305920964947
Se 18.731062591473076 9.848903184572773 15.24422888752346
Se 11.634989441839148 20.946324157739898 16.574133346948468
Se 12.287674061859507 19.416988345607795 18.19511489601413
Se 19.481502778650512 14.668608817240038 8.387751391146702
Se 11.721627899681703 18.97423408766007 11.52473129628643
Se 17.66860529689656 15.362835990395414 13.33635445443842
Se 11.605629119856594 19.74536475164683 14.473012641638972
Se 11.746146481477345 11.951507897755544 10.149243897710644
Se 14.637498696889532 19.67524756790705 17.774076287639563
Se 18.24870178503152 15.830421437084707 20.312883473965627
Se 15.369747740014734 20.470484959841126 20.676221917345707
Se 19.38221317215522 14.114971006183083 12.122317526511909
Se 11.270428127469373 9.191611166045872 21.237364456727356
Se 17.002512942312155 16.18999639088305 18.43666317503507
Se 10.332449375350887 8.427122842143035 18.649621799897997
Se 12.493663636189169 9.550256807759029 14.469262083575332
Se 16.573642954452446 16.574718657831603 11.731082211264487
Se 17.51440710687568 18.81448819315803 11.633613119080245
Se 18.365394828794066 16.700593585784635 7.930202318398921
Se 15.954294041539857 18.3823354665396 19.570277677298776
Se 18.329003312611484 13.55020420297215 10.130677165139268
Se 19.731179743028953 18.464336433275868 10.99008647947754
Se 17.48279266324509 17.824370534426663 21.685239111302298
Se 17.758255028091693 12.344108464192278 15.97057787255937
Se 10.588658826711782 12.837766898374419 14.95638945929345
Se 16.64320730383635 19.972236920040995 0.5125491042319463
Se 12.94061236291466 9.532208204423844 10.43596680517018
Se 17.966404636459927 11.828272570064536 18.090878988761368
Se 13.921054372018743 19.28321190780985 11.886297213264458
Se 12.923301563263237 10.244666257137883 20.27341850546297
Se 13.968083497964349 19.76950291538771 14.299171507586374
