39
Energy = -126.82729836 eV
Se 9.548557386434904 22.42758313224926 20.56670989935231
Se 12.533837021002734 9.765809063920624 12.490205574518617
Se 12.069265801860876 21.286087603142636 18.124279063674205
Se 19.77373159777902 20.091651301683253 22.03610676963427
Se 9.674150170663426 15.49998834196939 13.033999690184089
Se 18.994330660087734 -0.31479597932761155 12.256409397948179
Se 18.026941845749054 18.201524260387572 15.591779218890942
Se 17.268813066162462 15.650124539976481 17.472230890125516
Se 20.325556242431233 22.092469387547297 9.183004519481276
Se 20.660091979862568 23.99921358823632 10.199453066923851
Se 17.916131758380324 18.939895397319425 21.73755397465304
Se 9.758459721304703 18.91562200922991 19.445612792229895
Se 18.957377241202614 14.3562077222225 18.23280270158007
Se 17.213259241801993 19.483854527720506 13.871208245413648
Se 19.518063326029417 17.692066165198145 19.25984422617353
Se 19.9907056009982 11.228061331184792 18.61330902870667
Se 21.483657935141252 8.723863403271828 16.475682968242342
Se 19.00279890718145 20.092939552760416 12.325530715241534
Se 20.41636218508557 10.509132863472514 13.40097656331663
Se 19.934164131740413 12.865054625967485 13.25237025278946
Se 10.684021257487611 19.530816420853398 17.32447819120335
Se 14.969935930034694 15.514327317060195 11.721137125575547
Se 12.033127343896721 9.18867247457823 14.572982833900317
Se 22.388843096390172 9.793344461804118 14.549995013776375
Se 17.871741628488433 22.051032958269353 11.563581476266076
Se 19.54922952156036 11.319901298580472 16.348437387261605
Se 18.71663009959818 15.78172078448486 12.541891630706886
Se 16.853157408339765 16.610173547598038 11.30947505973021
Se 10.131004472548954 9.561684904262682 21.022141329715367
Se 8.169838509133887 20.650806733553022 19.76201047069957
Se 11.70544382006516 15.709368660364971 12.213146274885752
Se 19.892125679913306 13.642703459573822 15.595680566150127
Se 10.47945806230906 23.021349507838444 18.456689085261754
Se 22.00212371478955 9.88917086519802 18.455026479472796
Se 17.867961484500157 15.818680927152423 14.937835695595796
Se 9.992946208731711 11.173503013330144 19.525000376259268
Se 11.322461817313398 13.709293549182563 22.2920459355127
Se 21.03873365895667 19.10148402582373 19.98582075133603
Se 10.639128574485355 13.428153164828176 20.216460120392806
