30
Energy = -103.0490734 eV
Se 10.889708040935304 11.806446989008364 7.417186600938197
Se 15.046523288330098 12.82430677957864 9.824430499191807
Se 12.801736918443748 13.527914642495668 10.175067714293533
Se 11.748579493397353 13.931448543463585 8.135251336568237
Se 15.04694383236509 10.477906089660017 9.7586091718657
Se 13.71871994315845 17.542591887071225 12.789331587722913
Se 14.970768747121912 17.19964272084303 10.821502297919675
Se 9.91711051973267 10.882790406553976 9.323822296419463
Se 7.452493362336944 13.431146201506786 10.846741372477378
Se 15.428838519350519 9.722092259894765 12.002022574987198
Se 7.62985970800489 11.499941877398465 9.541468724626842
Se 13.643148531548944 8.456380477619602 12.749821393390596
Se 8.749382958739794 9.14090923951497 12.488019513822772
Se 17.203765793055954 17.383412765020644 11.599318602138002
Se 18.221864645955417 15.26729207761719 11.461170582232329
Se 13.930376483414458 15.526855587028743 14.017011614711462
Se 17.524502391772256 13.82956602152796 13.215810902649
Se 11.924821113144935 14.261036190273327 13.788001079103227
Se 8.288725505112554 12.793129570811281 13.011065724126578
Se 12.198018319018615 9.89514329435559 14.095345049958242
Se 7.298170373129841 10.73197426649893 13.47521448647725
Se 10.297432667514697 8.556935515263474 14.203750849393195
Se 18.58038348098305 14.520804296717785 15.183178969053227
Se 10.762888610326728 14.654131080655166 15.78583410746859
Se 16.701467834172796 15.697647771439323 16.204828959023537
Se 14.858315066743353 12.573153458385958 15.991925997569462
Se 11.426913272313756 12.89922730590371 17.285250065372587
Se 16.57757974768392 15.045476473120427 18.365667602212863
Se 15.088088195854688 12.872224152878331 18.167209055411863
Se 12.750728533779345 13.72632795533431 18.953997166315556
