30
Energy = -103.36392358 eV
Se 15.818398254745748 14.30361689212563 6.581272503565367
Se 13.506777460043661 14.266837199426314 6.138831825984534
Se 12.775883660758234 12.020249009544566 6.097229740914757
Se 7.590414146308994 8.190562902959718 5.478402454113743
Se 16.22295709242392 14.032440602919786 8.889359209406372
Se 6.35236256614225 9.045954222894148 7.3058601448168226
Se 9.825443256830157 6.0645402510253215 7.676169437614178
Se 9.820852123392317 7.883055052288713 6.175177677865688
Se 11.445257334759155 11.761802771893867 8.035385679159983
Se 9.542857438823049 7.146595652673058 9.759186279696186
Se 7.043064254005054 11.273801277243063 7.593503199757832
Se 15.740252599739023 16.11288298694579 9.901894485986134
Se 7.514349512556495 12.850570294254242 10.943869892982732
Se 14.343357480360352 15.724973540102106 13.349757028228732
Se 8.418559480387389 11.19816259835632 9.55327889659492
Se 13.713044888950488 15.799114898050703 11.071679628085397
Se 13.100786401233254 8.644271721649423 9.36972552941366
Se 12.815675620221668 10.95701075618448 9.789302370187947
Se 11.715459038910272 7.303647578702506 10.721878740763877
Se 5.8508796829347345 11.92218267352812 12.37669256121946
Se 9.343850363496722 8.36824472260189 13.002051493760671
Se 7.273049150908599 8.789233743496208 13.743669290022185
Se 6.9327214460104525 11.183233070111257 14.300688627068602
Se 11.624442072592151 11.176659776110418 14.1004837968329
Se 14.66213484888073 13.53844634355076 14.166889423503251
Se 12.515312119575814 9.251236681148473 15.16745026388619
Se 12.62002591111642 12.980205856473539 15.24588248956757
Se 9.485775993334217 7.29452503788393 16.332600562291166
Se 7.460127247978312 8.329275632472013 16.349986237851436
Se 11.188306117354962 8.84904381815961 17.044218093633592
