36
Energy = -120.73282721 eV
Se 9.311140199482097 11.175124702095982 14.116910402981794
Se 18.506661241649233 11.50097279611165 16.993472768765546
Se 12.897007041354808 15.218234468650719 10.878366722819607
Se 19.281878715114168 12.538646003638924 18.771423729105102
Se 14.706295044153023 8.65246106925633 10.851848325665888
Se 10.434948225190478 13.512827920771617 9.928324991757085
Se 15.024838957141968 10.920360208529384 11.378043470165434
Se 10.437879320369625 17.841697539112296 15.319422624158822
Se 11.57415574761214 13.134367709283604 8.059462848599845
Se 8.188597849721374 16.168759848211675 11.561284724470749
Se 14.492164029846629 5.875709193151362 14.358091084355976
Se 15.097574317185604 19.44774594844064 15.560483791791894
Se 16.160104874537794 16.54927277097252 17.588949699313012
Se 8.243623158607738 9.934954597477445 17.2868586448464
Se 12.677461050112568 7.205340185132499 14.415353164022672
Se 11.054357557967013 17.346440721389545 9.444337526569624
Se 10.44464415796897 9.743784129037511 17.34675553593004
Se 16.5315192805397 7.354411862971084 11.632007845142175
Se 16.8894544666531 13.55047635618757 14.902509122022408
Se 9.02094911522874 15.714499380448862 9.55034250682058
Se 13.67289091059248 14.849017390977666 8.861234641941705
Se 8.419722519176366 14.73599325834048 15.572666712948234
Se 12.307391891944286 17.16457580655269 13.948905235254955
Se 9.37738823907566 13.547432993766211 13.771468217099214
Se 16.25005522312144 11.871389340871463 9.565302893633314
Se 12.232724865503657 16.89068651966616 7.605878271363068
Se 13.700308752854276 19.01051685233619 13.685648185180177
Se 14.285060761064212 15.309079402155445 16.99980403879785
Se 18.233443802101295 12.57098719865144 10.56313229977429
Se 15.7727466479008 14.234013935195593 12.805260139190985
Se 15.102198129423972 13.130466892052757 16.2859671273212
Se 17.582603849596445 14.721072525477698 11.462933198582704
Se 16.738198265488826 17.760023661625848 15.62978797320765
Se 16.396646532400695 7.318611619654838 13.972362499044603
Se 11.264401228305696 10.356062193419804 15.022132614892499
Se 10.155731526380922 15.940686393644851 16.65343737184534
