39
Energy = -129.45553642 eV
Se 11.705920475512066 13.151464794280205 5.472980723562859
Se 15.434741708552604 13.155419887569318 5.956713001537835
Se 11.35500767493675 14.816998473048471 7.146927746660312
Se 13.5202199145224 11.907675262521284 6.362856513300019
Se 9.410779178809955 7.9655847526586925 6.334634484975355
Se 9.80029642190609 10.10153268507248 6.765767507887969
Se 12.331800515248585 7.185141743285979 8.449460763269828
Se 15.202474900279677 14.825163099620466 7.794510634858193
Se 7.641574236452208 13.250357194650203 8.38980093768281
Se 13.433510892757628 9.19397214133793 8.493896277573807
Se 13.88770431704842 13.792815714379826 9.33528087712684
Se 7.676450598108788 7.366216256063237 8.194994946179294
Se 9.005208692920307 15.003616143052517 7.782391453675092
Se 15.968309041132214 13.017296772844686 10.412119119185844
Se 9.79878540254038 9.44929463247512 10.460353281951216
Se 10.700116192239491 7.371268473904488 10.279398039063466
Se 7.626220185810642 12.43366515847588 10.777422150948373
Se 7.547642014789458 9.381253462664526 9.172354594680646
Se 15.246460029250462 8.876111415733297 10.045108519737065
Se 15.936628008258193 10.87049495057009 11.48704312588096
Se 12.25636203218849 13.907371390044945 12.132540782463385
Se 8.633449560432544 14.496122168470057 11.502419674094574
Se 12.158038670629816 10.091425218037488 12.171800236345858
Se 9.89168756219936 6.479153492048041 13.173872131024114
Se 7.935910741585022 7.55501634041985 13.769740629569561
Se 6.732064375044568 11.286606576096712 13.384560664674424
Se 7.914414842073021 15.10067725252545 13.616826893149698
Se 13.185826305636235 8.31504902947648 13.359656310190116
Se 13.645854018581597 15.032326720703718 13.513630621419306
Se 15.867354870175111 10.884854893975046 13.995948224850817
Se 11.253537554145993 12.00501004406363 13.32371074891397
Se 8.566301103519852 10.03693873582598 13.760352069322906
Se 9.78265337010018 14.9210433179827 15.080562433579905
Se 14.376367652813526 12.25284159574789 14.99310948937719
Se 11.564521438764054 7.166363269178496 14.666548466645699
Se 11.244107021671557 10.048939684093243 16.36277822483836
Se 9.52144252263116 13.41048045829194 16.96957890115708
Se 11.58800210040663 12.453599266564854 17.164109881118506
Se 9.026088665116424 9.81467234103749 16.318073726318023
