37
Energy = -124.07144303 eV
Se 15.80645918453674 16.175277450049887 9.183246502360195
Se 13.62657571185729 12.696039250318425 21.977659535701036
Se 17.928202249595515 15.828952145076833 20.135377883951517
Se 15.044790350288377 12.450662925229064 17.859875003692526
Se 18.26407685689103 16.121366262000155 22.482853315354976
Se 21.054009718218648 19.73454039668416 16.363402923868158
Se 12.180783064846565 23.235237900171892 11.764744455048433
Se 14.949534834019866 16.167918350306124 22.432479583265653
Se 12.128748248551565 12.825633613748257 11.333468692909086
Se 11.838664942770558 13.094264173159996 13.693211108783165
Se 15.491379901563585 18.432484681869358 -0.25703782475350057
Se 20.012855615993182 15.181840042417763 19.174344851697953
Se 20.596755676052872 19.212382698319104 13.929120398818922
Se 12.949666350858974 16.629080129016398 0.07188147228498007
Se 9.719013425609928 12.035735397998716 13.415745561264064
Se 20.276070520690375 16.108877091494623 17.024385666880445
Se 17.656216332519392 10.500997509213924 15.840921063393342
Se 11.51864736154026 13.282005865473181 23.200451074662194
Se 20.76122830011468 17.001081313614268 13.781982733891967
Se 18.749537142638125 12.538011931899895 16.079371304492682
Se 10.396185579591375 9.925613498378754 12.791575984908203
Se 19.1067771230927 13.443572431291956 13.909041026501649
Se 15.642095283439502 21.977640612322155 11.456045096708948
Se 15.463881678646684 20.88809935004841 9.31281518314299
Se 17.41683382087076 19.58247732452528 9.077067263107862
Se 15.77632143590707 13.860840797677357 12.140246473387256
Se 12.239975417608331 10.531203518850985 11.210178592590356
Se 17.37585794520097 14.985896391847858 13.472517669824384
Se 11.306134914373638 15.469693370534614 -1.1886928192976751
Se 13.393758546962783 0.6804036039289825 10.322945189037176
Se 16.626758898370444 14.138548615449057 9.936006641688474
Se 17.29432764454 17.666676373182458 10.392695319791828
Se 22.026630901874157 17.75983263800869 16.981697518278157
Se 17.86976115779928 18.28489841541762 -0.3713409441901699
Se 13.898324700035207 14.509086049773346 20.63556195255564
Se 13.773757052116986 21.380838132238562 12.603752950944969
Se 15.26363955508115 10.996665802187884 16.178276597950653
