34
Energy = -113.78837022 eV
Se 6.8064568433261154 15.395317120619742 17.056057124035338
Se 13.18173858180552 15.961263520729158 9.042321172612779
Se 10.188090133266352 9.686274834451545 8.910923132487097
Se 15.770048649892225 12.069423060243752 14.792943611846402
Se 18.293856485428087 11.881389855429324 15.03843956835993
Se 15.97960014765296 10.719379457189024 17.019123285052245
Se 12.784255016573887 7.810033325063776 10.93971763535866
Se 11.702195149168956 8.275874777151484 12.95316491328397
Se 10.012797277521958 12.117352937539406 6.67332694209299
Se 16.355425703746427 14.484169391153447 12.300207399617696
Se 14.772980129891083 11.528988154241652 18.876681168151485
Se 12.303035192279653 12.202726561309293 7.183916905681186
Se 9.577823375585025 13.634358300993949 18.53251504319315
Se 13.764973660572256 10.496908066671821 15.06296698733382
Se 11.83424133310101 13.399577250172678 18.781396969172008
Se 18.86423725751413 14.411648923896196 12.366295483032301
Se 12.041481396969068 10.582720313377283 13.44399122887731
Se 12.556948962845103 13.829356704199808 9.990902099298383
Se 11.365901109105527 16.708428710943668 7.869123221376996
Se 9.02630335223041 14.533532799077374 12.868346459322408
Se 19.07078283545798 12.149205452027463 12.84731059606912
Se 15.793392129613553 12.27783163632289 12.19714790694644
Se 12.51791569670893 11.04351141437292 18.533304001678207
Se 9.050220111720705 11.281431698498345 10.14622749122387
Se 15.068791327383423 7.324169215403718 11.740953617058633
Se 8.879168095626639 14.903936250659658 16.415533253818907
Se 11.28404834923546 18.640838990489183 11.168020482052928
Se 9.969066142821042 18.014418643029213 9.48884136123562
Se 9.032221158920326 13.080554242367427 14.690672429353203
Se 16.42797625192055 7.557356766426827 9.992686673916973
Se 8.861523272122614 13.107937028015279 8.412803845164389
Se 11.075912376296278 15.739280891979378 12.923676783975552
Se 12.828050582281383 14.278290817507994 12.314671291564188
Se 12.436913556930437 10.350884533960917 8.904161561271598
