37
Energy = -125.05118237 eV
Se 3.6913227626537304 12.29292711978251 8.525752419327215
Se 12.968456546775393 14.434459489802405 8.947515864685943
Se 9.490633003344959 11.966795421935545 10.91282611626733
Se 6.628915442052017 11.164571717903666 13.427577569432062
Se 10.388395697785745 15.231749472075252 9.083028987732714
Se 7.175616557193915 11.602138707341261 11.102231893538226
Se 10.22969730023541 10.286093685256096 14.428259490236156
Se 5.858697145450262 11.61068496074893 7.81872537458366
Se 3.6335350409931317 8.954423415630808 13.024634613450848
Se 10.065870009244993 7.981935040967279 14.446608856622195
Se 3.4633240199783635 11.599045373016956 10.723175105518655
Se 5.996306792256901 8.908044172438238 13.408985814035107
Se 13.04827944943165 13.08649539438592 10.685284569688571
Se 12.746775305514701 10.762043256380302 8.104512969717739
Se 3.2120676524854113 9.170584495594783 10.738132671972513
Se 12.41781254173228 9.428812699387647 11.849381593033455
Se 12.870447157139425 12.64630815605016 6.904598526134294
Se 9.475132825807474 8.470825070926125 7.320231937506618
Se 5.30535940568255 10.078284909021763 6.080640133009427
Se 6.079930287664656 6.88533597111608 10.121086387423894
Se 10.525553096358628 8.881592013924669 5.40728571483025
Se 10.854332207610879 7.33093731014134 12.114000787051232
Se 8.150750784221826 4.885875789267046 7.628835100766834
Se 12.567898796351695 5.830578114825354 6.952648116035734
Se 15.064881300995596 9.983817134865188 8.456709387485573
Se 12.585832186009696 10.251577439710603 14.01153241297179
Se 4.961115585930001 6.5150588873897455 8.131736009971702
Se 14.646127361491734 7.902270647094338 9.35468164826401
Se 12.643232734446322 7.2913946513386065 4.781885780416905
Se 14.644505751698677 8.228333940305205 4.837049987569622
Se 3.968713519549199 8.51618526756233 7.182050715685228
Se 11.794971188645142 5.354202048740972 12.495146785422902
Se 8.38715990729792 6.14615399821017 9.520735476625397
Se 9.30298546967015 6.460668691481314 4.218817709735438
Se 7.759209314493456 6.558065296759013 5.837750542607172
Se 14.714575246307907 6.227309050973052 7.575062513419814
Se 9.955280829265575 14.348121411416498 11.114580640990294
