30
Energy = -100.77745307 eV
Se 16.21834275109785 10.514710024697727 6.672703793673012
Se 16.22169670002902 13.104211533122806 7.402156681512681
Se 13.11802921669241 12.949744055626137 7.296333168564127
Se 16.04618582559154 9.683348804435926 8.747664565874421
Se 16.10343711839158 12.81025419847264 9.581567027255993
Se 10.440435100618267 9.222644625266478 8.257685286309213
Se 13.274158638068387 12.41459555065707 9.429485319617864
Se 9.118239768780331 8.478100239231061 9.89220155414418
Se 13.560665700511908 9.703493369927243 9.406871312267064
Se 13.003084640281397 14.985067110746034 12.145844731967077
Se 15.002645554062777 15.786760021050707 12.93357770206301
Se 14.669966408241367 11.898072466388788 12.86119522640079
Se 8.753754300975325 10.68875686769985 11.057373405199936
Se 10.504340320562374 7.291643704928407 11.986612373880833
Se 16.1010291023101 13.478693229895237 13.59265116593571
Se 11.534081767196229 14.253379411891613 13.887432546560996
Se 13.82890088826581 9.083466819927631 11.558748296328796
Se 8.776904597805677 6.616958458097277 13.176680247987271
Se 7.415094240017776 10.413206486394428 12.850347700681205
Se 15.834987093908607 13.78284199270023 16.08377446639415
Se 9.975575159620249 15.979944059352166 14.289824725974348
Se 11.022725501050171 9.661948212437954 13.262797381774487
Se 14.802243896467033 17.395180399065836 15.780452761659866
Se 9.196673982632738 9.54897716379562 14.544031029273524
Se 16.687294736609953 15.911879894258503 16.245799945614174
Se 9.752576516573798 16.282179633788864 16.665577867906347
Se 14.500343963940944 18.67122909336316 17.65660307847913
Se 12.792679421886877 15.270038304960009 17.888776658499992
Se 10.52699653547492 18.25690349405255 17.478270003215748
Se 12.632887588454786 17.27774780988855 18.782937011104785
