32
Energy = -108.348827 eV
Se 16.478231656849402 12.11607902722107 16.2512593743592
Se 15.242135313043768 9.586284659393849 13.676130886307153
Se 11.950145682926264 10.264957496252418 10.857228243525757
Se 12.289795491115727 17.06519277620231 12.009979337663651
Se 18.401249136188486 12.414279410332885 9.191538470896841
Se 13.84316211105525 18.886056499572533 12.907274297553256
Se 11.86190585443239 16.092236777265796 17.02981208504294
Se 13.321606089722229 12.12205875033418 10.36497261611614
Se 9.745346002272882 18.099779414928935 14.509170979043288
Se 16.04231773588088 15.419104523951775 12.635742988418752
Se 9.560952423338499 11.151849581134618 9.754454880449947
Se 15.338945743213833 7.8078399840393065 15.198755780370824
Se 10.30305234219553 18.189482239105864 12.19509315865653
Se 14.659591833958658 11.550738775666174 14.864172936988545
Se 19.022208050713363 13.826918037441622 10.971380254937674
Se 14.933915501066087 11.100837361877058 8.843623430297804
Se 12.978615739598759 14.207749546245982 16.732272331335555
Se 17.168185963455414 15.515938948621685 14.711747648454866
Se 11.117449101200608 12.417840940252214 16.531460958045813
Se 12.507646213740681 20.379019835648315 13.857370414772369
Se 18.03102749503287 13.33543980916056 14.95851974388251
Se 13.133269294551475 7.415425924726774 15.97077443809702
Se 10.381523843003002 8.661716627414963 13.718081887424107
Se 11.220912047053728 10.81191599170226 13.086941958081352
Se 7.933299459909046 16.56525362901595 14.678507255977072
Se 11.139993160352015 13.721037052593271 11.878737756339524
Se 17.723937945838102 15.802796827367395 11.01943420553652
Se 8.664188528736569 14.359537856130586 14.556672259440944
Se 11.951816839517868 6.9137348194938 13.997112223283146
Se 16.97718778560104 10.673463853673752 9.935577838944685
Se 10.285739638963252 13.301713690038325 9.751593495346558
Se 9.262250729965817 13.695324087686895 16.826210618903904
