36
Energy = -119.76057219 eV
Se 10.946505188602515 6.547001932510097 9.82017830637476
Se 11.384553853769257 14.382704482137385 15.909452813240573
Se 16.694595512917836 15.350891737544263 10.337357340356276
Se 11.335058063967963 11.180875849887006 18.436598519450346
Se 15.105556964404522 14.50921673986887 16.44779144357986
Se 14.596721943486527 14.85449568019103 7.397352656567843
Se 12.85601328837424 15.870510390895298 6.477612479460001
Se 12.260243931124272 18.02113653823477 15.484602863470172
Se 13.643625500337688 8.256549484946206 18.450085280471377
Se 11.460614516136234 8.245660612634989 18.60815599933154
Se 11.420055563498359 16.669639655572627 8.396499267418081
Se 9.624633464870067 11.255624582039902 12.2401690458815
Se 9.642523187631058 8.995882144420483 12.224638075253768
Se 11.898711350087629 13.958335119964866 10.989891077358173
Se 14.479981475526168 11.616170744057875 14.483017722374546
Se 14.61179872306311 18.02015060557271 15.366110424103711
Se 9.20518690484655 14.683462551868645 16.849652439793008
Se 19.61913464049093 17.46818409077054 9.431579510497187
Se 11.53070656158117 16.10497034563844 14.298546463579568
Se 7.78452191940561 12.981185700210832 16.144321628100876
Se 12.890309670298624 7.613851380134065 9.080536227293726
Se 15.159533115388234 13.080345871141121 12.675828036793101
Se 13.7900245928449 12.554080777942529 10.819344938572735
Se 16.416176220858738 10.391744472842548 14.8213678308061
Se 15.366291160510357 16.70838696563604 17.197556202690897
Se 18.48125935485754 15.700170006848966 11.572679490638832
Se 12.646535859713445 16.121541098339822 10.246597767496871
Se 17.861627037070207 17.102080076232653 8.174383655125046
Se 13.548848267038894 9.147763644418031 10.611502389188896
Se 10.372938118692565 10.283957261155916 8.735187897499538
Se 13.518431471520016 11.336717213096504 18.233952977683035
Se 7.2394398302930485 11.687387673303778 12.683547267585844
Se 9.349255271439967 8.552645461673603 9.64132222539084
Se 7.118207106076795 13.631702845422488 13.90737508206225
Se 17.207098307425536 13.951163871636853 15.339719808247976
Se 17.667858814133556 11.901665232361594 16.293169917898087
