36
Energy = -121.67239635 eV
Se 11.450938703805965 16.329345102103428 7.361923487297599
Se 16.25810008678033 17.972273622027174 12.847919524689525
Se 12.229420601794873 9.629728914788831 9.59369611260961
Se 15.15573558999247 5.090283463333222 17.20023976654187
Se 8.9467211802597 15.602732862889159 14.836351997491304
Se 15.158956300760526 16.429030438578376 15.941201930895044
Se 6.869912556126997 13.191507681567865 7.218061718373201
Se 14.501337773639394 8.342139491476656 15.592041835377948
Se 10.594728987037279 10.756317574455977 14.086539552936292
Se 18.30811281510639 13.10221906186039 15.743647966103882
Se 7.355674583171376 13.79114625644102 11.818115171476833
Se 12.121461621783153 12.035185436231496 12.799352656297042
Se 11.037438090621144 10.995468357455803 16.379783300932374
Se 13.383664814179562 10.64136546546923 7.744726082071906
Se 16.36756076367163 6.8322493029621825 16.310331204983456
Se 13.404708401197645 4.908083862496433 15.588135831264044
Se 13.792827607264387 9.039831921568112 11.206719679706145
Se 16.325016477225013 14.245210463686023 13.014324846431185
Se 8.679808502408644 13.983563410511211 16.528466759478594
Se 13.072886654021772 15.031143653520601 10.508294669648599
Se 17.98888696705224 16.87875644310148 11.920663406508458
Se 12.515120129172294 12.823630269205156 7.53240489675032
Se 14.754477196002156 15.940820124266246 13.614591922650883
Se 10.897096239286647 13.276419808260876 16.963113495257513
Se 18.329101092403924 14.965515044857703 13.98444569494368
Se 17.395481419867522 14.14942032511189 17.607836742111928
Se 14.068670223337328 14.327137505150676 8.565589230588513
Se 7.8561188888176945 11.23783862058343 8.261398400518619
Se 9.808458870685815 10.711211398938492 7.273238301050305
Se 14.182051457041208 10.972098145076231 12.632153661529921
Se 12.693942703533528 7.0885603130291 16.312955206785084
Se 15.092974037952436 14.430659489207788 17.185216107103845
Se 7.897997062610121 14.983905191526 8.317785649376336
Se 6.63053868715995 15.4134287054597 10.275115343392015
Se 9.38241149015735 14.509110032202894 12.792773423085348
Se 11.42396862640038 16.726410649228743 9.536879458820266
