33
Energy = -111.06453359 eV
Se 11.836778223683918 17.614658391072634 15.504936616572845
Se 13.86501520370356 10.081992744167108 14.829075984843971
Se 8.506410808527377 14.380429150469466 7.418107525667369
Se 16.030234887660004 11.24806188594555 11.869076990479726
Se 9.489996711530837 12.376159347899588 6.706344984176285
Se 11.436060011199405 14.999726632265487 17.939125095411914
Se 14.266600122687374 15.55416440752285 10.142594159696092
Se 13.184641920450659 17.6432842408839 9.897839675728424
Se 14.128053417633776 10.179959556812557 12.307404092659466
Se 19.520085531593505 11.044150088812534 16.814004682796025
Se 13.721509438079362 11.461653871614754 17.428050291742228
Se 16.973054228908488 12.891445770317102 18.622117548468903
Se 18.332524351083006 8.70585412396354 16.640001130144004
Se 11.655945086356589 9.244774396325775 14.816522941672549
Se 15.185472810074307 11.131600927345026 19.088945445237943
Se 10.167597871542384 10.939134834759049 15.529756321776665
Se 10.209846679117948 17.86530156007494 7.5107029851990985
Se 12.58155482393052 17.928078612839478 7.638949890910336
Se 10.025107224158473 8.478021969476895 8.967478049494499
Se 10.596419849291173 14.295525730533551 13.895044277494339
Se 16.590638504698934 13.455045275437014 16.48674329700267
Se 10.380981863590014 8.688802188717757 6.795869325833163
Se 12.770905213664072 13.877114577022574 10.827925744028262
Se 17.07460138474928 8.986891108710015 14.847196300300999
Se 12.807482928608476 13.903519719976618 13.218582084219097
Se 9.486139174345887 12.21638109382053 13.659151290116291
Se 9.434711155807019 16.149609479809577 6.113631312752752
Se 10.527755399954556 10.77098031265297 9.957184839923165
Se 13.643266452324948 14.738299377798386 16.768956708339427
Se 11.148590508094868 17.274760746935435 17.78309106574765
Se 14.020924125806518 16.972790849885584 16.17182107694985
Se 11.357876315066866 11.819157445760807 8.098273393210972
Se 18.436453909008897 12.109705869882339 15.191600633561512
