30
Energy = -102.76759373 eV
Se 12.699514925604944 9.899450091751198 5.331508072714461
Se 6.710398792602833 11.924677047254193 6.815617691315841
Se 15.386433690688099 12.601883323087748 5.9922443373322
Se 14.177650239210843 14.526730451560631 6.67770868623475
Se 10.18225578031561 13.478308414348332 7.054392161519892
Se 14.487223813574431 10.577281407945643 6.75593934500117
Se 10.859697064961903 9.820725258433676 6.79535806611734
Se 7.98919369934546 13.555748767304495 7.938687192725455
Se 7.218082367091665 9.747071882995408 7.560345375590057
Se 11.46870870052639 12.517975089384683 8.821636553254256
Se 12.98154323392575 7.50072230765221 8.92293878255021
Se 14.510637779277399 14.702045072263662 8.995947338302022
Se 5.9294784775695 9.1728988146604 9.469573881679956
Se 10.959206958999438 7.619875500686565 7.709069590659149
Se 12.287914631772235 14.477015228735757 9.865956701131159
Se 7.4822784170521155 8.877200138503824 11.197490339148255
Se 13.47224602689807 10.495409576472568 10.689102676646836
Se 12.650430576482142 8.227837210024216 11.149139814565302
Se 8.570887860755784 13.121023857579576 14.723016241466983
Se 7.37918548739759 10.812385531932971 12.645103553663988
Se 11.795923322211392 13.083852378239163 12.989783392754589
Se 9.52212740846847 6.438670925875938 14.011041628199843
Se 13.678635061657305 11.719696563723033 12.68601006052752
Se 10.246531916342564 9.77148093116716 13.361904143925285
Se 11.54868885864005 6.743000735730322 15.078975221286957
Se 12.279562764633212 8.964003635940925 14.192248643943447
Se 10.447911717144413 11.909751216916112 14.763860264710063
Se 6.01160378442194 10.006431003388649 14.404934210684162
Se 7.7879682960282395 6.809779280105126 15.608612094124993
Se 7.4893227503858295 9.10831276032146 16.003098342210034
