44
Energy = -150.62341405 eV
Se 15.456407012513948 8.913828632360435 7.18048318594314
Se 13.391997832345071 12.512962029511666 13.096746549865786
Se 11.361690788257164 5.5958650126952065 10.44486779497775
Se 8.621440695106871 11.492290645702361 12.228035086516941
Se 8.073612444491987 9.522771143457838 7.597560470710496
Se 15.223742622920772 14.888466478834646 6.671512352805543
Se 14.480446183912042 9.512885764898384 5.140179957285813
Se 16.1245067786258 12.19406127458418 9.278708820434767
Se 14.344172977824227 13.503936608553524 4.978787850513967
Se 7.7413328120729386 5.990633359189378 11.762270047541712
Se 14.013786260569768 9.279193580787371 13.738956525983165
Se 14.773004432066125 10.264327650047601 9.007861477111604
Se 7.000691816331943 13.139530513835348 12.548441253787297
Se 12.789021130662464 4.55145028825182 12.00881667903905
Se 8.300085711123701 15.83337796144247 14.998732752447365
Se 12.195232427847644 15.400947635059259 15.349792747853224
Se 7.6137108526752195 8.010473386910471 14.951510864340998
Se 10.480347292814093 10.546192352992366 15.695444251135006
Se 8.108775401989199 15.04429137000396 7.288039285721982
Se 12.563871040544289 5.701709349189431 14.055573344913679
Se 12.102099519662653 14.051792050911443 4.523443399967644
Se 9.282167709985059 8.766005869865886 16.51936815582204
Se 11.412680120427954 9.610842302290765 9.413175928660445
Se 9.291603171021162 4.507290328498286 10.815265057557902
Se 6.313518745804471 15.221995941203696 8.842242905424687
Se 10.705836278494798 12.472487403518128 5.6056112261724875
Se 5.464882447406925 11.622632184101342 9.834212658712113
Se 11.994648767658724 10.747426889186645 11.767299927693346
Se 12.805886728556235 7.794433252190756 17.06363094923092
Se 4.855013269994519 13.441635490842534 8.421442496798418
Se 13.032252128628912 13.175678255462811 15.334750388781563
Se 9.420511986371812 8.359457023288838 9.190187564426944
Se 10.55830798591295 12.6339995271424 11.228426902754244
Se 10.570785024216866 12.447209584453715 8.788854067947792
Se 10.12038412993763 15.436329108777597 16.453174977196788
Se 7.707546058924193 5.8042949288633485 14.13637406003563
Se 10.966978946491261 10.489718464239576 4.271641677085925
Se 5.901739058226541 9.735768192667546 8.468525863296257
Se 7.06985872049645 13.820920381982756 14.817918962386461
Se 14.492650929051804 7.087636765660113 14.229616998888288
Se 12.90008101283536 9.804692739176607 16.16693832772738
Se 14.683160663840175 13.990318649416288 8.78860756945353
Se 10.113042281553605 14.82624019868525 8.478250333179876
Se 12.178174375061493 8.873389074485715 5.414574861051628
