46
Energy = -156.25516319 eV
Se 9.74383115937836 11.019955570005493 2.555729693891252
Se 4.9754632197353335 7.426586532574023 3.8854191285768516
Se 5.812249759048435 10.824376064914683 2.49114656022123
Se 9.738357471760837 4.922202788493366 2.6619883178946266
Se 2.689956883048642 7.55401837408324 3.763545095928417
Se 10.93620023766096 10.569068763900463 4.507099684972209
Se 7.80101109174831 9.621279787247321 2.7128071874920954
Se 7.982547866924731 12.058307540631843 6.144188053756367
Se 8.469867730470591 3.5538943665129406 4.142625208206848
Se 12.727147446688603 5.3061392868594455 4.80931237165564
Se 5.514740031835979 5.621742850938189 5.386124261203922
Se 12.632010918003187 5.711711985430585 7.0967318335444585
Se 6.170075905010542 3.9267134329661766 3.8615607713543705
Se 4.852030110260922 11.81198663141827 4.477064968702706
Se 10.861551572177762 4.275183306382804 7.998210821928046
Se 10.861883391217695 6.543399879553594 3.9244836384468726
Se 2.0150191993314297 9.170665455805983 5.681620090824562
Se 4.225735214107702 10.248217921205377 6.082962182263356
Se 10.3085579811453 12.259173730258741 6.101009543205483
Se 7.234556924332593 10.511272899075363 7.788976649797559
Se 7.266270325206721 8.330379805534905 6.771712278789293
Se 1.9553271398181349 8.164966105990281 7.689558302735764
Se 13.860053305554269 10.533086794155775 7.595731487016911
Se 4.186371707355366 2.8649979614722048 8.590418072445964
Se 14.15315132986481 7.833440396104773 9.102343130676006
Se 4.640980079345018 6.895051191463345 11.909426658222266
Se 3.2935507528947614 5.0714491125833465 8.602395124083037
Se 8.958785181168825 7.138151372015242 7.900226512569878
Se 9.23104993832986 10.837804580476062 10.871179098155366
Se 7.176557929321599 9.37413162133022 11.633657688578726
Se 12.600160755739868 11.05235634492665 9.328083190448123
Se 2.965719132455934 5.573384505888399 10.886206495162245
Se 7.7018905647970985 6.180372533648751 9.6984382732686
Se 6.416638073245518 13.318547535649538 9.756265113586077
Se 12.818905173578342 8.809576857654493 10.567670774890628
Se 6.355075228826658 3.1540147522092896 7.72868132075587
Se 8.107644502257362 13.067714859523392 11.257906758864335
Se 4.574063816377614 11.950114207467882 10.78672728395404
Se 11.449210222846142 4.991069197802413 11.707322363662632
Se 11.772903251274336 3.40410757325811 9.970770287051156
Se 7.799681579756186 3.8370116487217865 9.489335562492265
Se 8.13791782185168 6.024890214437832 13.582821562711587
Se 5.844252748860784 5.5028709111779515 13.45193523241536
Se 10.792784457845226 10.974446887335732 12.470260564001249
Se 5.781344943617219 11.003662899630628 12.529619573241442
Se 9.702765765348373 4.272352802708103 13.144551067779847
