41
Energy = -139.98581246 eV
Se 11.005918797344156 12.481409661514379 5.883044937243369
Se 14.630357707369352 13.48019480129702 6.2632879729943545
Se 13.171309142900267 11.611540725595958 6.131559405453789
Se 10.153122717935211 12.332573573733194 8.106940418949069
Se 10.49891967324494 14.353060164028562 9.277011886353643
Se 13.83458264005019 14.745982452170306 8.084673058481188
Se 14.94152570455936 7.183695071792069 10.563809913021093
Se 5.812217464718515 12.699394505488007 9.259279603580326
Se 11.62818346222113 10.162743769145765 10.0836122408588
Se 8.068149738213826 9.165134076278823 10.862611776369683
Se 17.773097401092826 9.614049667154093 11.217800764990088
Se 16.955464961964747 7.453523224561378 11.744182098904588
Se 8.403959366689728 15.471270769547138 9.38061671646244
Se 15.671924849024478 17.597024923794738 10.71785801613227
Se 13.259925779693075 8.148730591058962 11.93627261088112
Se 4.638169417905322 11.791274723281267 11.01854257236079
Se 8.873576859154127 7.124270956239149 10.120061440488312
Se 9.997401133222686 10.501167520266783 11.60081385277814
Se 7.119479621923623 14.268514152835198 10.929774483445971
Se 14.613108314167985 14.05147017932554 10.205437809513763
Se 6.1638523002193395 11.587073662234603 12.866757246381454
Se 12.483343077553588 6.4997184689041925 13.47082868892497
Se 16.524284749998483 15.371491071350045 10.65322604631454
Se 12.844526605276831 17.184704261118572 12.991473027182003
Se 16.919354046601892 11.403574493031515 14.569049795538511
Se 15.104176030849601 18.186333388401057 12.882947745568673
Se 13.274230810146044 12.70673056486263 13.970886129235222
Se 16.297475750982308 11.094996653205238 12.309877512070896
Se 7.976099283197803 14.905362299510267 13.370454491300231
Se 8.995636686249313 5.682521753996401 12.02728282276543
Se 16.289130443592285 9.43570583597814 15.730614020930059
Se 11.094338590461799 13.369372964670587 14.071567240383402
Se 6.306259655864623 13.553741130173453 14.225296239421613
Se 12.142266050810514 17.586938591221646 15.081920642820585
Se 11.22590198957373 4.974305330877376 12.16753058329712
Se 10.313009254147222 12.425690512351478 16.270102043764087
Se 12.890780095757494 9.93745959420525 17.58182848647839
Se 14.550031560732398 14.687288624648822 14.850872295521983
Se 13.945167603575404 9.20070144191496 15.606900093916483
Se 13.246965257754823 15.652207575033092 16.40517977953313
Se 12.288486880412165 12.24276775035598 17.433924966542286
