47
Energy = -158.67429868 eV
Se 13.465802811403254 7.733951652330731 7.989443591465934
Se 14.92681706992353 12.658449215912476 7.563767814849102
Se 11.67839927744822 8.711805958399042 6.581381119474111
Se 11.714681303488737 8.803761927310557 12.128247840460268
Se 7.742274889624903 9.574566163149676 9.923166007116281
Se 8.08565336020555 12.621738290815882 7.573067171102938
Se 6.8853684213944195 10.627027762207538 7.969876042701888
Se 11.582191983146462 6.665698004311992 9.29184778219482
Se 9.783533964882553 7.782970058972812 7.962093514012968
Se 6.480945874632883 11.022008717082326 13.396190524298223
Se 5.325556286511222 15.821997062668775 11.13213874982008
Se 6.6355000813794085 14.480392609661218 7.769194852860525
Se 6.810388781169576 10.205558034401838 15.926654135069882
Se 9.735214138340194 5.462905059684462 10.655960726988384
Se 8.839182701581189 10.911217610882488 16.75079932511623
Se 6.029336858104203 9.4828761403699 11.537260955814933
Se 10.300945669851298 12.172032169356818 11.291788533698295
Se 11.690292677189918 10.94494990289835 6.64310471079988
Se 10.664916199277087 14.676706583438847 9.3025942609219
Se 5.93508814654754 14.859714418119623 13.20207720063036
Se 11.610645156877602 16.697001783969778 9.778664599679278
Se 7.161997262184731 15.821806091802664 9.642352020952103
Se 4.84355837722705 12.80540625484241 13.502298943486146
Se 13.905590410232842 11.271558565223 10.525919573537001
Se 12.541310555564987 13.033129154707893 11.343748364032672
Se 16.400987250234603 14.209593790720152 13.416888211533143
Se 15.09583402496619 15.606539741718752 10.075724875127335
Se 12.696766829093193 16.70804971416438 13.51727445009201
Se 11.42542269596403 15.665299884818314 15.194827141235622
Se 11.078999050322462 17.510965409748273 11.967019452551227
Se 10.332584308533903 10.533766292652968 13.014935802199654
Se 13.876137837191232 9.721409864894758 12.360428513870396
Se 11.927527577285591 12.60799147350977 17.153922726732148
Se 15.892900998244864 14.777180948936797 8.01072600922748
Se 16.390821012718657 9.482351974569031 9.255922821294142
Se 12.065740095320372 9.005503990388783 15.924307311124068
Se 18.109140302261373 12.587430314103631 13.4591691427898
Se 13.57390513312495 10.617316536935887 17.191283340119213
Se 16.82565360115268 15.751858266130768 11.684486545033943
Se 16.630871089482397 11.021291943508759 7.471969811071948
Se 11.278707319049056 13.266165891506125 15.017587747598192
Se 15.430101023402752 10.754058915309113 15.976949699453156
Se 17.26070915832301 10.454036667567474 12.882268941934846
Se 13.316153465903595 5.502174428423416 10.896467793193915
Se 18.157505410247058 9.712879843883877 10.823873245933914
Se 10.190258635303168 8.946657540438624 17.250142392909368
Se 11.472063244990043 4.512229873549281 11.874168342585067
