49
Energy = -166.87171355 eV
Se 10.606201614434784 14.44563908578 8.58468683183738
Se 15.700189024154524 15.860218997119263 9.259273484010691
Se 13.836891632001965 9.416238923639138 8.268469258694985
Se 11.778674658401389 10.214539638376587 9.06283570233646
Se 11.471177952040268 16.646142526369953 8.553710685416274
Se 16.218086745276967 13.615652338596908 8.638483443327196
Se 10.120238970443575 8.32598549942326 8.777802479122165
Se 10.163429219531649 18.075660918023967 9.940515263270713
Se 7.33287761620987 12.226772555889392 9.823592339682618
Se 11.938766032990191 13.26147053741095 10.105295872949299
Se 8.114868590560214 9.398621695086803 8.733931879539346
Se 16.90359245232532 16.398459813532877 11.15241881196754
Se 18.435153211823696 13.528915992913737 7.864451433701613
Se 15.018247360497659 8.450226717289226 10.069667470865022
Se 10.357192065510082 7.181060781986725 11.0530739701425
Se 13.195234113702826 19.05415017904406 11.781623426415328
Se 6.065851230637184 13.989490120346664 10.698728808254737
Se 12.017382908812689 8.226448279523016 12.241901469976423
Se 10.9238658503135 17.900006549502137 12.124480782143667
Se 7.5688652908055145 15.539444457066827 11.622092059751466
Se 16.466391642435205 16.796323110154805 14.917152374081939
Se 15.88353366807987 10.337563987995429 11.26495899564693
Se 19.73472113692736 12.863646306878241 9.71936081237323
Se 10.488466450161056 13.195753536983123 12.115490065403552
Se 7.6334006884484875 10.588887624557296 11.662115381271121
Se 12.890840004989482 21.164708985901466 11.150861676682833
Se 15.862725786766951 14.994843536870034 12.966845341503003
Se 19.512246219603234 10.51540992533394 9.766583853351037
Se 12.93273338975101 6.804382571945525 15.90914606997685
Se 6.85081384162643 11.58855816634443 13.615957330770934
Se 11.0100329727322 9.764001968800839 13.787639431597873
Se 14.161281538388739 8.73466446140883 15.331927490903636
Se 13.81400057287312 19.405752778463786 14.171542276325315
Se 18.16177080348018 9.95898599983242 11.63069044141336
Se 13.653772279923126 15.171069680226044 12.858019265827174
Se 14.292086433187038 17.35550117902397 15.25221062774703
Se 8.495553791027351 13.03313154958952 14.544395671750866
Se 7.3441056120732515 15.250587032823262 14.09423910019723
Se 12.292857946401988 6.989067183391718 18.173596958015597
Se 8.68576585274275 16.84833331678443 14.881937679090498
Se 11.963043271905407 11.902366848373234 13.415022104310495
Se 10.501187481203916 8.508517829702175 18.341690152042013
Se 16.414908864182085 8.442136578571423 15.995218804259613
Se 16.931893467739528 11.820497514587224 17.476651556299963
Se 11.435246789300582 12.341146664246844 18.005437764530086
Se 13.348327944972295 12.637827703622461 16.663693634134987
Se 15.102719465337627 13.04631612731652 18.24983035833411
Se 16.667497230320848 9.526499711212477 18.06910016762842
Se 11.460180298230211 10.417264497422181 19.370541126411055
