44
Energy = -147.05681117 eV
Se 19.661265451842475 19.93333171756128 8.26872388123667
Se 11.574631988706239 15.639720775425738 20.520628497286474
Se 15.134606285136373 14.451128875527953 12.337681290490737
Se 17.657738244662053 10.530757732138243 13.83668996327397
Se 14.325655870564946 19.127095591834475 8.01003241668574
Se 17.59691599025899 20.277198051681427 7.208641666499584
Se 16.321217398221755 19.973382928271835 19.21768954211122
Se 16.456151168598037 15.527855395503488 13.951670154076375
Se 15.424337558574932 13.953490425494076 23.31237045144664
Se 15.48939458963651 17.581157810008257 11.047540604307683
Se 23.30339267678379 14.1689321992604 19.583808849378446
Se 14.01168864793525 20.373247056524317 18.876452862177256
Se 8.53733148352597 18.997746965671123 15.673096719142718
Se 9.091131448040409 19.299947852911636 13.381773764627448
Se 13.501492773862951 17.94461154732052 9.865681470917524
Se 15.868598709956235 10.711172891728697 12.496244238712952
Se 19.755471545169907 15.803075862246855 11.958257181379148
Se 11.659812381819423 13.900794540677493 22.163490646420247
Se 16.484841332604926 15.872649366517537 24.047955099126597
Se 18.741627419796412 18.095800014005153 21.953056450341457
Se 22.36658684319501 20.197887569967623 16.215755231410057
Se 16.94994696701323 21.318497182325746 22.54508792060366
Se 17.21451244861836 21.88933482848371 20.26263962091427
Se 19.001309936749475 18.58022557588672 10.062032478803621
Se 18.85875691820836 20.14962587444373 23.2242836913022
Se 20.44792801343738 11.104514217261352 20.962273971709955
Se 10.872032748624157 17.551139683208177 21.675540835854427
Se 22.772763121033908 16.76426051307575 14.60935800626337
Se 9.398440493688195 21.082218754079193 14.923514856818445
Se 20.588836938477403 17.61116273472458 14.570475230373146
Se 21.995788622090938 14.25849817675746 21.5838026014365
Se 23.109889377464672 17.871987459285336 18.61931050908141
Se 13.034518736532577 20.631257327790294 21.009391486913152
Se 14.364967712230664 12.42833173708303 13.296121498906098
Se 18.721232125027296 14.641087064835858 13.548238064956598
Se 13.119670359272103 14.456433356750047 23.8800193211948
Se 23.745211357686713 18.447147829364656 16.268511725714944
Se 18.832886455659743 12.562744061549258 20.579922043674085
Se 16.549522237203515 17.35983069367321 22.124953586666194
Se 19.86815841164201 14.86175513456824 21.010375367461116
Se 16.613178352131378 18.867373839515885 9.086037340277686
Se 19.306673399440818 16.163245992409657 15.766343180199483
Se 12.926021669357947 18.61814254672665 22.22518400014238
Se 24.45592740055707 16.23739494714771 19.590521842740152
