41
Energy = -137.97908268 eV
Se 7.6975107715713795 9.605865046389516 5.40407959645541
Se 12.129136811257595 13.802542081331815 7.469801918284019
Se 10.02774449736152 9.402485131536247 5.218515665687444
Se 11.064186265435692 11.416913473552034 4.501125621744448
Se 12.583091642693953 11.837148587226038 6.2722209964726625
Se 7.161863172865903 10.43053418406635 7.568987888278755
Se 6.112896222661058 12.515449860716185 7.1390520191320395
Se 10.494771802949684 13.290296638465376 9.134125618289083
Se 7.810831666186617 14.05561146273031 6.58462903380715
Se 8.20664565314652 7.4853401249547415 9.129493486330825
Se 6.78059429208584 7.522131167832075 10.959597199616729
Se 14.947100241555065 15.049109974685301 10.620454478466666
Se 15.344241325104132 8.17867769262486 9.837521843778434
Se 16.353304314806675 9.551499915404799 11.457079893042344
Se 6.799580700804452 9.868943620345659 11.563942258684852
Se 12.024298590905232 16.650591248258806 9.739740660839528
Se 7.478262305865102 12.815691618510426 11.751262540180557
Se 13.116405988755433 11.422632143669851 10.306680039493864
Se 8.807009025943476 14.858561862759583 8.554848234833466
Se 10.215563194537383 7.7169429755170835 10.629722016816869
Se 15.023824178378478 12.630106708724794 11.042931474020438
Se 12.25033499302198 17.308036861546345 11.828637052711722
Se 14.563785559677212 16.203559186872354 12.541540210974786
Se 11.548653391396494 13.035055087236188 13.1004336421537
Se 12.156821167475389 8.424238163668777 9.711128483997904
Se 8.642306161393133 16.10160720720193 13.472730697870729
Se 7.802574881292072 13.893417468743474 13.762889508864406
Se 15.149265348038716 7.652556417630721 12.325718099422854
Se 9.156659522238728 10.321281632900227 11.871220574159757
Se 12.149591097924038 10.736488948545047 12.385448583627342
Se 15.13890530302725 10.939090882202406 14.897640871622103
Se 10.98812988202959 16.00391953490093 13.697751029882227
Se 14.313813599523442 13.007989579205551 15.629350403271431
Se 11.95670271443145 12.836256451847973 15.405348570829318
Se 11.441890241162788 7.227059986932922 14.79989457339262
Se 15.331953101561707 6.872085916640948 14.894028235520704
Se 15.515484734052173 9.606110870460626 16.867980554522166
Se 9.041769212840952 9.833358199283401 14.28247150253462
Se 11.141592787541237 9.639068202854446 15.259229021198186
Se 13.36573641179036 6.667837876963196 16.08294699389955
Se 13.504220003345567 8.92295878369585 17.63685168392489
