47
Energy = -159.71936822 eV
Se 12.304006072700098 11.003326612981892 5.229386265160567
Se 11.495353820474925 13.043715921744157 4.325443256932261
Se 9.127747586599716 10.156846969801352 7.265754928090626
Se 8.069294700670394 12.166517478589705 6.6106791329408825
Se 13.76429462720119 12.72872174881695 9.714107600921032
Se 12.37821233757975 14.770698659168733 5.67302780962152
Se 11.40737352215279 10.770680786278842 7.388206993490971
Se 10.099120466233606 14.591217963637874 8.728539999240732
Se 7.934319354026176 13.668273301895429 8.41271770905779
Se 10.573648462303852 15.827119933726856 6.774207692005307
Se 15.62220464498666 14.171279301824452 9.49272222089965
Se 9.681974318126079 18.52580265426313 12.520291405781384
Se 14.838190253345463 16.06756916003701 8.294714211408037
Se 13.66184691818353 7.942998121195768 11.320471577089315
Se 13.265513737792974 12.457809218334386 12.007556792626273
Se 9.457287789623297 12.907843602411202 12.403983997019171
Se 15.255337227828164 9.4768432683964 12.200125221025855
Se 12.755224632604046 18.52365958022834 10.3959249559968
Se 14.91971604548538 18.07817315309906 9.50113104120953
Se 17.979793041266152 10.375185627416707 13.450277758512641
Se 11.582026409585072 13.999097073972479 12.67513169916124
Se 17.043184183557972 12.554864601021116 13.332304111374919
Se 11.559459044392968 8.602285773950838 11.951110384425073
Se 14.857626158495252 8.951104690125712 14.875603985206308
Se 13.183651021226144 19.077804259847774 12.659249839197583
Se 10.387821106586962 17.13733746253917 14.098700318233224
Se 16.229620195155665 16.250603211429624 15.218601313345252
Se 18.796817480770493 14.014285150799665 14.085472119339316
Se 15.328941985671236 13.269304156242573 17.39886357095095
Se 9.37921478658297 11.065891062822395 13.799156662821519
Se 14.063144992885018 13.884070198526832 15.657044845949834
Se 17.16171942509897 9.418925785203728 15.435098607871195
Se 12.914770792161939 17.223048842320086 14.004211729195097
Se 11.601128243811937 7.767201648763305 14.346589839568527
Se 13.585505453510338 6.722375303877108 14.435661131971248
Se 12.042895529532188 14.988495647024234 16.50481234611282
Se 17.07948226168239 15.455841840770002 17.08833185642689
Se 8.982440500450634 12.00115616811472 16.02870567794815
Se 18.99615179917567 13.863655392141599 16.344237077333048
Se 14.884370214559475 8.175070266076949 17.418173156526997
Se 8.310336961894569 10.126007652502249 17.212016190478565
Se 12.268508900396688 18.670731406652777 17.376270822816547
Se 14.94470795688779 9.968502957862649 18.903793612259918
Se 12.80963279324242 16.629195979721246 18.11401895490139
Se 12.914176327400572 11.193349567744539 18.73852975399472
Se 10.2157697176301 8.822941031041564 17.82718196631531
Se 11.219045661669556 9.845179268257002 19.694467320445376
