40
Energy = -136.32717262 eV
Se 9.106433169380683 11.615361256690695 5.984757361253869
Se 10.053453767503804 15.56779361392333 7.283079283876717
Se 8.709513496513736 9.342548596799372 6.409218333431232
Se 6.514771227002559 9.154217228940816 7.2274614408676285
Se 13.114754744205245 12.773580004869787 5.890677096597646
Se 13.33549031937169 15.462512714462113 8.622089509111206
Se 8.551816011255925 15.57684016152912 8.91172754607461
Se 14.381974112962682 10.892380508010385 6.522070128558298
Se 14.193774182469708 14.789965243084344 6.552870740401976
Se 13.410526491617702 10.143699010716318 8.55564678112978
Se 10.142183341638972 12.3560558654934 8.051242569007476
Se 9.532078534449953 16.032155036937223 11.17755512793347
Se 6.640754443857648 9.67309407655617 9.590260174073972
Se 8.496886832316331 12.882542106779008 9.501885196806406
Se 9.397470884688373 6.710611563208444 10.306394240027869
Se 11.308651754432184 5.369977250176161 10.153190805337866
Se 14.73161297178475 11.10766944219692 10.242664893880585
Se 15.154680558789078 14.893621787355183 10.163063130459394
Se 16.296306248786145 9.414338724569518 10.897362824033339
Se 6.1475087849727 7.817810905791318 10.802708040202683
Se 10.833430603530639 12.90560719283368 12.800421660379367
Se 8.03691200179324 5.601610936966652 11.989651769386453
Se 15.827631500832233 9.169064199073857 13.18233107765301
Se 13.025702591202773 6.652565030060026 11.168077311233747
Se 7.427060682151914 16.292187935338145 12.137064346921177
Se 9.573093394106023 4.634928532453793 13.489603210487601
Se 6.047503778780743 14.37301515947455 11.836753170962082
Se 10.339193531915788 10.583609006134685 12.628581303699008
Se 14.284601722620229 15.403956253767273 12.16395882848603
Se 6.502066920179186 10.770794119603478 12.96577738997547
Se 11.115145348252248 13.322621729979394 15.100229862492041
Se 8.524771043798738 10.205998003878422 14.057225744405349
Se 17.19065056652576 10.829275333766313 14.190994305974915
Se 16.041374955744576 12.862036980684932 13.777540801557443
Se 13.350106608138283 6.020562451381196 13.425658205445066
Se 12.97341636749329 12.138111330808036 15.937947878320127
Se 11.878018227422665 7.428746750825708 14.595651588016304
Se 5.881503480411806 12.933548057997413 13.714980535058451
Se 10.125625483785191 5.971178425632788 15.33631004587545
Se 14.925193726852578 13.447451884787979 15.778960154142315
