48
Energy = -163.55552637 eV
Se 12.585002862740977 11.802743536141055 5.102225580831045
Se 14.7506865232125 12.55011152064943 5.830903348247728
Se 14.571463927521624 14.212119000406384 7.4420025279141075
Se 14.181761628407326 16.391844285239504 6.379193967742116
Se 11.33763733611957 10.935757962242363 6.848612604457089
Se 12.35030857879633 8.764201062383057 7.29844104415416
Se 17.098105279715195 10.108225549549358 10.342949532587
Se 12.117026690685757 16.990888517533815 6.991707478818125
Se 9.090202078125442 15.472936879742784 9.39408240710963
Se 9.960305626201315 13.363895466134544 8.876668153907648
Se 14.90210732605725 13.30160868374521 10.729696723194088
Se 16.16556751347513 8.827284123081002 12.153560054462353
Se 13.056464119568021 18.03867338562943 9.463631694736089
Se 16.99969760255705 12.292366297595024 11.186382977766753
Se 15.205566551770051 17.655349316990307 9.074752415580962
Se 8.453339869933359 11.704795776645495 9.711788694735727
Se 11.369288154823607 8.192709569466334 9.320293646584657
Se 14.37618617734768 7.6538513929933805 11.279746264892282
Se 10.221173075496672 16.277740123152583 11.363252260823861
Se 9.426908126184179 10.633566315362064 11.54964059773029
Se 12.483061246205219 16.096892092606957 10.919176129685255
Se 12.494529484575882 9.200509216275774 11.167106916728107
Se 13.482097540376042 12.750482261937588 12.544037547919308
Se 8.942037320975366 12.560590024412933 13.076093961661076
Se 17.901505331746343 12.837952941181548 14.94069737157864
Se 14.299036971811203 14.004580911147698 14.385474091996954
Se 10.755767191709916 15.15250274073269 14.841582007267162
Se 12.158350490949376 8.878061075708056 14.301049813828893
Se 15.6749775870869 12.500896422964026 15.622401162875814
Se 14.046659987056318 18.638811581032837 15.513507835786397
Se 9.309128573339617 11.447426999581014 15.175796140971169
Se 11.76261241447167 14.086437847097644 16.731685912536317
Se 8.539893426009316 14.552492310821401 15.096171434960334
Se 9.847508101292483 9.19875107873975 14.657128442538895
Se 12.053221798188257 17.930058763571026 16.906075205672405
Se 15.304320988631524 7.881800905084487 16.03685084774106
Se 9.72642628385942 13.792464936815632 18.036924251336004
Se 18.660826393526165 14.890305836501396 15.876009197159755
Se 13.215252916462788 8.418064640194302 16.58626988651779
Se 15.662370969586487 17.086083094166028 15.920313372218448
Se 13.567654006597554 11.351763300682332 19.183201124304446
Se 12.951036922648727 10.912525906635185 16.965725594548775
Se 18.922657187949298 14.738604263737015 18.194040525789426
Se 12.795359702321841 16.213600773303853 18.12578891054174
Se 11.520743641280164 11.423283355364784 20.375636613033578
Se 16.73762025765785 17.70430488291521 18.035576825437214
Se 10.825592213546907 13.671688103550817 20.132326693094434
Se 16.83937312380123 15.606816090958956 19.012241328398467
