45
Energy = -152.4928921 eV
Se 7.420053774417758 13.260636963699419 5.408612190781789
Se 6.262635525937212 14.023318739761768 7.332316051929026
Se 10.767558715629285 11.523383000228232 5.0478985908490746
Se 8.62401293279382 11.281731950225756 5.968113064005783
Se 7.414916782230445 15.674407366592197 8.49998643922122
Se 13.000972821709151 14.358076443067047 6.33189038169998
Se 11.804252710635042 15.594608364077757 7.956945049571981
Se 12.405826287033578 12.101653694001474 6.667737686142682
Se 8.290637171883969 14.273916135233927 10.337330232717482
Se 10.651417053719763 8.9574790410897 8.905113601444672
Se 14.606520655780441 9.864910635211954 9.074186793007124
Se 16.2573564230451 9.164579447715008 10.661518402421228
Se 12.892584046037832 15.231260449786634 10.002538401153414
Se 14.47900964550558 17.134634655342666 10.263208697445666
Se 12.862206163205432 8.22131940329951 8.990368080711832
Se 11.561282010413478 12.167265999701582 10.963225508323397
Se 9.70705411526721 15.785678685159445 11.373593349413536
Se 16.559301800684455 15.4714331978933 11.591046124990738
Se 17.403875672790207 10.98551385222205 11.600010850684384
Se 13.725164413570313 6.043177817168405 15.10351908902285
Se 15.655536059337933 7.066443206883517 14.289197732579165
Se 9.308320151893094 8.335609995295574 10.860046632949615
Se 8.524475648121472 16.79439348250004 13.239618148056362
Se 16.028627979279328 16.458904724920735 13.504423656107779
Se 13.973469389227482 18.130957534808875 12.188153162707453
Se 13.65075748880392 12.044197170271604 12.119549851206779
Se 13.302925827849066 10.27965301296325 13.518850386689529
Se 8.316218526521903 11.669665895456866 12.457782345070871
Se 7.624249493874372 9.863860495015413 10.855483528761724
Se 11.686559716871125 6.976591504667821 14.26696263632403
Se 10.514333191126974 10.984397784223214 12.959575163354382
Se 16.87573479995793 11.565117579218573 13.855208209238224
Se 16.397197231171155 8.482466427687323 16.11312428863533
Se 12.94328675170323 14.22585235520005 13.3520180004526
Se 9.744864470482801 16.121772212816637 15.086967188776757
Se 14.580789725386712 14.835371412754014 14.814608323667027
Se 8.629804635081003 14.084582730279777 15.876327517251172
Se 17.981668222969162 9.908520587733312 15.126962575478364
Se 9.955377605992423 10.123075814689114 15.614186202164733
Se 10.469158082059005 7.871530460923493 16.08032134142995
Se 13.852322388730638 9.788330331670325 17.325298331404888
Se 11.785616552632069 11.723158943765261 16.561183710752857
Se 14.392173145402186 11.378059422185787 18.861603109034697
Se 10.134642079524234 13.318542347716281 17.46232643559524
Se 13.4148321692221 13.289538780386552 17.970642992282972
