41
Energy = -139.72834185 eV
Se 11.20126053534168 9.755262438233935 5.767526103430213
Se 11.503469354081751 11.4173756073871 7.370156269374297
Se 12.083685171431576 7.697305967665183 6.957951991102742
Se 11.706971125278118 15.361690310488674 6.820025879196864
Se 16.327265876736792 8.237866169493433 9.180281549878103
Se 9.783230546553504 16.461412803545773 7.607285734970658
Se 9.741231586993438 7.751902191481834 8.050980788196124
Se 15.87458714001913 10.547158860214061 9.652112186734774
Se 12.3367269492035 6.075236069772087 5.468549108281957
Se 9.658771305447782 6.200071442719759 9.733179144786332
Se 8.095296366894319 13.110800159607283 8.06268061749501
Se 8.756862941537513 15.067733655883366 9.245632431303315
Se 9.581931498511397 11.437886307000984 8.784958449003877
Se 13.62560132865708 15.893690193786204 8.083969160376315
Se 13.747579655540974 14.17220959536003 9.712033676042962
Se 10.890435660313702 7.535574758574367 11.401811612396209
Se 8.038043951309293 17.298196924657393 11.635653150633017
Se 13.816578490548437 10.677957628115095 10.795013728128774
Se 16.278136203984243 7.017305716228255 11.1511779956835
Se 14.196957519327293 5.839607588907615 10.498968887664663
Se 11.06835865901029 17.565277008384587 13.907937093472258
Se 8.620801690306553 16.944428586264333 13.766455405200277
Se 6.615343981065481 12.190127167118327 13.284129560551285
Se 13.255692550874734 4.722773725653756 12.223363247378945
Se 14.824546915682928 9.107082725278712 14.093813925266236
Se 12.89059561326543 15.200418199438614 11.668152325496457
Se 8.055558457157419 10.18400542782164 13.532764485304092
Se 11.389385982772389 6.151248826214922 13.132161351953936
Se 10.627639576374696 11.72910301145471 14.000384134684754
Se 14.530183819327158 11.21098599697586 12.965463944180804
Se 11.524095439765443 17.562276827568432 16.186816735630142
Se 14.809235216571597 16.060903755324023 12.758368792828762
Se 9.405804769545416 14.533283135311551 14.148111328810687
Se 7.429363736221524 13.551748948916183 14.974418067658082
Se 12.340547455611016 15.418772642615343 16.795332147595058
Se 15.282484746631212 14.527622338169042 14.498971948551233
Se 13.919772157199244 9.447797409515632 16.2365463384691
Se 8.008577825020092 9.52089649695848 15.652402020767697
Se 11.64660110919239 8.859937641226532 16.24539088182532
Se 10.513547387205005 11.020599786209194 16.118409773824336
Se 14.673020984936656 15.61024723590505 16.506439307318292
