45
Energy = -153.95095289 eV
Se 9.745952420163455 15.77055631631092 7.321822376551232
Se 12.327196522459781 9.74678698585272 9.69070100898038
Se 13.4304153531185 14.983727711662898 6.750090193395331
Se 16.342843036928638 11.589714677306882 7.941058222580531
Se 17.11953927842126 9.686659379671077 9.146337099455529
Se 14.507829030122041 16.489155888485325 8.213435959833246
Se 17.944338220375 13.233854835614856 7.570651095418387
Se 10.61101589818555 8.900059296632673 8.56381984924116
Se 9.857998145758508 17.598437286871008 8.811069999612638
Se 11.447534007078167 6.210139432984288 9.987321690286988
Se 11.478452461149772 14.265276610640342 7.864880728136434
Se 13.325535179954844 7.29225300865825 10.620624303098758
Se 7.054474333818263 9.597721577135365 10.542417307912801
Se 17.8151576021012 14.83532981118033 9.348800794434702
Se 15.544158433826293 15.092411310990279 9.83875245363223
Se 11.087639678865395 10.720336365775236 11.613221756536735
Se 6.281232295264079 11.472243262207616 11.74099776497935
Se 9.96013441602705 16.25601805490904 12.422008741240278
Se 8.547886026283807 17.045396959758172 10.694003502188336
Se 15.869716392898352 9.64426480575175 11.132472995380745
Se 14.50897549624138 14.208979267102846 14.913954757707566
Se 10.126736483278393 5.666158789493719 11.970720298965219
Se 12.578156108981002 18.891795054664442 13.426257133818911
Se 14.35037777774974 6.847960471800298 14.270251540401315
Se 16.276261010015954 13.597025356937209 12.69154017410717
Se 15.407682376591563 16.499579178992363 14.495411127836153
Se 8.071294037815221 12.164449400359388 13.137762830905094
Se 12.49376732688882 12.232981875617027 12.687057912706868
Se 17.38056171827722 9.78375113211013 12.975313687144013
Se 6.9128804867491445 7.735280557243545 11.979293443011407
Se 9.103098417642114 7.541394276953576 12.899379490822142
Se 8.104659276308933 14.176723605799964 17.694689225511844
Se 10.367015279819846 18.181330563883204 13.759770988866723
Se 9.259677284200794 15.736910368754415 16.329496882566094
Se 12.795305829452996 14.397555384482127 16.55963825409935
Se 16.5161786326531 7.580417043370832 14.270950930622181
Se 17.894564077988566 12.179739846172414 13.37274000957806
Se 10.806747422579663 14.391384617606256 15.187094654003452
Se 6.43417142283066 13.189107204126003 16.357118127347594
Se 13.865084996834764 18.04058270589215 15.258076290146075
Se 13.42673443925451 7.150912179599311 16.46855965125729
Se 13.807661412423633 11.030362973723246 14.293424699633253
Se 7.458871382997863 11.356207246136007 15.276307653749676
Se 11.635632981928877 8.611636390861264 16.075363003704204
Se 12.544178947973618 10.802754290196834 16.26066274886969
