45
Energy = -151.84912659 eV
Se 16.71277079949785 16.123098014713506 8.036455555970056
Se 14.00897559380265 10.452969700523363 7.298055149238827
Se 7.262049174318757 15.244057399335986 9.7287875595807
Se 18.424627817422415 14.440442792183687 8.734482463464143
Se 14.473636630106594 12.746914565037981 7.562451002524377
Se 7.212345123783056 9.475234020362095 9.24972880046674
Se 7.907115807215832 13.073196587862785 9.490776671387936
Se 12.752091125439438 13.706912777984035 8.863133081351847
Se 18.829233256344942 17.517168137095005 10.584099637642662
Se 15.43945818470736 9.15606226759169 8.699982235995073
Se 16.503161686364415 17.33649451422192 9.993174275110912
Se 10.609705238613262 10.828634144159027 9.723309678233774
Se 9.355209962452484 8.862890697597136 10.074451945377147
Se 14.174963890828234 7.78511569354319 10.117869747820697
Se 5.129364742913723 11.40446615183512 12.01865790057644
Se 7.045545344292811 15.779291522871022 12.063671667132734
Se 18.802740982262325 15.156021542880955 10.896121680473426
Se 13.751058694553674 14.191103661560653 10.963777589517155
Se 5.6308125976412144 9.341862400716034 10.992784513511145
Se 17.507132949550098 10.292142557291879 12.566189016223047
Se 5.678845580974873 10.967900148430074 14.306549800419454
Se 13.680101350505144 18.659631776745993 11.655964248511005
Se 13.845733943976418 12.077736995516045 12.000292711590891
Se 13.987378337355626 18.2052784954179 13.828584124257825
Se 10.322715360231792 7.798443041241194 13.217232436681387
Se 6.375734916398235 12.868618997911405 15.5152680479099
Se 9.133248926018213 16.701612193783678 12.671367309581463
Se 18.41773986886257 11.256075955855987 14.483042992244103
Se 10.081945372404917 12.320650082922445 11.488231318076462
Se 16.37260699764977 8.250640220051993 13.09376695341545
Se 16.797533225114123 12.796942248014632 15.382697839656624
Se 11.788639124583659 11.856180193494227 13.180309917397928
Se 14.153924986925997 8.601698597973288 12.371314595269062
Se 14.656905991384 15.861546093614754 14.025632674236066
Se 10.532080621653705 14.87290429474166 13.187421773595643
Se 10.902812140350076 7.743857251378371 15.393309888482442
Se 15.61186097687499 10.52806619051114 18.28566155952082
Se 8.63824678171973 12.76900881805636 16.15215967951898
Se 14.382978328098703 15.3516429914284 16.198110714105756
Se 13.349164057834434 11.132455253430104 18.494959243510607
Se 16.900947507392953 12.426336596219366 17.695785423344464
Se 13.095588734756092 8.745529635465884 15.624568899405773
Se 12.540247893266129 10.970155437054945 16.24456426561146
Se 11.834376718804268 14.099998194268123 16.80327333878546
Se 9.991682327533942 14.828050819886537 15.647009746052262
