42
Energy = -142.91399686 eV
Se 11.79059029112023 11.432636206170354 5.8063925728244765
Se 14.610982287967415 17.042182606822056 6.630979955405362
Se 13.065725909758667 10.008989603838462 7.111360364819299
Se 16.35425784520522 15.720578828090689 7.508739861668428
Se 12.577056284236008 16.34007633791966 7.624681354281326
Se 9.917606159602563 12.511693075547637 7.133952246443973
Se 15.048654633232012 11.210024650665408 7.737443665386465
Se 9.851037184530195 14.602978292930977 6.36693110240677
Se 12.082927031254963 17.83278073998468 9.393071855414517
Se 14.60988087767043 12.263435704775704 9.770361157592239
Se 17.443773920594943 16.973533861557137 9.182571007325459
Se 11.086008545368609 12.190046596960894 9.420556421340255
Se 14.917291121260789 10.492611875540327 11.3996931164706
Se 9.82260546682649 14.53568520041347 11.995797456916716
Se 12.110032098537948 13.433527748595877 13.108259582692012
Se 9.878516641026788 6.697877711974007 10.282006939821631
Se 7.169975456346718 8.768598061050861 12.067034323158094
Se 16.60374356500169 16.299653350110827 11.280907852532957
Se 9.219437515292716 8.888863725305942 10.830935560611543
Se 11.035691339721456 5.77134216202517 12.1193817258195
Se 7.892000036545829 8.946651947337852 15.975533068904955
Se 12.832317486798908 16.905070403326 11.43210793695762
Se 9.26004430171495 12.433362747880576 10.800501447392573
Se 16.48650822111945 11.158417628596442 12.980805969852106
Se 13.196116107809342 6.696780834055122 12.158572929595586
Se 9.808640149065765 6.09502946765035 15.76442659417634
Se 14.944138560568252 17.84079125690267 11.937122730350117
Se 13.022349674355377 8.586366742953023 13.595190017136431
Se 7.452916761611357 10.133825023079092 13.942456068671834
Se 11.036164883610398 11.968771780716681 14.410748505745842
Se 13.401972129953958 7.86242304789541 15.76465190928744
Se 11.052307329752486 15.678996372146877 15.578457989128651
Se 8.429266674848382 14.39180660318687 13.742741768955902
Se 9.9279051737215 9.816490787855606 16.743351869132674
Se 15.053752942486712 11.630620308840367 14.930847418914897
Se 10.236566794908123 13.440068896314536 16.33495923543107
Se 11.148064414149758 7.46250630521797 16.87763834504705
Se 14.811418428087558 15.525015615102728 15.183473980717336
Se 13.048707909106737 15.990973708547578 16.72158468814981
Se 15.892698104377398 13.572039459668725 15.956449572168276
Se 12.814494990046878 10.890083498280589 17.11563510825536
Se 11.841034659059055 12.74197113241768 18.066864631349
