46
Energy = -155.83475818 eV
Se 14.126239629220896 11.25515989112236 8.098011690490532
Se 9.424269328670153 11.567117847038723 3.5490485125762516
Se 7.109052692490452 6.445345970579761 9.355261878565177
Se 13.844526618430082 8.977924082117763 8.872246525573328
Se 11.237775780583219 7.445709963551753 6.204366316732344
Se 10.59769583090714 5.620386564457538 4.585580473235486
Se 7.135932313011682 6.851081614576108 13.084319194634725
Se 9.34855269895799 13.378944789779956 10.440530569347933
Se 7.344139384806012 9.82311737102125 11.565062246942315
Se 11.071111264979393 6.724949790122164 13.84697673305685
Se 9.414881899011155 3.346282909699656 8.817006130726357
Se 6.019747483372758 5.727000984930861 11.471247790156601
Se 2.8116810517089497 9.302442979115602 8.490768934464128
Se 3.964911194400343 8.929176715475583 6.422929346837858
Se 6.911109779311875 11.308239740279005 6.423941650834193
Se 10.846881806432012 9.303806169723623 11.090980758710852
Se 8.681126356218755 9.773791758644421 15.054516988931896
Se 10.088848309433528 9.24709384070471 3.0416690274328646
Se 10.12172895052195 6.501116811856504 11.845883785155163
Se 11.978614847920673 5.265889497960353 10.712946168499942
Se 11.881968718516724 9.024936318343558 4.536291344852959
Se 11.266179463842963 4.833653937463213 8.540171950331404
Se 3.8795747670199336 3.1962114030580437 5.188449729331292
Se 4.329137402703584 6.828013634822759 0.9824310881286962
Se 10.728716564476002 10.82464388758918 14.701051030481416
Se 11.177249001398094 6.472127725288061 2.586314564161258
Se 6.885987485312662 6.392298680408423 3.702498123547259
Se 5.319355785637606 9.646043427272678 10.500998668622017
Se 6.625347285690158 7.211034992403941 1.5374323693195582
Se 5.1483867243551265 3.159901501252395 3.2032740090176977
Se 7.286714621476021 4.0457839522684775 3.642409811039361
Se 7.523358749193794 4.550143787387931 8.055141991814883
Se 7.08663059875846 10.921634022769004 13.808658611448369
Se 6.295064560268668 9.043712261971187 6.725413916315383
Se 13.715690523121387 7.744211992774093 6.942099365040153
Se 2.0103178752233704 6.284477592977014 3.994863404982071
Se 3.1220856998161315 7.9136169030576315 2.6834036913389614
Se 10.887386483095353 13.358268643986115 8.636837383424439
Se 11.948028643405943 9.462172974723455 13.019102449685592
Se 2.344308168969407 5.080316435367641 12.221479101981338
Se 7.146986204712208 11.575407439978292 4.079328760941467
Se 3.4747986483655287 6.894961251643625 11.572272514507622
Se 7.5855182778352646 11.878082330622183 10.111682007297082
Se 3.478028142396503 5.486872667342498 5.672951804512013
Se 2.3114016909968123 7.212951918542698 9.421532498076893
Se 13.022731884174446 12.723722215079386 9.520396278047587
