45
Energy = -152.02843388 eV
Se 14.358024323691819 12.043647236021464 6.0075382387945915
Se 11.612079090460236 9.475850021252306 6.491912576959892
Se 18.284710405064867 13.31014638677374 8.950141220226865
Se 13.889230412070747 10.063777470572223 7.198546752149045
Se 13.395612415559745 13.855119253283775 7.151180625376375
Se 15.139152689656957 15.080257788682724 8.28516271687398
Se 10.178420973453406 9.64413569658948 8.220604567877187
Se 7.1589948655209 9.298550706988639 9.310689682313406
Se 12.401394689766795 6.650134103359019 7.690223742151883
Se 10.299090982720369 13.90890645167271 8.996408227303698
Se 15.819209428204484 14.0104364321997 10.175746499380146
Se 7.935846873843549 14.188942432083628 8.822963631408918
Se 10.804486596081375 7.078565180629197 9.145409974394626
Se 7.130346049309465 12.83807054414447 10.611926523056894
Se 8.581293077268183 7.1475733970986 12.125638366034886
Se 14.604205704841602 10.43413722940074 10.273176360076217
Se 17.98247455807247 10.812907445662203 9.0505623556651
Se 9.012674441911619 9.440145155681062 12.522503523898616
Se 10.9162104273706 14.498389275708872 11.174479490841236
Se 15.55461071993762 12.907231750231835 13.135222445624349
Se 13.626044244052563 15.960108856317033 13.02608858358093
Se 17.837073942512806 14.076617565580603 6.924287087104846
Se 6.715102242581903 15.899052689815491 13.04652470045149
Se 12.005304472616617 7.799355067727886 11.337937627697464
Se 18.293469385695285 10.493764014888905 11.265811460070738
Se 5.616954227945018 14.289041078856224 11.688058035137841
Se 11.928725227229696 11.730108692331527 14.241134479919086
Se 7.091568789445665 7.223141540787339 10.132129449435197
Se 10.061424569545457 12.271577755481772 13.057858616960806
Se 11.912833587519728 16.75940914020652 11.707792709950331
Se 14.139215897496538 8.064422718972244 10.54353907806547
Se 7.060000695528953 10.271084230325808 13.637584183284517
Se 17.248413269961407 13.188502564777206 14.578896954674418
Se 6.271671484200472 15.582380925197203 15.332757484418403
Se 12.160678340269655 14.84985385508946 14.666892662686134
Se 15.844221775003978 10.565079443259444 12.311828550900932
Se 11.780491498409027 9.324027431914425 14.7372634681158
Se 13.79974356585058 9.445163998119648 15.981084166646978
Se 8.268895886829768 14.992354011710235 16.484303398999746
Se 13.145270156581306 14.765791223088947 16.80497541139967
Se 7.321548825393448 9.760249088876945 15.916188752518329
Se 14.629984414630737 12.922841434463953 16.9996979795602
Se 8.955961981792864 11.192914312436999 16.833175669285197
Se 13.508858637940243 10.959348739638644 17.77328909052318
Se 7.8578190952996145 13.066230601238972 17.77020781734432
