40
Energy = -137.5148163 eV
Se 10.057422056435767 13.953811732957556 4.170384836073047
Se 16.23356180708318 8.135602867386234 9.036190139310904
Se 11.445522234016526 12.088546686072627 4.470328620972634
Se 11.526826967429914 8.076247180283884 6.864212303466201
Se 7.902382963462132 13.144827108455754 4.804402390454102
Se 12.406174273216177 7.2766824560653145 8.903856047151098
Se 17.060369560445324 9.70745863087071 7.501555801657588
Se 14.04657047276734 8.74004020034327 9.749771614358572
Se 11.528711566746072 16.2810106850746 8.316279013254123
Se 7.125768036764033 14.660161786718717 6.383488863003482
Se 11.756881305938347 11.784402092061999 6.798482719911515
Se 14.328734071089693 13.060759269620839 8.473148315521554
Se 9.237874232128792 16.409244486810973 8.895649803002023
Se 6.904331774287707 8.684951059154285 10.64099394476529
Se 16.637791689544784 13.387338028463422 8.135655562463208
Se 10.287357858435078 10.01769483546521 7.363793732690587
Se 5.933619295079377 10.15826267659746 12.214085318216753
Se 12.785614260983793 16.114806448052537 10.285276258682085
Se 8.232773412848175 14.30521217687076 8.551949378933735
Se 17.802212966377223 11.48266032239126 8.896853018673111
Se 7.705624361423494 11.014242518755253 13.492863712179105
Se 7.889272837799758 13.655874146038599 11.386165268268364
Se 15.34567173700699 10.914191214700027 14.451719621690746
Se 13.50164642279798 10.088062561262914 13.226105885722276
Se 13.40470990814503 13.823050065809186 10.591681927526142
Se 11.45457582432852 12.880757520968508 12.454260102993043
Se 6.821835453385777 6.46727305795541 11.460976685163086
Se 7.616343063125306 9.530522559155107 15.39735721697375
Se 13.567681274532202 7.720730718577689 13.24390187189408
Se 9.005236884221638 5.769294177920166 12.02566136054014
Se 14.502940616218064 11.333984723730605 16.61522875311562
Se 9.206464240448401 5.625719769308294 14.37789609012137
Se 9.809235622119537 14.45345201443788 12.308882056639757
Se 11.394367034854564 13.429532800568685 15.844415004855763
Se 7.266765503924733 10.853534266983107 17.299384005642757
Se 13.64999059211822 13.530082277085565 16.562506803865112
Se 12.642356745926987 7.031300408609567 15.304633189561834
Se 10.029144503864922 13.428103125137667 17.79162503082529
Se 10.329758221231064 7.542500354306932 15.200160025705786
Se 9.39143965207082 11.213632293594225 18.28377900877691
