45
Energy = -153.08285313 eV
Se 9.903806726097484 14.27065489728552 6.3337521112255555
Se 8.69055838033473 10.718406586075654 6.787039307547052
Se 11.752943622462478 12.935860953530144 6.392658954017903
Se 10.901129605707439 10.66245127331642 7.0634123617582185
Se 10.00755361334751 15.742839963807626 8.265925340478034
Se 14.806584535001539 10.531099626430073 9.779468317019496
Se 10.50106586636162 11.010377214983 10.315253194128992
Se 8.084747398296681 10.411111279585823 9.986500677590389
Se 16.159753281266262 8.782734836260422 9.537051672008129
Se 7.957081782720587 15.93510275556461 9.378054752417002
Se 16.71588431943833 16.176617120499852 10.750466081235189
Se 11.916698271938404 17.564788082862997 10.686972069430093
Se 9.820479364293899 6.627931161353561 9.999845909718141
Se 11.863070134904516 7.069637183869159 11.10515036517287
Se 7.164216212283726 11.2340895055312 11.95469409541846
Se 18.44093383675148 9.780092998750593 10.34409145960524
Se 17.85964119007429 14.98328411810535 12.346462556612106
Se 14.722988116586736 15.008458868418595 10.1394287581928
Se 17.863698373412607 11.864460740615206 10.900857663393017
Se 12.72802797191978 19.402071914481432 11.929682625529207
Se 14.130011096476924 10.293363445585836 12.31903090454334
Se 7.923231427038029 15.008117035977037 11.567896281994663
Se 17.136032380253194 16.262442317487753 14.450659043761942
Se 8.226269115663651 7.283552344319076 11.6304542692464
Se 12.94219471967064 15.611636653278287 11.547209702082949
Se 6.228814833851207 13.373408610835432 11.509957608927685
Se 12.002133390144774 5.278787639092599 12.657154924490289
Se 17.15795730817891 11.584490091028618 13.409515718854667
Se 11.423604325658632 19.490383151247546 13.924390617851705
Se 10.65702726838058 11.886920907387118 12.444259927928229
Se 15.790034499112487 17.86487585581774 13.735731482786449
Se 13.84603517035181 12.064936244657739 16.161479800954663
Se 8.351210901542867 5.45609995762619 13.157523344100333
Se 11.324893175530173 10.064855800038883 13.863139285237347
Se 11.981436937228798 16.093125444216238 15.135570038779118
Se 12.698630887628306 18.389362789566167 15.523915288742819
Se 15.196999877264348 8.424855023011247 12.905907258018482
Se 9.714716390411718 9.67792720078008 15.567161290339577
Se 17.49371998446621 9.404887671378 13.715226256327142
Se 10.387235496260592 5.9036143273035 14.276558462933666
Se 11.843593697672658 15.069817997688276 17.198801071540334
Se 13.988922706237485 13.870611965959945 17.467430698763234
Se 12.317621764992028 10.679566890971772 18.147443109056987
Se 12.530729079826878 12.237792137950835 19.711766660140043
Se 10.098098858619032 11.264515311130559 17.227066575763747
