42
Energy = -140.36485711 eV
Se 11.70120669583513 15.519787030739813 6.59751610442674
Se 14.559254627581506 11.034711312130032 6.983077087031587
Se 11.665170037683254 13.527149826603136 7.548920528675974
Se 9.80519227029367 10.560640274300637 8.457358514015999
Se 11.417735634879334 9.042680155484595 7.642363341821007
Se 9.65103080028266 16.331763250693587 8.877219790020106
Se 7.377779914427906 12.803684876596407 9.048668953608457
Se 13.584676664964043 9.392020070033578 8.49498183068244
Se 16.36059001630525 12.168337694599902 8.016007015995376
Se 15.489071142332762 15.785538174500266 7.836046276424961
Se 12.377115979587355 14.59729809455308 10.415388518678276
Se 12.874208586803784 12.16654953737666 10.232153095566424
Se 9.77131898691906 14.04910999413971 9.547169304247634
Se 15.97356290445304 14.04809529985518 9.380940180978095
Se 14.598509963485851 17.525738793978583 9.310808887282754
Se 9.241163605608321 9.758231296445016 10.684724870063635
Se 11.61855149885804 17.249766811607735 9.76670960184733
Se 15.492491779886947 8.514036602491085 11.4132973785834
Se 8.825300463823583 7.301869212753473 10.231706696387802
Se 7.663627578633946 11.789644546462432 11.060124703184162
Se 14.922627751173096 10.425132258275296 12.841223536769744
Se 12.694655701760674 11.01617442936961 12.28710099091316
Se 9.195332187219655 16.396202341932877 13.849486067489156
Se 15.50688314136594 17.323615745780113 11.365852873456685
Se 10.026767711103172 6.323818783979858 11.957757928087794
Se 13.978602314949017 6.8194036869835015 11.990168904455212
Se 9.207815118267336 14.09443346376087 13.457465575896082
Se 11.585432184341434 11.451033665688449 16.635030645751396
Se 11.23349963174747 16.802148027719014 14.99228568955054
Se 13.224907662069292 14.62265167968764 12.752461238258876
Se 9.015367681605367 10.83042462002299 14.530544538606211
Se 12.963118939927744 16.879310777461953 13.340226318192691
Se 13.591944873969954 7.405418248812757 15.745779488673039
Se 15.208222769891872 11.658943201180923 15.550463841365746
Se 8.470182063849549 5.8587719956036155 13.704185101774767
Se 8.371358592016405 12.83713101342183 15.397551987583464
Se 13.37485468431884 12.960717468034485 15.725292592850739
Se 14.647786350374252 6.074662818889119 14.132287330788115
Se 10.153058737559938 12.995026662176253 17.432529415993507
Se 8.469174526620215 7.894524777371926 14.898477400869403
Se 9.844120459193823 7.43146389646517 16.885360721626114
Se 11.637310244628424 6.102920062634325 16.35386761212459
