41
Energy = -139.41431114 eV
Se 14.118115352189774 8.67153221815648 6.908944452137845
Se 12.200858210102226 10.117383003124134 6.812302126392359
Se 12.312059181944136 11.24162500359797 4.81786688236073
Se 13.060874393142134 13.54329809359592 5.47909554746219
Se 13.083299402632177 13.573677440407389 7.7083130222322245
Se 15.703880738083107 9.386382699037936 8.46164315648507
Se 7.863652572423276 7.84640847993683 10.213821131769613
Se 12.061388853547749 6.396638830479601 9.982155469931055
Se 10.036830846118328 14.535775620402028 9.306637418995471
Se 14.339180026405318 6.5257889038184755 10.649406054319307
Se 10.986953646886592 7.471823164471502 11.809859459647292
Se 8.606264234414967 9.937003115657129 10.312228611939668
Se 11.041597831962243 9.702990192694225 11.226304891718438
Se 13.491707192087267 16.725085510526604 10.811651177900675
Se 12.886756030061726 13.014343970360365 11.009705338516888
Se 16.42816479368365 12.89474023581902 10.20320902490672
Se 7.835213543951876 15.082932644444202 9.937925418405378
Se 8.442021957830306 17.994318804778874 12.535898234570062
Se 14.819541769160017 8.811739656863775 10.613316189012746
Se 15.805781497655946 16.5733668580994 9.82062641267681
Se 10.541878990848643 12.911848652731281 11.030602280724025
Se 16.910324434662886 15.125408366345146 11.159717943338581
Se 13.232921302365096 8.706185441282166 15.655820349282116
Se 10.621370892177763 17.794939697822223 13.409539617831316
Se 13.46965778014551 14.973561967053795 12.294659203620268
Se 17.58069174469122 11.657641353917427 11.817760181853878
Se 7.115672777995223 10.379950712959804 12.345745928380758
Se 7.767435150848195 15.74757163161349 12.207406759248585
Se 7.05045700809127 12.469246313681055 13.29490467422378
Se 11.392635802418557 9.838416691133915 15.118319120275034
Se 16.13373493452026 10.915378732295954 13.526359758918632
Se 16.296920732502112 12.594066968162563 15.242678076619525
Se 9.836617551782851 9.025221201137827 17.08450084439501
Se 11.15998926353705 7.603152369338476 18.135378040611684
Se 14.254333348948544 13.619161228192707 15.371346313865919
Se 10.368877965930778 17.36857733769887 15.722021996538786
Se 8.613856752030932 12.078970038393686 15.162599569203339
Se 10.775734070634389 15.093896088122346 16.17016141141795
Se 13.107381915315713 12.18689306892697 17.163453945027005
Se 14.355758338510068 10.351338292734173 17.342092722961745
Se 8.707375120561458 13.929487352985175 16.541789193082643
