40
Energy = -135.53229418 eV
Se 15.71291381457532 10.745424701950482 7.214234357033057
Se 14.645664829686794 9.25741260996275 5.935750875371869
Se 13.903456787830985 12.45177949043476 6.726927112204281
Se 8.980660984675705 13.232750334410952 7.880219724646542
Se 7.173567963445045 12.144523176256326 6.9924509789905445
Se 14.01570252481886 14.667342518175987 7.498940760340185
Se 11.15520488562965 4.247698342630614 11.14022260976231
Se 8.475730823299703 15.494509159137518 8.545507546734529
Se 6.199604686811214 10.857702220736687 8.896690752434592
Se 15.544426453571734 9.944336903324551 9.57156896770436
Se 11.166199790937858 10.33143178441998 9.984071234829997
Se 13.390859085769458 5.013933774751963 11.004008623768238
Se 9.911813053861696 6.231600245620574 10.926744263628628
Se 12.295927268798325 12.19581058533674 10.830008667273205
Se 8.139324765681692 15.58579934696064 10.89494385374795
Se 9.824020859817352 13.996889144705046 11.63807218965192
Se 11.911596941261012 15.099664132500239 8.491353922570848
Se 16.213449847150475 13.357450116153267 10.810822646430944
Se 17.223710928867416 11.250733925533707 10.525717625893082
Se 10.885588020411602 17.711370797511563 10.99820697130367
Se 7.480136915540548 11.546146876102851 10.677621193897515
Se 14.991343944336185 13.314122822141483 12.88766384951731
Se 12.046729675198906 15.810882175923092 10.963694364578103
Se 9.196023231568017 9.961705083242936 11.266663099791833
Se 9.59815221830198 14.161806215377228 13.895420742822582
Se 9.969739129879258 7.030719273619451 13.17949090727726
Se 13.590360196512 11.45955344392367 12.761350193315417
Se 14.183298855571215 5.603479991748972 13.130318986669678
Se 6.975479169841281 9.101640450701565 13.737485282552422
Se 13.863956133007546 7.9935547626661725 13.203337012820183
Se 11.849395348047343 16.40553145952235 14.161435587221044
Se 10.117035433642435 10.839658327789333 15.121268485539137
Se 7.768087837500807 6.897770867976233 14.039637320100733
Se 15.300875917358175 16.100379570141747 15.488937148756701
Se 13.296108268143861 8.638313245933391 15.420118321883278
Se 12.15948289587951 14.682327446211307 15.872889895644393
Se 11.025403814094128 8.709347118192648 15.963742936666765
Se 7.897257392825504 10.297342838258785 15.5879614846823
Se 13.863712017107503 17.695909067097567 14.557738287178688
Se 13.75807451006257 15.631722874236493 17.27683843608437
