42
Energy = -142.39841894 eV
Se 8.129454395199865 12.739806292751863 6.666370796495024
Se 10.90086683306774 7.934019054946424 7.495345280959243
Se 15.258667892279565 10.327190265333988 7.5620182861827
Se 10.583319572400125 14.091550193108057 6.840130293687774
Se 11.854851639200778 12.371585254464522 6.256128182113393
Se 9.094439107420273 10.848574865872997 5.960022422048868
Se 13.500198675177757 9.045319071078849 8.543457151160041
Se 8.75749080621531 17.542048952978007 9.370754630408525
Se 7.573923440980909 15.807203037136821 8.681955583690817
Se 9.33872146822883 9.467697016648252 8.02714692738207
Se 14.728000569416537 7.42744136320914 9.879726287574083
Se 8.140553073867869 12.617112559185692 10.93190128412436
Se 16.025478310259768 12.020000593338276 9.025726615475685
Se 11.12557596395916 16.581706912531907 9.615847712865687
Se 10.684923526677816 14.380602949489324 9.393855286247453
Se 6.7799675599875915 10.66226742496013 11.354991477143328
Se 7.076102869931043 14.376471975800554 12.077457162823746
Se 11.22095547944866 10.611448549488927 11.05342140997831
Se 9.844094726817413 8.601669059116661 11.798432751076664
Se 18.18989348098126 11.288114959314322 9.631647041301092
Se 14.396097347042883 13.385892092743234 12.347989756987513
Se 13.452616320531394 7.24096948464689 11.824085156585705
Se 10.955392903409384 12.249282926363671 12.698720543172188
Se 6.846945935334394 10.212929937234831 13.583406978366321
Se 18.21413336613954 10.314912907402253 11.776927167049621
Se 8.046934636147634 14.559318780736989 14.2258256419937
Se 13.625087231422983 9.372510975708789 12.973676286884636
Se 11.622377078692491 16.169847197629068 14.32013658626939
Se 15.968808527647433 14.44326458051941 13.711758113760116
Se 9.090721979567277 9.022529543894397 13.867548119182564
Se 19.020135624794342 12.027404992073437 13.21361493687557
Se 12.967795636353697 12.26105480696069 13.95797011424377
Se 9.304584305931591 16.573597230314764 14.230760667036831
Se 15.341193628895189 9.335471063805134 14.570599252102017
Se 12.04403145369747 16.139898067037947 16.688838180147776
Se 11.75163155566854 9.481185201849629 16.052280924812585
Se 17.26729167868315 12.672288935443945 14.62965821102758
Se 11.030345488625555 10.69361011109635 17.892618024103697
Se 10.605665179239963 12.898269699008376 17.238112931362792
Se 14.705439232140344 11.065422987603718 17.977312913456732
Se 12.775840913121348 14.009974223825905 17.284392021335297
Se 14.235461575020112 9.204544892971292 16.843441880130776
