44
Energy = -148.13392852 eV
Se 5.731211767737064 10.356275826206879 4.791873894621507
Se 6.296381325245754 7.0713984553075155 2.8347079727788493
Se 8.940349860006927 11.992336961879099 3.7895287416439136
Se 5.598362938984248 4.766240667986722 2.529855588594282
Se 5.3764122009826805 12.63768140574006 5.170533887426431
Se 9.971983208954343 5.964810489542692 2.557788322756601
Se 3.6822875950803846 4.223142093928427 3.5275083454227283
Se 11.70483833427874 7.920827221220785 4.584783132341041
Se 7.134292388809752 13.251211117552312 6.590570520312916
Se 7.39394803345322 10.395038411691594 3.045183426977853
Se 12.10494105690564 10.288068148201825 4.962150449743638
Se 12.89776684002014 6.828439552706472 6.2026756647618875
Se 2.198477548049269 10.085162625589426 8.603943921242314
Se 8.146518141257097 5.8511391316851915 3.8329394152370564
Se 8.078943967849506 2.5044558070347303 6.619960155267553
Se 3.7463753446782495 3.4771625719577806 6.896457396063653
Se 2.4305099038479607 5.3248836479221815 7.469983638739068
Se 11.504726763311632 4.033452866344542 6.45565188416606
Se 10.078249338612613 11.176892663125074 5.714581552684216
Se 11.323960650405002 11.110853784237994 9.38796601543218
Se 3.9110773887441765 7.184967069810838 7.1549663930883
Se 2.811303794200888 11.65801539362826 10.150986220330083
Se 10.286596355858922 2.252573758789083 7.423710074088258
Se 7.030400457444892 4.008540269345924 8.228990342321513
Se 7.359179499178655 14.680203950337841 9.997754622194229
Se 11.673754706950211 4.054473677310463 11.118479359674629
Se 10.837614228984286 6.080650291900785 7.739800187267804
Se 9.110146814634566 7.082851341124021 6.70894692289164
Se 12.927012262480652 5.739358318445012 10.270741423374718
Se 10.883418671432944 13.20586103962266 10.349871226332025
Se 5.565176445729601 6.450191184916071 10.463080886841444
Se 9.32517219771378 3.8500625470537804 9.841498908506313
Se 5.88897647390767 13.317524581004857 8.741137048701207
Se 10.830372871211969 8.075409109384125 11.655654093512023
Se 5.040093507207318 2.8215672269536216 8.793409913252727
Se 7.311837579527894 9.501660905200835 12.080232146606102
Se 4.135267251410413 8.18547009176788 9.248727687410874
Se 8.380577370908103 5.383021625075555 11.480390268448739
Se 10.129074461885796 4.704003608289253 12.969744706668832
Se 8.719224451637192 13.281379518056372 11.325521317538879
Se 12.279549302322469 9.861481499388256 11.178395282383919
Se 5.713972421855661 7.75675467352485 12.394542196519327
Se 9.262824547985794 8.902173604796943 13.27044641942507
Se 5.035928936635356 11.491420472731932 10.633417634728517
