42
Energy = -141.99884525 eV
Se 13.324298543614578 17.07981945183679 7.077473339169025
Se 10.081016639633889 11.888438555744258 6.473853164360664
Se 12.508271951134338 8.936358491635994 6.466078902851435
Se 12.347937956971494 11.298960644231636 6.855083853444146
Se 15.38465181016961 12.183194882637935 7.718719123969172
Se 11.016683202825629 16.4952084794283 7.1451415425004985
Se 7.425253348166096 9.940339275671601 8.318328181199647
Se 10.660907408273578 18.52737016453989 8.356748507078118
Se 13.851887542121288 16.96238744954264 9.325127532661899
Se 16.274758627425783 10.577856887025968 9.049763496024541
Se 8.392915898892994 8.06790859500063 9.380593774582932
Se 15.80455504511245 8.381158733987514 8.145246206656234
Se 13.480713929111591 8.092567435317893 8.422786017147379
Se 13.259866689107694 13.238749175841924 10.403378668205258
Se 8.866119961471014 11.794285294288375 8.505963161747367
Se 11.39286936977864 14.075701950005264 11.387796843906601
Se 13.39761317647506 10.779286228675888 11.298199373583262
Se 10.000041702653492 11.184354477579822 12.531922339669643
Se 8.354026907581234 15.287055010642877 11.658355879207647
Se 7.125256409775552 13.568240807484946 12.691617240416766
Se 16.543102242916856 12.46831304294903 12.331117059707589
Se 8.262819928517649 17.24576803624115 13.033873382110702
Se 11.808416878609087 18.025143403850937 10.29138305690473
Se 13.471558101558776 7.024684813396048 13.816734451002999
Se 16.23487827086457 9.353240724490213 13.308401769616568
Se 14.987202063328835 14.115415660776513 11.994296251338287
Se 7.674312764802379 8.256070093129253 11.626670904501191
Se 9.532389735386886 8.862224598138882 12.92862169466504
Se 12.881060360652382 11.210854762696705 13.463155885839283
Se 12.352579966994808 6.011463110971381 15.599300862826615
Se 11.636465739336668 16.230688995597184 14.562458137275511
Se 15.727871068166621 7.484310401753145 14.592165938566584
Se 8.70034933080849 12.478541085869987 14.063544515707443
Se 9.288085394428878 16.663857116536917 15.035057680627215
Se 15.336075338568294 11.282236084792553 14.480055912616216
Se 9.903771857788492 8.777146615151352 16.799675677653894
Se 14.55213517430333 9.980673291284337 16.615176130369036
Se 11.665647877173729 12.37302093583624 16.63377427886896
Se 12.201630338709117 15.304794948775848 16.53019858778503
Se 10.347814909525537 10.768212243140294 17.93135220954485
Se 13.89007761415321 12.034646172327045 17.472833530996102
Se 11.777344598612492 7.4146875466789055 17.40321060859768
