48
Energy = -155.49582322 eV
Se 12.187965602868422 13.01705284652261 6.150062762870232
Se 11.705423975502798 10.456447339829602 7.104690006846897
Se 9.206690005330266 10.073592457903793 7.924329027343255
Se 13.529610904796227 8.826848813310825 7.377687181207762
Se 14.825132821546823 12.899285351002039 8.138956641127765
Se 15.368420027082957 9.94483144326325 8.414736160423045
Se 11.20130794122934 14.282526900188378 7.703076088068059
Se 9.192941860672885 7.472591818941739 9.740272073358808
Se 13.54086637438004 16.68242299020729 9.482098837120745
Se 15.38374695704569 15.056273866987368 8.701555094736147
Se 6.961328687656134 11.02029396169675 8.474338032637595
Se 12.31268600678146 10.902897187484244 10.250813307744291
Se 10.013079342499555 10.692931620398442 10.44144225798034
Se 12.534585597874042 7.18796262319187 10.102439675150839
Se 9.153345529483675 14.861778078282898 9.878015309050848
Se 10.658666068875025 5.686900650752838 10.47693062139208
Se 7.213464117280796 8.351793042614501 11.005109116862346
Se 12.681512250465298 13.43294423330493 10.53952129458137
Se 15.963572420523066 9.693754749325324 11.047948610902411
Se 12.571187386429573 16.487029363741705 11.577114989905848
Se 7.146847319720557 12.250317199310768 10.34087931224128
Se 16.326446325183994 13.894030325026392 11.646226982612413
Se 8.974967020829844 16.796142267255114 11.223886849883545
Se 14.304746886949808 6.939239903637082 11.536017985464715
Se 11.562339728326219 10.712155952181174 12.600745220155707
Se 6.0824556842264075 12.802398956112528 12.997629888423031
Se 17.352651479624026 11.609951598682049 11.297841874056973
Se 10.583623462922537 13.794644795666375 11.657253174819942
Se 16.087349693001535 8.99906597565542 13.883665149404406
Se 7.39978106733402 10.171104638734429 12.33913253129739
Se 16.501534906466393 14.835355413664633 13.859650454453377
Se 14.108712787528312 12.142096868285863 13.946955446835904
Se 10.591790634232694 7.759369991202611 12.965197105264938
Se 8.022017049604374 13.546319611792548 13.893521964724853
Se 8.522926421452382 16.122393047394077 13.417834148555006
Se 16.503396795734403 11.268422858165236 14.276775581363111
Se 13.589668488099072 8.31322827553111 13.949260531193387
Se 13.269142571144648 17.68215494393532 13.808275180692007
Se 9.24991584076521 8.508330759175346 14.627188559598673
Se 14.27178271795349 15.51405205274121 14.877203217190301
Se 11.53504689328241 12.986163766887831 14.215341344396075
Se 11.453394778456868 16.52437485845694 14.72812936129273
Se 10.734676837767601 10.035098339157237 15.890273492653977
Se 9.01453574745247 12.48596618675983 16.67454858216326
Se 14.260902379862882 11.854278342869124 16.26877843447989
Se 12.615087382783207 8.583601941328709 16.15810586965291
Se 14.137807202043566 13.977630656530488 17.08177225347924
Se 10.706488699800367 13.977521815784366 16.422343095214174
