45
Energy = -152.63030032 eV
Se 12.722204433724015 16.157895152112605 7.3831280676614135
Se 8.293423455513896 13.199978791674718 7.056586327692232
Se 15.378523070431216 7.703109339599765 8.999348299808206
Se 17.61615826143818 12.489005683212483 8.504218137640764
Se 11.689432089754884 14.449768829376637 6.138015175689856
Se 12.172480201357581 8.800552656755778 8.6830822469247
Se 15.856214103107707 11.196533650480507 7.672228932876256
Se 10.056431802690113 9.647292493624322 8.254314976457367
Se 9.371254724433673 14.97093328275908 5.975070656458104
Se 16.80083980567432 8.977658743443206 7.7434072133398715
Se 8.93613005642059 10.289474124881751 10.389569919326844
Se 16.19231954829589 8.14380683925023 11.374035087567677
Se 8.026048131036761 13.724986118569351 9.400465395303906
Se 12.042826085890729 16.00156464774919 9.636629685112851
Se 11.745169760348844 6.440957805212084 8.9183835276209
Se 6.886286529394802 10.607439957966022 9.59286033189269
Se 17.52015428066979 12.585145633229773 10.892935643309379
Se 9.81677696700641 12.85319076700568 10.505327677429612
Se 12.995031184390717 14.094584002094955 10.681279837809278
Se 16.76708642374144 14.842047958515122 11.279771711581015
Se 9.35464388564657 16.435960278305522 12.4955273831085
Se 18.047736475933007 9.333756738906212 11.148398449756652
Se 12.41185498548386 5.763666770438646 11.057005993564792
Se 6.45607691100595 13.497926893520487 15.46463693732098
Se 7.08264993303647 12.194476918707105 13.614162180124897
Se 11.128381677263842 17.810954579885536 13.291737685720259
Se 18.111559073475142 13.205088724722016 14.019464504190424
Se 10.757276373670873 6.57769773150526 12.557576944995503
Se 11.911648685231153 8.248549607060943 13.77605443557781
Se 14.624394410434407 14.799502623857164 12.25359519557341
Se 7.623180035563384 16.837305039261445 14.02778361638426
Se 12.037943731256846 11.072668451979371 12.391007658878191
Se 8.1328385087201 15.16499720001412 15.65662125881455
Se 11.418457203506877 17.091317022906722 15.52259462319388
Se 10.791759298325818 11.990744811684777 14.044423636935933
Se 8.767931138758852 10.697660933309594 14.320557056650562
Se 16.28396016062119 12.318399636876048 14.987365221561884
Se 12.482240400508191 7.2204149499750185 15.87045961736101
Se 14.874909131632165 15.685389140304205 15.97306734427257
Se 12.554352330266592 15.049603061790869 15.551421241627574
Se 10.832350208431562 8.062420638210876 17.32506690020249
Se 9.093963471059686 12.499707553337407 17.429176798260265
Se 15.670601851138102 13.728773954936385 16.895292957618175
Se 11.264098870483522 11.9768737362335 17.178124099157337
Se 11.75276992513725 9.912586116671704 18.42058899955831
