42
Energy = -141.31796593 eV
Se 11.481674091174455 14.89333660410388 6.380799133622746
Se 7.410030364667306 9.303590123207762 8.374477610444684
Se 14.938347692835835 16.012038780572393 7.609724009013276
Se 11.791913996937245 8.919964374462518 6.723507228493016
Se 15.099045687534128 10.315137147676326 8.055610983044124
Se 13.67095661155048 14.14692800987686 7.135816511354185
Se 10.220781406370856 15.975223806558027 7.9725190611016625
Se 7.381662029466205 5.906154913938799 10.072039515438709
Se 9.662833940698947 5.322595105841134 9.878621458358431
Se 7.209936601782437 8.263457127609602 10.42035556888602
Se 17.408039615426222 11.856698539373605 10.34886330121796
Se 9.906129259013209 9.985548317954928 8.342095656909637
Se 8.222782879990223 15.583067552778825 10.99402592445935
Se 13.799610549625049 8.446911001141268 7.713349287222304
Se 12.89233500888914 15.095628244130504 10.579240744965121
Se 14.992172729533515 15.95350832960038 10.116955640004868
Se 9.77284467051454 15.938264493814042 12.726039834348136
Se 15.735894555071685 10.253750623997005 10.747239129857238
Se 13.212077661074067 12.737971093289858 10.201423677911947
Se 10.600504552208733 9.16475921468024 10.415552698368787
Se 10.675808244236837 4.889952131456887 11.954762073249702
Se 15.972642847682042 16.477804600804266 13.230843254149868
Se 12.38784244114169 6.572409179032587 12.142787994396555
Se 13.945707981103393 16.70164854785903 14.175921234130387
Se 7.358971717986131 11.548694922898822 10.894870003017457
Se 6.7363067089857624 7.742784176788973 15.638232190515739
Se 10.37072369564035 11.036039954163366 11.864836495805141
Se 9.093822464209254 14.239751794351921 9.291022745584373
Se 16.650063379587632 13.627369868553869 11.772855018550198
Se 12.713532146105967 11.581565473070924 12.20390015806533
Se 15.623493885132968 10.584807233632588 13.349988159392089
Se 9.714739339254518 13.935744287447484 14.12039527030407
Se 12.871335116785717 7.001590165459343 14.414842849162099
Se 13.431357476217466 14.503443628406089 15.068196736229064
Se 6.882466955082131 12.77156067761249 12.802334772451127
Se 7.669888417857202 9.426502383886024 14.539202871438821
Se 11.20826706459855 14.803654594689801 15.742790595144692
Se 17.119614153642267 12.323253941948277 13.739522414460168
Se 12.520245412199031 9.196105804577526 15.209068570645236
Se 9.197028529956826 10.761921336980759 16.093514141007688
Se 5.976611453601557 11.271059025840879 14.405047036575136
Se 10.721165887529612 9.179012088831314 16.788017663604148
