43
Energy = -146.33304825 eV
Se 10.749649337742698 5.042531799757018 11.995259482334962
Se 9.143083069909382 14.980996437133355 8.351162727343374
Se 6.890351407382962 15.57597358426447 8.379582297074455
Se 10.353045581518838 8.431096676580486 14.786796984021825
Se 14.773031248910458 7.099584140082772 13.7913480364539
Se 12.824609688481864 13.71275583292126 7.757922922626557
Se 13.07505252190044 11.631324778901606 8.873922275953415
Se 11.466703563961072 8.02488100910494 6.299939472171944
Se 9.721039127802634 9.534728108723431 7.746603635294052
Se 11.666662948983651 14.450675362705743 15.416376137650829
Se 13.581964154682629 11.320202825629519 15.210825747153756
Se 8.59926533986492 8.882657937516129 16.289751822603694
Se 8.156732600767453 11.180259948256518 16.2584894870895
Se 13.502497239756385 7.46334470496571 7.661952950144979
Se 13.407476076426052 7.637849974777572 11.946513202707555
Se 8.380592069663075 14.877063824587939 12.933579277257255
Se 16.191577635034523 14.041862629780228 10.07978541970502
Se 17.548796327481817 14.817061351742858 11.785688677294424
Se 15.207796275077799 10.708544491218614 8.465677579408027
Se 8.15845347457034 7.8980335766458545 7.990823963978882
Se 9.067537829042683 5.027406688107773 10.365048588985335
Se 13.778591037176986 13.584198104657728 15.988548608863638
Se 10.386967683519513 10.720730280912454 10.794514821801767
Se 10.209801626261223 14.232786753153025 17.301797879849847
Se 11.339233584414702 13.475847881189221 5.900856241517958
Se 6.174263915211044 15.300834874410992 12.137086684898271
Se 10.29502430393078 6.153928660224576 6.126228887655934
Se 13.994050873226735 15.373906584285848 10.548299523642505
Se 9.779616995012061 12.021254628072535 17.853746100072403
Se 5.971055310339207 14.18627978822586 10.08470543169289
Se 14.93757653480903 9.044865196201128 6.764098537881312
Se 12.622011652039124 17.586580285936865 10.765893804879237
Se 13.37532116470745 11.494805052396254 12.898779270478354
Se 15.997678763759344 14.359344716355059 13.565538357798136
Se 8.023543359590887 7.151516234957136 10.269682217790942
Se 9.423645035561071 16.974134155985215 12.877051023968363
Se 12.841459661084334 5.553020640444045 10.9881114145326
Se 10.933563413978481 11.706087820735739 12.73675415370455
Se 12.24695244333873 8.269065176395955 16.2696715006104
Se 9.296648421262477 13.01206182150899 6.928250620133083
Se 13.30008644015313 6.334490172211581 15.4901958858774
Se 10.315498056836748 17.315889283498056 10.673084768377377
Se 14.481001506854929 15.991503265655865 12.830750444708416
