47
Energy = -142.33321553 eV
Se 11.136412853112454 13.906493849302166 6.599023200375059
Se 12.79337272974044 7.793668609817068 6.80200027839527
Se 13.337215544581047 10.798794086259333 6.780674108152124
Se 9.246774648795471 10.432757452182974 8.170845657112672
Se 11.709149171575211 11.906086725625437 7.890745517167649
Se 14.576398522118604 6.655483060639129 7.233458322350543
Se 12.8724690663429 14.478899405307319 8.684555765515848
Se 10.547400221051317 6.8273290152546595 8.765384697381275
Se 15.419564766801125 9.047146506768804 8.499773262875433
Se 9.338427702746422 15.004951690523185 8.532472225576008
Se 9.54417908256736 8.511748197383938 10.130984949113591
Se 8.646732890174555 12.582290378740804 9.358773878386842
Se 14.94552298443015 14.428289616150003 9.972931234800164
Se 12.68448354308595 9.520209893252128 9.474696664476541
Se 13.53424943261486 6.299422737354474 9.838734344398327
Se 11.986524653808408 17.084872256559912 10.092525337955028
Se 12.585242517352867 12.596237368601283 10.456815690045975
Se 16.71072914541445 9.973561903369754 10.546995526133871
Se 8.990915298131684 16.714683697583837 10.275311881790842
Se 14.42354546230193 17.038956133364263 10.493447776561888
Se 15.204869537310193 11.982504923021853 10.811760376234444
Se 10.70512768287698 13.783641759018604 11.401747687031968
Se 7.450716473436612 12.16577632624608 11.817395296232645
Se 11.586894023226101 9.975455398074862 11.82215129573836
Se 14.974993316478951 8.817174988320017 12.377076303845474
Se 14.907380898046283 15.314090071043742 12.860504272707251
Se 14.000251031389155 6.252939882184807 12.277046936552606
Se 7.863574932163356 7.761605227614226 11.514129120635793
Se 6.267702360204231 10.045884850821585 12.596602053362913
Se 9.085970869330145 15.73538139479256 12.635585433357694
Se 12.262164987062924 16.36004705940647 12.715214209903976
Se 9.5094225770753 10.831081820970029 12.658240903779982
Se 7.8954891393762106 13.815029390967457 13.804995276911633
Se 15.104313201106986 12.11871236790781 13.79239654796199
Se 11.580061301783203 7.400515939444375 12.772957451722743
Se 12.290266042442154 13.014573646357867 13.101535685728289
Se 12.725960904078443 9.686974086313452 14.299281298996217
Se 15.210851544177086 9.751242949252044 14.789731371487177
Se 9.410356616101277 7.580661789960264 13.91426701421802
Se 14.859555140955374 14.011821416286063 15.122338946684005
Se 10.91266445236698 17.051255594142933 14.463225379807042
Se 11.470372092669168 14.345455551618832 15.070020955772446
Se 7.352787960971226 10.588486015494887 15.219435976424464
Se 9.915637235412765 12.734191684905223 15.943798775594823
Se 6.944420181322445 12.706065751891225 16.135848288202066
Se 10.82513137682096 10.412749283204393 15.463450270668122
Se 8.945606240563542 8.446650602194094 16.31096490736783
