45
Energy = -151.85953937 eV
Se 13.075030015025606 12.293611097866298 5.350775399740521
Se 11.145684265959972 9.186755449875122 6.0943752617061735
Se 11.152194515862428 13.031420325814047 6.515397975743961
Se 9.957529725736695 10.908151074415532 7.0786859762357155
Se 14.819516007437894 11.80194729347282 6.899149677657602
Se 8.235520544311631 13.312375682835775 7.4132425690442325
Se 14.153503147120144 16.532147839425704 8.889072087524571
Se 12.820699052652326 8.27953595508995 7.687753313576234
Se 16.091906960952368 13.767457802585772 7.061483523631789
Se 5.906259612120553 9.994323915078443 10.24479349864492
Se 12.398140622102838 13.305179753659091 9.433502182351708
Se 11.97910635963125 15.535764393598276 9.645748422485541
Se 8.890561945501489 4.599170526612432 9.671345949142566
Se 10.043936812031856 8.105276136690321 10.32654501495157
Se 8.155589869232365 14.09903113583685 9.594000035728664
Se 17.285241289303354 8.288015143076509 11.738007066641542
Se 15.65570319349077 14.807681006524048 9.17392931028088
Se 9.197547319560854 11.607849050895604 11.293909145506932
Se 16.810422787656982 10.589486567554786 12.132585192481166
Se 6.560428539512594 7.786076676794448 10.738698614332
Se 7.026903730479924 11.289705989112667 11.945930587819287
Se 6.140219346318848 13.704596847687345 10.527868492841648
Se 15.691216753248963 16.49473377122648 12.282708063234404
Se 10.03302817901954 12.686043652214625 14.252329725048329
Se 12.189324259804234 9.072821076983724 9.749852136959138
Se 17.31094590720129 15.18959645171605 13.258505163285916
Se 12.155485236827449 16.851795585273486 13.585243953327186
Se 6.72458111945352 7.29162035745629 14.550884463331137
Se 10.545056422909518 5.712482657831866 10.678180725401697
Se 14.356319136717456 17.664496904437172 13.918143982432877
Se 15.530586097665271 7.568712694268248 13.172616739243418
Se 5.344732065806021 7.106049109001959 12.659432196415333
Se 12.802040922319986 12.35803835636388 11.730148435023576
Se 14.728320613772096 9.7585525169267 13.537598543904025
Se 5.944894298900973 9.211392860376604 15.747728099042286
Se 10.404697813769621 9.354839958812141 12.74073126467793
Se 7.786389719455801 12.587071318057697 15.212285905844553
Se 13.912354739545593 13.619866094474785 13.337826917387286
Se 11.379684786224855 7.277544182654913 13.669001053628344
Se 16.17273529220295 12.995943728612183 13.684172379749766
Se 11.144019081320947 16.10958411128175 15.598008352848753
Se 11.431952380703041 13.809994328355009 15.947287041757788
Se 12.95825663063169 8.415529387925883 15.008901823460208
Se 7.679812229972086 10.602060681661694 16.486961987991727
Se 11.37585472004384 10.5396046191046 14.838585817454403
