43
Energy = -146.0233173 eV
Se 13.499192182820664 10.168539625876468 6.074413197070626
Se 15.57168853930641 10.938623692765212 7.826472923775031
Se 16.545290439468747 9.25767648325393 9.51834365026038
Se 10.535180617063329 8.167513483588841 7.229714504088404
Se 12.009315884187963 11.63114109487492 6.837972244609739
Se 12.297070683476662 7.090225002268969 8.617390769667983
Se 10.937418974588725 16.715357964308424 9.06634139550174
Se 14.4375007211634 12.463978539929643 8.988239565015979
Se 10.265430455810202 10.256641564339198 8.058167918315231
Se 16.671198876508022 10.560306084499745 11.407133754499764
Se 8.913231603614747 13.796263019703789 7.978017717620881
Se 12.426361302119039 17.401520430649736 10.70161485778091
Se 16.166862095695393 15.825281212996074 11.130021922027394
Se 12.181809317928568 8.106716435893835 10.656346802548821
Se 10.018097190441216 14.473177675754927 9.796162365519688
Se 8.817157761829739 11.953318518934832 11.87498632150352
Se 14.7490255284085 14.04493213990303 11.81957393953115
Se 15.042952440201008 9.774566369456883 12.999638969258532
Se 12.517067102301116 11.522916025186033 11.533698467928456
Se 16.86842579446486 16.928341859803147 14.661140603257422
Se 10.584791130666693 6.922768468861014 12.123224882105443
Se 8.713167278978924 15.662696919452623 11.568320370883049
Se 8.981176328218051 8.429425980781655 12.609538773125703
Se 11.486023556130567 19.22381945282138 11.98484310363948
Se 10.115097978621531 18.47733944154831 13.687546730714399
Se 7.581419629660977 13.792084392047546 12.542949260491204
Se 13.548526323755778 15.258217115021672 13.549329397715844
Se 10.98642595249587 11.989519170537168 13.127035866617945
Se 17.879242731442734 15.91748416061657 12.727760032978157
Se 16.45661960317189 15.15584032723128 16.058814130634
Se 16.393922045027107 8.814559416050045 14.725908160706727
Se 11.747195116184272 17.63746544649975 15.295964855027483
Se 14.141992165932505 14.374258074230228 15.588830589208618
Se 16.69946778979941 10.505014091548091 16.29354039038481
Se 10.361135927315262 9.6455588071333 14.56163938541635
Se 9.394042654628596 14.760409853712424 16.590594859172597
Se 10.913201536720724 12.979221352914633 16.86822047949812
Se 12.220332897346958 8.463334225619153 14.481151845964014
Se 10.39842031859035 16.87161159366624 17.024921223594266
Se 13.731770950065902 13.42975255186625 19.23909357212159
Se 14.634160097660262 10.082362663961982 17.54206356982727
Se 11.44325298548061 12.912657106296718 19.18273953620064
Se 14.776749539332636 11.27597421222144 19.508989142817654
