47
Energy = -158.80106186 eV
Se 3.9474026829542583 10.312630931716587 6.685334360121563
Se 9.015851272702687 3.488122313441355 7.008729041204186
Se 10.34918303785697 2.3047385991276137 8.355547666658234
Se 11.234355703102894 11.385940797951363 10.02186155668336
Se 11.893664289259267 5.363468653662918 8.188642505916283
Se 6.26178294266766 13.281181558991433 7.414052348485972
Se 11.611796108973424 6.442235933941198 11.437710113777465
Se 8.02210252034723 13.005932972325377 9.229849054344875
Se 12.400273988193657 5.165469153027735 5.955286317841841
Se 6.857880578937103 7.444825017856343 9.94825818744848
Se 6.953760975794697 5.460676238161239 3.425069056532758
Se 9.572947810723784 5.286445464057644 11.589368222044119
Se 8.952005906276867 10.4756569651325 13.620476791653784
Se 2.684515542457929 6.810076686606788 11.96587132863962
Se 7.058178320387559 10.975258679698529 12.369701447170126
Se 11.509907784571958 7.4297181646324395 5.152844516654296
Se 4.190217116251347 4.779453179834747 5.836420140361448
Se 8.492586090430768 7.390809449318526 8.265373700364743
Se 4.416708168808079 5.355118115742615 12.56969984272114
Se 8.534387825516932 3.6416062809561818 3.3083123543091295
Se 3.636103847198571 8.592522800931382 10.681206449511206
Se 9.529835729929063 14.103124062463943 7.492368521389907
Se 4.585429826429472 10.567574605257992 2.8872612987529473
Se 5.422052315364015 5.979125101253413 14.623007986458461
Se 11.935654503253952 7.615896984029482 2.9809061945356903
Se 10.488041848137986 8.69618239074698 12.205052407097998
Se 6.630566298446654 11.732085671797398 3.0560575992706767
Se 7.429892814598276 8.747077469512476 5.277937490067085
Se 4.822139129518068 4.498971600108703 3.580883117406616
Se 11.855601873434246 11.34799075844926 6.34762698433673
Se 6.794937659861424 3.5764753630742288 8.322945346152137
Se 7.477192857526308 7.079417726514585 14.19316374884212
Se 12.670973064533891 7.756224787265466 8.590286747683407
Se 4.667876104665939 7.534755666209531 8.87831293620386
Se 10.252596052742922 13.148357517618214 11.062937642130265
Se 9.05214565112068 5.328717694295568 13.909649523284246
Se 9.751043872191179 12.66259525549597 5.759697665122322
Se 3.1890663063588294 11.274368896798759 4.636755605165138
Se 7.454554821818569 10.577020866298538 10.13714078273176
Se 13.534598671239046 8.304945057159593 6.5477922906197685
Se 8.61426144418972 9.535351775077814 7.275987655589331
Se 5.040947190642571 2.8796631880295904 7.010352579668606
Se 12.703705981161297 12.453449052820796 8.111259460529121
Se 12.272112078311237 10.139405137331506 11.923527268021902
Se 4.250153796642536 12.270999560243453 7.998897074022475
Se 8.113381719432944 2.1853333390758585 5.030320697605845
Se 8.1563020641953 9.903678705116652 3.420932564029587
