43
Energy = -145.01536545 eV
Se 12.192591980622536 11.033641761626775 5.656488601521224
Se 9.572804634866085 10.146726003255218 6.516978513710996
Se 10.68326302764255 9.318263563175549 8.505156845562103
Se 10.695149283447662 16.375093363738515 7.694291343548081
Se 12.763553852217331 10.340707811228853 7.757454197109965
Se 11.591310506496363 6.810712359014282 8.946225170946972
Se 11.431981055966382 14.142004805220505 7.82398005355986
Se 13.767064935920093 7.056841735122854 8.250681407487239
Se 7.360822992083444 9.46578479176423 7.29699226919114
Se 15.722333668259518 11.749687520475318 7.364012356954433
Se 13.374677102963124 14.10304345492829 9.191639485091885
Se 6.574498156587835 11.15749505981121 8.750547171524207
Se 10.45623602974163 8.171406989775187 11.94270311271887
Se 15.298796381818155 14.037560061405479 7.8387071976785325
Se 8.59087142694906 7.184154228148777 10.873186884948952
Se 9.300969856356199 12.420314042994416 10.272053887469955
Se 9.76617897872491 16.786099699394622 9.838230267404285
Se 15.092795466270442 9.862516816841095 10.592982491793096
Se 16.584198415571787 17.078992079345632 11.88288614706818
Se 15.11972501973983 7.549961402923658 10.165432416569303
Se 4.704231246964643 12.577518098357444 13.105327860868696
Se 16.79995976671816 10.85942292697025 9.273500910128764
Se 11.023344744121179 18.581458200313662 10.718965389017676
Se 16.22690776212016 14.962307113671477 12.4245613611769
Se 13.24899424151766 17.955927687649925 11.168279779438656
Se 7.573748262697112 10.756642538981817 10.838673534228
Se 9.01982044839649 4.910103073815968 11.636034244206956
Se 10.922359688893275 12.502463162141082 11.932889492831645
Se 11.947008761840802 4.982661283419947 14.188401528476348
Se 9.509850825091783 5.083352503426233 13.888123347923775
Se 5.818384498720476 9.029937942761142 13.796116001780913
Se 5.376148360863689 11.240109276888806 14.760818367864301
Se 14.668937446911295 9.592367370379598 14.307804404643445
Se 13.824873850792356 14.898555361651137 13.258890033143697
Se 9.463524686179031 9.72320468661809 13.494826636368819
Se 13.022397087684942 6.931628284805709 13.761814790759146
Se 10.172983300279785 14.058173348198999 13.604823697819084
Se 13.423866507409155 17.149036412454514 13.415054507213211
Se 9.129845820519648 12.774244622278307 15.278737047582073
Se 7.873421596847244 8.520960316092637 14.785337931017162
Se 13.820744487653178 11.281017681941465 15.527917812870818
Se 11.845631314265932 10.4528340521655 16.709280810134512
Se 10.71722403263816 12.459098016196517 17.037222200016988
