45
Energy = -152.29686058 eV
Se 12.106239023468145 19.562385508280112 12.704239556558866
Se 11.683483409511895 7.476049972474767 11.998700703571712
Se 14.64674736178007 12.65303504502591 14.8411417195221
Se 10.332968622890888 15.527487497547748 7.878852131675154
Se 11.525435243317677 12.402892258078216 18.51250207618861
Se 12.414266115151605 16.422808295141518 7.3614257868283515
Se 8.46273279555215 11.51230486346748 10.773556713784897
Se 9.692211009877823 15.891761386941756 10.29055928518426
Se 9.278224213593731 14.62045767307103 16.3401973020221
Se 10.334134789050898 8.819868577736212 17.94177250117533
Se 9.741345545962435 11.249057723970994 14.595404706094643
Se 8.410567032995976 8.951730383758528 16.594455176851856
Se 7.77164659418192 14.68678486487463 10.25791572675457
Se 17.44663793456634 13.299052858580254 13.832568579549648
Se 11.011004566417299 11.924921665228716 7.977958690703393
Se 16.65163010092676 9.037805971045488 12.695961314953701
Se 12.230182198821275 6.988998378645899 9.827132442308079
Se 11.45969371194509 14.004132533132818 16.73999078405502
Se 18.357453650995414 11.57018033106082 12.527682157221523
Se 15.703484789392697 18.65433641954555 12.799279276765645
Se 8.74619220396902 11.334750199173595 8.463718826311787
Se 13.594975640106155 6.64476894645245 13.324991303080791
Se 11.604847086762051 17.710573185115745 14.102587231059994
Se 8.71109602263026 7.469324344172953 14.69876124586596
Se 15.538865200951987 7.009021480634333 12.09613504842738
Se 8.708360977541027 9.029343637019691 11.081668521406609
Se 7.424545776767964 8.27267206084647 12.885721871347677
Se 12.095397484174034 10.364341309867477 17.47721878847154
Se 13.850001608501817 18.706524320573234 11.34087521788106
Se 14.016519018309808 14.6524936782584 7.345077027193265
Se 12.123102796038712 10.006590907950326 7.245092977243205
Se 16.498557192697113 10.566779860301711 10.771536240964748
Se 13.447291817989633 17.69097299369694 15.584503400579614
Se 17.464826617692903 15.235736121289682 12.651502269337751
Se 15.380700772198693 14.883857649435022 9.25268510737705
Se 13.25775416933684 9.214635408453612 9.276963196083106
Se 15.65431246183634 9.166692224722702 8.997392988409803
Se 15.308497924282895 11.693519069839791 16.752961859421454
Se 8.494459167235604 13.161037618217614 14.491874513148737
Se 15.24473650842088 16.79231948474023 14.217208141987854
Se 13.029874797848983 14.982939363750381 12.20593598957074
Se 10.89323263087317 14.17644965970794 11.657785165574928
Se 14.463600770770098 13.53124509058967 10.94895141020497
Se 11.455818788890188 11.454661304580025 12.809121628812687
Se 13.531444445184942 10.791798514634237 13.62753409032121
