44
Energy = -147.11359019 eV
Se 11.735450160282033 11.440216362780356 4.899027722723549
Se 8.656283203020063 9.837899069361217 3.9294961553261625
Se 13.676243062471048 11.27936315004825 6.023271423220303
Se 11.72844192953722 7.771823226950597 5.528131077140273
Se 7.586996807969337 12.220195164369272 5.711800797008985
Se 13.86122024816182 13.371614938257197 7.845400591132169
Se 11.92877006099421 14.505360683847586 7.129743927741577
Se 15.495520535325554 12.891249477029763 11.262190010728224
Se 15.634179278680556 9.09783430347821 10.211725816751537
Se 14.88947176391418 9.232876115980421 12.368355175784535
Se 13.8197977231267 7.316926391296441 9.544082765564902
Se 7.95079965311236 5.973897077097586 5.074524718626795
Se 10.118839653687914 9.642914019657539 5.696225539644881
Se 14.013604923692636 14.314170355161904 10.233851130099833
Se 6.02971493219627 13.209715797438882 7.138763444085514
Se 12.967376067280215 7.288922177121613 11.759282727816533
Se 14.178235136234777 11.541369742563466 12.874030940053952
Se 10.849159524508444 6.266222581227298 7.067444683813022
Se 9.577845623282354 11.948390796177199 8.863803221497687
Se 6.248215463591867 10.10891295692354 5.668129180330471
Se 10.31051453743533 14.20750750646144 8.82240007444992
Se 10.860760056493934 11.875221336295164 12.396049120003992
Se 4.2620506716385655 6.469288440706162 11.287677991671236
Se 5.084706832359597 5.25304129290085 7.27418848653484
Se 5.60723915218324 5.692637390888669 13.045721476754327
Se 7.898651700258296 5.602124671310439 12.213145163837597
Se 3.8516059458077057 8.690783139482754 6.039739814277556
Se 7.153157573995304 11.094310467774381 13.070317298151299
Se 3.7077888053806283 8.74752665279351 11.450133652567956
Se 8.556542914072963 10.063413615826699 15.102119735371208
Se 9.65612404807586 8.700956876588444 13.61216072399915
Se 12.034728087382845 8.017220612753695 14.476016345677547
Se 11.187713861551583 6.822702813428915 9.538498264657951
Se 7.362161396708442 5.480585819662991 7.497686830644923
Se 4.089333223844663 7.33579423326041 7.936533509255781
Se 8.761966004451784 12.797073672542941 12.473658663729639
Se 4.6531508112436475 11.131821300054836 7.10166450832382
Se 9.112530476682712 6.3184844699519624 14.054323217382708
Se 13.229092499385908 9.873339217148667 15.037677854634078
Se 10.289128592245476 4.757310525158299 9.85912871934623
Se 5.316572753105421 9.954810596148452 10.08873671350378
Se 6.087656830729766 5.685024808279577 3.9119935324105124
Se 5.428935098501691 11.920827442488852 11.300286486705115
Se 11.134747020986435 10.831343356913884 10.163885412608435
