46
Energy = -154.40042082 eV
Se 13.12065885969265 11.66240381519423 14.321846636520315
Se 18.208539942591113 13.822060089123509 12.90491395917673
Se 15.424647185514559 9.053247350143623 11.360132979697765
Se 15.522477923372753 8.967252191664546 13.610736850967951
Se 17.45358309081286 10.57909964728528 14.39132992969701
Se 13.16764333236662 10.57702648028639 11.293677809423507
Se 18.17474750717104 11.711104343062836 12.07492436765929
Se 12.84843678742096 8.464392678637562 7.173624155299269
Se 14.005415967701794 9.038524650745764 5.199311389182979
Se 16.620953504275903 15.38421658375935 11.915712335762596
Se 14.82073151864254 15.80722377774204 13.319100186686423
Se 14.352772010444665 12.41404937080827 12.283355135083536
Se 14.460005715638086 12.896726092768919 5.242538182887154
Se 12.67518518346537 15.907994496109989 9.989037634212783
Se 11.68448454444872 15.175495108815053 6.592702104405865
Se 9.317421600973404 11.42471887904761 4.369666719761433
Se 9.100221070826615 8.825795047135834 7.216767474570573
Se 11.26317841869424 11.263163722173937 9.936004476650487
Se 10.841868186418498 7.35083069292423 6.592787520050146
Se 13.20893441511118 11.101588853997841 4.369692180193888
Se 9.85115030001239 6.618379762581552 9.98907952073062
Se 13.426101271782668 13.700516792430886 7.216811825001234
Se 10.815263988893351 5.979393281420563 14.022112144235116
Se 8.17354622564318 10.112290393103885 12.283346100736622
Se 9.831907240317861 7.440971444689455 12.048407654773047
Se 7.705553865274686 6.719084776607481 13.319158499289806
Se 8.0663650839231 9.62962845462016 5.242499581586359
Se 4.3177667952369765 8.704234503053756 12.904947632651718
Se 5.905312989642966 7.142081293634958 11.915648274029344
Se 8.520927728818515 13.487783903604111 5.199309746574537
Se 11.263118463482575 11.263154687827026 16.418918165870025
Se 7.003847704453713 13.55911549659288 13.610713854448479
Se 10.800033240521381 14.72152426575577 15.092026387097668
Se 16.824217467006065 12.348938183412924 15.563057064761674
Se 12.701851562380707 13.420196921732606 15.890275872535616
Se 5.7021303360356725 10.17746071440666 15.563006965200984
Se 11.726330988605733 7.804803999896504 15.092029672314712
Se 9.405711118564476 10.863890776983059 14.32186388390992
Se 9.677918407359243 14.061901913539385 7.173570770521692
Se 9.358674903721212 11.9493132836256 11.293713125507097
Se 9.824414110233784 9.10616255348197 15.890293941229604
Se 7.101671050573608 13.473003712907209 11.360128873176498
Se 4.351577299351085 10.815206675199791 12.074921082442089
Se 5.072784423531454 11.94722369054117 14.391353747520704
Se 11.711031250675005 16.54695962335975 14.022118714669524
Se 12.694452060983746 15.08543238095563 12.048392049992044
