47
Energy = -160.12291589 eV
Se 13.549252927313749 13.86015711954364 4.769734499448061
Se 16.996744162613 14.621721183624754 6.399458354853374
Se 15.71699218096017 13.027701772900238 5.218787637655027
Se 10.19901112786523 17.724598457478024 7.657606102012089
Se 11.059340405946486 13.461595519291123 7.704154005129949
Se 12.389835644565334 17.89881069489454 8.334019538530187
Se 12.006421384855011 12.418789331601646 5.835429785920821
Se 15.018907022806335 7.80625216157821 10.472659210968418
Se 16.982721005875913 8.58433003911798 9.397086105659431
Se 12.619333887179074 13.117674995880927 9.483454769276422
Se 17.643615575393405 13.917417858012247 8.564214956463317
Se 8.089883621294433 12.244024574184962 10.94034513050051
Se 9.092564713213932 18.25226112538733 9.709982801867696
Se 8.461982546118879 7.793543909929168 11.898037981837582
Se 6.693726641374864 10.378603590729357 11.235778348839245
Se 17.583858185895576 10.460716474641217 10.728634356097771
Se 12.99247928124477 10.788369619590084 9.507835488522696
Se 6.6778399194144695 14.138667136669666 11.084586748741772
Se 12.249991811991126 16.723868247025933 10.536403779947918
Se 16.734651603205776 15.362787103398224 10.213435525239547
Se 9.671519709898165 6.314166678137615 13.212915943546944
Se 15.846532008295611 6.796386525882372 12.440806460357946
Se 9.98429751629818 16.2239722339428 10.590909044887992
Se 11.104872281523306 9.785872473849404 10.500497297593036
Se 7.883082746151297 9.591405326739553 13.505182462159116
Se 18.45048455884891 9.428046552629256 12.663315063814014
Se 16.46157618655477 12.826882159878497 13.004349016974178
Se 15.177487278691146 14.182370834238764 11.535426883167489
Se 6.066331862527755 14.582875184910499 13.32298710608932
Se 16.422633796276944 8.685600582669434 13.786410818774078
Se 8.819755476583707 8.313711419568685 15.54815351722152
Se 5.563805185250965 9.944399684106816 14.379414513316258
Se 11.995938555129772 7.165663192863019 12.972970938951914
Se 12.354771555771183 15.185167689642702 14.054582818696423
Se 11.643102202173084 9.440552388030287 12.811981726246323
Se 10.65770085649223 13.639660511673878 14.602846392145008
Se 7.684898462447977 16.02562135350939 14.260331253266
Se 16.93981790186083 14.146121791881553 14.90823361788691
Se 13.625584848770233 15.621918111735624 16.00145618120016
Se 12.759543253126017 8.950404763144334 16.03982750505358
Se 15.095058590595475 13.809944682966123 16.337124779011436
Se 14.846141572423656 8.11746451183349 16.240389902379235
Se 8.019917752122776 10.024601304997292 16.96245655576488
Se 5.652007827951865 9.15305137986974 16.52626018137616
Se 8.959145632312914 14.776067794580953 15.794033130785008
Se 10.356193081601877 11.41826087802345 17.38123988807737
Se 12.253657965825095 10.322931387848147 17.97926418837854
