46
Energy = -155.56570531 eV
Se 11.635201063540627 10.28335896292018 1.7322967455790017
Se 7.2796126500589295 7.445966171728995 3.990344262061133
Se 6.379105441876675 11.075074289841758 4.276247051657379
Se 11.739655899791636 7.958899012384963 4.521515989920794
Se 6.4857410751736255 6.271848336995415 5.833316498483606
Se 9.873774218241365 4.1732628583806495 5.228700517248219
Se 10.477239847570747 12.077584055542566 4.75537412126542
Se 12.129717219765421 10.352883076370494 3.9030728777315624
Se 8.179009901351986 9.563896679465136 4.63709966890665
Se 6.2143196839156705 14.131996116423188 6.418507896541779
Se 3.984182948675239 8.20858185127367 7.331808228831457
Se 14.26158441096746 8.743477056521625 7.247906147065425
Se 6.981836620007305 3.7197108506205443 7.934498816206614
Se 13.207720464226808 4.681655658107437 8.099655419775237
Se 8.61300722887069 5.256805508977435 6.819015491274921
Se 2.299835404778145 9.862883788181374 7.507403047203694
Se 5.492563403048564 11.879637154351004 6.317487511064229
Se 2.9626007012464655 6.152032626322732 7.943992682374649
Se 13.076840353333838 12.469517702806412 7.453944753274017
Se 12.18224865024796 7.661130476797856 6.820389514392829
Se 11.176381692101891 3.5600661796588438 7.4966046629446605
Se 10.736401312471665 12.163695374377621 7.0846804084135435
Se 8.069054223564613 14.320969211627219 7.8865609123699425
Se 8.800439792915244 8.059923318738132 9.061183325617378
Se 13.586776583502335 10.513450098383883 8.675400907422897
Se 12.6220646548404 2.9469104658909067 9.588606747661936
Se 4.243446099654904 5.404600668293197 9.787952965991538
Se 7.763697812524886 9.89423258964286 10.056656544130016
Se 7.362421345630482 15.321740910915251 9.915526337101364
Se 3.820941000420632 11.319148472664631 10.590825570650011
Se 9.608593824649885 11.367450312171131 10.616067575758105
Se 8.0373598450039 3.2416551457432896 9.950706893725785
Se 1.7949845345048032 10.31950139876972 9.743808837291278
Se 11.669025034720876 8.739072390650408 12.996459973005464
Se 9.656149231070694 6.519807281206882 10.704980155284249
Se 13.267590778612417 6.876310133163666 10.424312824069021
Se 5.478956544473606 8.044525104859446 12.029199190145304
Se 13.775222313095835 8.661410997571641 11.885414530227656
Se 12.237842685419462 5.255337803138888 12.031114000768335
Se 6.699799033373135 13.592705821305568 11.368759820453665
Se 8.628237907175471 12.593279560617727 12.347304903295761
Se 3.540008912828949 6.414603604456969 11.757302080470557
Se 4.2405367262777025 10.194989552412322 12.55373164311495
Se 7.846792003556565 5.1366812707096825 11.378218504824515
Se 12.156109852587623 6.639243636755559 13.966930464063324
Se 6.40918002762516 7.612297421551073 14.012923939629893
