48
Energy = -163.73549267 eV
Se 11.610536278159449 14.718410341044757 6.039083002681873
Se 12.040112818433167 12.386755306400284 5.8215611741822855
Se 6.854715263354579 9.965206069311902 5.613486587385339
Se 6.15482086829505 8.16357234445593 6.944448965971858
Se 17.087445535264855 10.660603821559235 7.738966324207725
Se 7.725919626902405 11.57966382356999 7.122737510720705
Se 9.412784766256078 15.013307990167107 6.740356063930606
Se 7.9263796295515565 6.628992419812207 7.3939001103775315
Se 13.797523407073372 15.15788294062722 8.626414750601732
Se 16.54031813395301 12.94010966874664 7.457353370264349
Se 5.037070522019731 14.176848502138581 8.19711515318816
Se 15.409930973745993 9.400518805877434 8.879601232870764
Se 5.966773570809285 12.037526157215023 8.62556075921247
Se 11.18393352721777 10.0878299884861 8.656917802184672
Se 12.880467669891033 11.563734013990834 7.877091523028748
Se 7.688467781960278 16.837397859212444 9.201809933417042
Se 9.725868099796266 11.389678461202005 9.981049707051149
Se 15.375211591294272 15.188923084403863 10.209665701697299
Se 9.60268912096563 15.511716225605465 9.123195831025855
Se 9.116128854925414 7.3712993347588665 9.245261767553707
Se 17.42823351642143 14.25751507832015 9.164035326157776
Se 7.598576248921088 6.900917642659668 11.102786194695948
Se 13.895327318742847 12.009905868506442 11.632317940299435
Se 16.65831796074437 8.202147854767675 10.494112536298491
Se 16.062175668472673 8.909393152666938 12.669445263917597
Se 12.151494765814 5.897196068612794 14.45668360840747
Se 16.83783687408093 12.679280499066765 12.658787227559946
Se 5.909925468825484 15.459183323509066 9.970091131726857
Se 13.27879389648304 15.603783676482726 13.177275865741231
Se 13.282401593453312 13.117245908331569 13.458835848326073
Se 11.166601191205446 16.23903378857844 12.411133492980698
Se 10.345980425794275 11.09524646926916 12.261587830591376
Se 17.63156523490191 10.496445432339215 13.384283323799496
Se 8.436737735718754 10.023382822559618 13.15873537971043
Se 8.863538205299553 7.664718813704213 12.886878699368937
Se 15.837630115955422 13.70527088092848 14.405642639664073
Se 8.076307436489675 14.711625750964705 14.001771638774994
Se 10.60870398199755 5.5566304259688835 16.368349412878192
Se 12.757139607057331 8.095544627843026 14.431491664647682
Se 14.816356531549317 10.635382730760826 16.024919820448076
Se 9.748660951162355 16.402434668573854 14.307458029385478
Se 11.434361028094214 12.099972964576022 16.68844778733809
Se 9.226063205974022 7.380445715316828 16.47908945405115
Se 13.52138418915689 11.681964186698677 17.731243898111945
Se 8.617455289841494 12.727301399583107 14.97845021842504
Se 9.868815579147734 10.876957776984655 18.059024579410586
Se 14.578481728360666 8.313823853932503 16.06659683133624
Se 10.384070034624786 8.63730528406713 18.234980908551492
