44
Energy = -148.68434768 eV
Se 4.435931599428245 8.958119483795219 8.648529246502903
Se 5.523588885175247 13.52047747343191 10.494974473682992
Se 3.7233173072870427 7.409112052629921 10.219073761136558
Se 5.98248720748681 6.857561801343014 7.804283309959593
Se 7.783046856320276 12.030213414751056 6.518255921796753
Se 4.0780056140376955 8.008572685647811 12.48831086428032
Se 7.477339327140639 8.45861677906935 6.872158649598457
Se 8.714753653909192 12.356403758905719 4.398799991524565
Se 8.732990365459166 7.732957802170224 4.917088335322955
Se 6.693537006796302 3.8426958433757687 9.48956674608272
Se 6.929998149948948 5.466398359818612 13.02255774310157
Se 5.807422103523099 11.742855616451747 13.684228526351287
Se 7.9820386494678965 5.355366524836405 10.904315555832177
Se 7.7404678236688325 14.04455332455408 9.726080282831322
Se 10.519427848698859 6.31625962504024 5.480422771322403
Se 5.619358846185587 11.329175178616014 11.328932581527626
Se 7.494919926123792 14.275162301404201 7.43055424654628
Se 6.340317862305402 7.735542986634948 13.180577259399383
Se 7.46628231798776 4.696870063309615 7.493463835632472
Se 9.289649582183308 8.982010698230933 8.86468499396465
Se 10.499435228850164 10.876175400022543 8.599382429559236
Se 11.60233780046365 10.284395793536822 3.233588188183293
Se 9.133916142116004 10.827673446895771 15.333677442128534
Se 11.058364609972903 5.258631535046597 10.572825597193441
Se 12.98385503967291 5.431699286755308 9.139112977288026
Se 11.099125290628196 12.358887035791284 4.246209035112154
Se 10.640241273775082 7.499642762124008 11.248077043274504
Se 13.013690566077557 10.242532674713424 8.401499144892304
Se 7.958103793670087 12.558824524289186 14.061371987351837
Se 11.05812499426926 7.51752762877437 13.611305016327048
Se 11.697416738662819 14.522690604595237 8.974501066475355
Se 11.11829358922695 11.969659033436914 11.856408761291439
Se 13.082739011060193 8.946829880681339 4.510159082715521
Se 12.053076428857402 7.897384173272174 6.358187496681396
Se 10.938340868273132 11.936761118931996 16.049760650879822
Se 11.525415398773298 15.672740643413242 10.920394294429308
Se 13.353188070438442 7.8867233537679935 13.832048368173847
Se 14.42632801711649 6.930542107386557 10.361335627603069
Se 13.294362422350824 10.98905774747527 11.73137583017005
Se 13.699825409483429 12.148132066127618 7.152549259840186
Se 11.447126738807265 14.032451764256535 12.827421871957482
Se 15.289288805146526 8.444281203799934 8.924777847377452
Se 14.06310873229695 13.954340172568468 8.589462185075242
Se 13.707946824281244 10.229100332533745 13.930579714425384
