47
Energy = -155.2906367 eV
Se 11.246773551924106 10.400088668848063 5.561886891411027
Se 13.596427620499414 13.31926418890339 5.541416023377773
Se 11.340282367325843 12.732647600898856 5.384566469597436
Se 8.750707399562094 13.231892208527222 8.39776441511227
Se 11.408517751543869 9.942345857240717 7.927866311201835
Se 13.696433930527272 13.074895640280891 7.98401686356171
Se 13.692535591342697 8.993053308713224 7.850127990573678
Se 11.522625999312305 16.375161624769206 8.041740245995655
Se 8.591807415337291 10.5790168496718 7.727803198166466
Se 9.267024020175347 15.555641177990102 8.43806458638051
Se 10.981730720394449 12.996887459515104 10.307368374402047
Se 15.87339415870854 13.327368480866385 8.818369509433866
Se 16.645727349182994 11.05036054372867 8.816529702071811
Se 11.404393370306424 6.3955636184167135 10.44998205241567
Se 14.929960085436006 9.696067999831607 9.713122783190821
Se 10.357331049497699 10.120881206606981 11.038146045522998
Se 16.257119213740076 15.955283670922062 10.99738557844907
Se 13.835834336237784 6.416379695074446 11.210938558087086
Se 13.279134031084785 15.764601751388081 9.48490725424363
Se 14.53218023188643 17.371855903959464 11.220575015646652
Se 8.191177849837628 10.177979053158461 9.981765153714854
Se 9.5628519106538 15.150601468958211 11.120093864917447
Se 7.192724479409953 8.63655237768348 13.325968111895566
Se 13.036694667174505 13.109088185257706 11.478189957584364
Se 11.161609889572903 16.406342360735326 12.146533441368042
Se 10.39554098082563 7.787965566598707 11.925983818879981
Se 14.099367968241033 16.949624273017275 13.68205427639422
Se 8.919662311672655 13.087596276298811 13.725313582414131
Se 13.191694031694917 10.88661884314234 12.440801286733937
Se 13.86959934035174 7.8742722525612825 12.951384903294738
Se 16.844362986473374 11.71355094689511 13.624645740525324
Se 12.143034841985445 17.93591714467865 14.406786423813468
Se 10.198778827848804 10.373039227582172 14.815023215500696
Se 6.714616274090575 10.068956740680152 15.011643913683654
Se 9.388838791345032 14.602633066894803 15.71107339062602
Se 10.691160483528607 8.06652937876226 15.684780013506987
Se 16.5911375096233 9.622132510212985 14.7177213040426
Se 12.302539202746551 11.291477894285485 14.706376934101675
Se 15.564577354165799 13.528015834132031 14.59995265383225
Se 6.745518404313762 12.421450697670927 14.123416458320097
Se 11.493741593445003 15.447712008412248 15.683685338365251
Se 9.113747831744028 10.6005959890948 17.817328154528752
Se 14.9114881317932 9.548657157295297 16.21904650283154
Se 11.253899976605133 10.519745978827345 18.44945533627859
Se 15.020013883805982 13.777813983982686 16.96332646809768
Se 12.221893348509077 8.474398563905217 17.35065632502844
Se 12.752422335463995 13.424110164071445 17.207050961825527
