40
Energy = -135.77212501 eV
Se 7.2401706114775175 10.440399340465271 6.878623699213036
Se 7.8078476476236105 9.11388182038831 8.53355192863347
Se 11.784606512750603 11.27149226613867 6.0734854174773005
Se 13.73332015533944 12.287161679745719 6.879225160862857
Se 14.96569281472892 10.673138430109521 8.134356357553775
Se 10.24500970070755 11.86009701160224 7.841016497906611
Se 12.97132704906274 15.211172286796524 9.66016902385988
Se 6.4851178493468025 10.15766889289208 10.60602381318044
Se 7.557113570141738 13.478630964736517 9.3136289895334
Se 5.62482834315833 11.965502840692864 9.571234829861563
Se 15.349047109241532 15.983072121434851 9.9822262884949
Se 16.487908607047807 14.395061414523363 8.90511540286248
Se 14.056674235064794 10.44717704507802 10.264573199888476
Se 11.532904478231071 16.56904031546021 10.790640612003342
Se 14.828446688388315 12.466741548574996 11.419297925247438
Se 8.487019711895382 13.858914578259581 11.381378027091523
Se 17.74974805214987 10.077299604882361 11.668421683687221
Se 19.109647591023364 11.56582121584659 12.895696305145643
Se 10.183245388817843 10.11972370256053 9.295644929857563
Se 8.213958889851117 16.205529144862375 12.067237342722303
Se 10.288618820596223 9.953913397401298 12.915027768877142
Se 13.539058611682062 7.736784415469044 12.913397098377573
Se 11.827802135241598 15.61692246374888 13.328360287260399
Se 8.64095191928519 10.053315388078628 14.55897007397386
Se 15.37633025738556 15.53599879034603 12.583974923346423
Se 11.488660481043787 13.190420372599391 13.080688047520203
Se 17.200972743969263 8.35249147853869 13.21209704606835
Se 11.559249700153027 8.102550429805612 13.982836862136148
Se 13.614387022992464 12.212523836814709 13.400119066737114
Se 9.48538867378316 16.051512485028294 14.009337820953286
Se 17.748429841838366 12.974516745786495 14.210050356811083
Se 15.222015735628757 8.891462673171722 14.308552605403548
Se 17.54950697769993 15.171891592201984 13.30802289168171
Se 11.8769683487738 16.143042734918584 16.066660038523512
Se 9.44543898000151 11.61243126030075 16.200610394413946
Se 11.313362364775722 14.522446001027545 17.629188422022082
Se 9.912282698999777 10.492372638607103 18.173887396151073
Se 12.201479602636915 9.736065450868074 18.07346029854089
Se 13.294669957202325 13.387498840365344 18.27996631252217
Se 13.327414522703044 11.440937182312 16.9298692560376
