42
Energy = -136.2024038 eV
Se 23.88670247206972 13.963429694999123 18.203674272514018
Se 10.984975643666946 16.705816741287247 20.288622261612073
Se 18.68093950782086 22.387097463513314 21.969659002373046
Se 13.268603810948589 17.43318802287085 21.060233977694825
Se 17.284038808170553 19.027274129361338 10.78602198516924
Se 24.0255015165253 12.710312944539021 20.00503083610639
Se 13.158961932448388 14.620919215126552 13.09459550742395
Se 16.65928038396952 21.19944035242288 21.9382726673548
Se 9.927500215992358 13.568719077629527 19.90942338231125
Se 19.849425367714094 17.55447246384603 23.764171668441122
Se 9.125185148621988 15.535524725904027 18.922494949772304
Se 15.354639706498945 14.671152798052427 13.764666213663803
Se 15.227833162193619 22.27357704035103 10.800903189243952
Se 14.02367268472482 21.071850383807178 12.26382222278396
Se 20.503983002368845 15.827265785221199 13.278452545406596
Se 16.894909024990714 20.886680930347215 9.599678843960637
Se 11.115484233453477 19.52607090727655 13.346492716839956
Se 12.536349147345804 16.92392306343924 13.31341859805941
Se 14.853040546533535 14.549335036931254 21.892769311766305
Se 10.4550070549892 16.301229076584313 15.038444805213123
Se 11.741711568668823 14.506095191128685 21.181970355822923
Se 21.12100561737899 19.426215791976077 23.167398172439327
Se 9.54549381620893 18.368284881087288 14.50487481063798
Se 15.930610122440955 15.850768625920045 11.82994015892694
Se 25.170970102457847 18.014847945249883 16.82980871617747
Se 23.984882563189267 16.407969010981642 14.8169607177592
Se 16.793703956930198 8.331179647658882 13.653127153418364
Se 16.43684854035156 16.08485930762387 21.45281032407571
Se 10.592656898208226 19.186423459283162 19.636805860116716
Se 17.057314434185102 10.933767660275038 16.059026540310782
Se 23.282970700958835 18.782549893991455 13.811760065048485
Se 17.806968156956298 19.12315727745103 22.876411037529312
Se -0.2738562467229767 19.881332557950923 13.58673444204482
Se 22.073024688943722 15.16884995999477 15.065642215396995
Se 15.824431214720928 17.98389854002064 22.977713030504354
Se 12.697722030784155 19.65541920556009 20.4063217082847
Se 19.905209763585695 21.378813598798907 23.730587054869247
Se 14.687713877263652 17.829692290907403 12.127392791336193
Se 16.04719697038732 10.88276065305601 14.08257183055893
Se 17.837813119434408 8.179417015232833 15.550248210005982
Se 21.6336559266009 17.216497072584733 11.887944825419309
Se 1.0561896515652396 19.24764088213408 15.599552815005625
