46
Energy = -156.86415546 eV
Se 10.84902040447824 10.03720907800425 4.089047441222913
Se 10.587318209010974 7.8363071084737435 3.2302958839614004
Se 6.65946925416046 13.30674448950245 5.355484410152053
Se 6.976922649442261 8.578632203792335 5.240020136255782
Se 12.803785345781069 7.036855175281269 3.2524006917949033
Se 11.780934196374492 9.59059735551915 6.213500440080994
Se 10.128996067353098 13.309267035779339 5.700861212063238
Se 5.855402299798237 7.662104595307199 7.111341107839069
Se 12.956045773823751 5.352965420622091 4.916827811969246
Se 7.626130193730274 14.231363675449714 8.36137560179748
Se 4.939113908639788 11.729141086397219 5.548614031913429
Se 15.370368521236696 10.721081726887087 7.571602604997563
Se 10.014539142438716 9.42668185659084 7.80130699520005
Se 15.303693271216796 6.793629092095048 7.568081643226895
Se 5.398672815678924 9.925133882239866 4.097697362103413
Se 6.347086150744165 3.8870795857277445 7.137862103038641
Se 8.31095211250166 12.25238493830874 7.146408065897766
Se 13.230949454327211 11.892731104553603 7.996324704819035
Se 13.040728332435759 6.11715056031689 7.124632379623668
Se 11.616090857348444 14.109411353615968 7.192335408700716
Se 4.824042036839658 5.600011214964241 6.5817530490745835
Se 9.144157621383663 6.6827573120005495 9.628308990297757
Se 7.017942375881991 9.770608451081783 10.18157755540003
Se 3.6975844295853078 7.835918020604444 9.969562266089266
Se 9.279752454952815 14.475101301514576 10.01418548487245
Se 14.406238726882767 12.894565565877794 9.871409819489484
Se 13.194686783045015 14.342715537508173 11.076718706968478
Se 6.336481153101323 3.9101444063305792 9.505565483135904
Se 8.369948849620489 13.952636919042805 12.219312993725792
Se 4.79382072107537 9.646613373997658 11.019446075422412
Se 5.473770582553745 5.990761859618682 12.62346847643107
Se 9.971088713029674 11.473989268763836 9.01087084038286
Se 8.529245401817729 4.474628215821867 10.179990988348665
Se 8.453277592310098 8.2413547190507 11.288428790357036
Se 3.318214683552694 6.4136979876500515 11.852488613836158
Se 9.466074506354387 12.060622811404158 12.985360406515193
Se 10.706182461281779 8.480549280401346 13.866789808749992
Se 11.55680490638871 13.208480191141435 13.557346710039587
Se 15.166627266644541 8.733944874774052 8.858732794874578
Se 13.917731539456343 10.373394764342233 13.98098144346896
Se 5.828498765749998 7.901812800744437 14.059078623740335
Se 8.603581080747778 6.751045365132381 16.41124269432057
Se 12.712148797076198 12.026044060821325 15.202673090470393
Se 9.58447888097705 8.838341271222703 15.926274851155037
Se 6.254106845711893 7.1684708445950385 16.22534794139682
Se 12.95626779842669 8.314292192097893 14.606037399745633
