43
Energy = -141.54649915 eV
Se 21.61843105452344 10.373907458634253 18.251680033488544
Se 10.906921909384025 14.22186842169449 20.599786161550604
Se 21.359095523861708 19.176211889534375 15.43607174067436
Se 16.86221570878613 20.13642976378455 19.29854095879022
Se 19.07568740225699 19.21705658593779 14.918511203090018
Se 11.97273136149776 22.03439787480603 18.552910964057
Se 22.036206656506437 15.964974059399733 17.418691552848685
Se 10.820122204453092 21.128905112605075 12.579682632772379
Se 14.048252777341364 17.51517944463963 14.176094165897487
Se 13.540019052110889 11.60349719684274 20.10621814676101
Se 12.993179676614304 21.79394823623737 12.894522167750901
Se 19.569074030356525 9.439669769097726 17.627018023138408
Se 21.159333234877952 12.719995122461757 18.659292849313047
Se 17.961965426400468 11.563318601359887 14.929311581794574
Se 19.133094417367214 21.304715782105838 21.61748775207146
Se 13.19067894587828 18.264668979098087 12.0294513893212
Se 17.04175815675743 19.10649218240338 11.214388181333524
Se 19.210350727827127 19.111850827113795 21.919894818850647
Se 17.725638661964304 18.14903452183605 20.061221580555415
Se 15.186283410113509 16.395342804224054 18.839305401875723
Se 18.669597363127952 21.266999620220624 18.18742173445225
Se 10.647551455770188 21.950794955862282 16.69756231994398
Se 14.941983468667864 19.43336716600581 15.14778420932935
Se 17.139511802185158 8.029112633038585 20.079901844728322
Se 16.557898180400993 11.845362252209702 16.81215117094948
Se 19.088172385271452 12.72200450453876 19.73224450732023
Se 17.61835669266218 13.570179069473374 18.059529741599988
Se 12.56266840809433 20.667579370155185 15.44575577377746
Se 13.699520696723171 20.52886294799096 17.48861692121019
Se 20.263302638053467 15.51005465219402 14.312134083213333
Se 20.30782346613295 13.263360969533153 14.147471811305476
Se 21.37306207707309 18.104672286297454 17.626065553268145
Se 14.964970072237076 14.08307690541184 19.44436134047705
Se 19.14156646216389 9.481574187046448 15.323315811430124
Se 10.928579070776802 18.675160310690348 12.132194174646209
Se 11.320589640287375 12.0226862756878 20.050587885380516
Se 18.271014351035603 21.28549542388568 15.872432786374862
Se 16.63309650226634 21.470524701164724 12.155433089652242
Se 15.41736388070349 18.98022143022599 9.714350583732532
Se 14.864085791824458 22.09658775695672 10.949486796324486
Se 16.72417295004094 5.890745112040836 20.355579309978285
Se 13.04718140976652 15.562732438909858 19.9709810140131
Se 19.147813125962706 16.617557059525936 12.688935414138795
