48
Energy = -161.79956429 eV
Se 10.163686961701586 10.75993992759059 5.6082192716459405
Se 14.465122456252022 11.787230923435947 6.310219372173609
Se 10.950817969287417 12.959881903556935 5.787206469801528
Se 14.587133981501465 9.729913640643723 7.240059846692561
Se 16.4594706337916 6.593766008128492 7.996294514007023
Se 8.982169305142309 10.104485917315587 7.5902907012415985
Se 12.68175192136074 13.026892556636458 7.390992807093109
Se 11.54625307930928 6.780178671859632 9.591668043521242
Se 7.007120979608325 16.326622517251142 11.371155755155335
Se 9.467017493961544 16.256607811401953 8.463992837435795
Se 12.602378633146778 10.449610064380183 9.731431168391381
Se 12.7607332326775 6.303562816655459 7.597926421976409
Se 14.672541835659992 5.0486695817864335 8.144497033544729
Se 16.92752259087584 8.879166602570464 11.081997325838636
Se 6.797581242335445 10.766301195530492 7.440517056453251
Se 14.283942679595523 14.62473663482977 10.136105712729387
Se 8.533968042127567 17.5457196156707 10.086002614160076
Se 17.61237197031842 6.937833831604251 10.063392243481013
Se 12.735627336775188 16.348144793860087 10.345278415341667
Se 7.310885281043061 8.667637678920517 11.522338244803944
Se 12.915945871339453 8.308265567019367 10.730729337218571
Se 8.66244593362684 14.771673354719884 12.927295746752423
Se 15.564239914572255 5.759281799162009 12.813597379858585
Se 8.860201578562943 13.1401344760281 9.58963391282858
Se 6.713315806513476 12.799045812312015 8.94667272417525
Se 17.26448781462828 12.453320984985934 12.904046285821492
Se 16.449381476267988 15.380052175908745 10.835979437648037
Se 11.550639706740174 11.71391289743524 11.487117792034573
Se 8.343619621534064 6.688419304757411 11.842526413362968
Se 10.256598661644048 16.654411404087195 13.364001746831256
Se 6.613981127450188 10.663715013087977 14.113552155154899
Se 12.305023286832103 15.86208994659898 12.742557627855208
Se 6.762473765105462 15.39611943992593 14.353243770767113
Se 9.697473058673975 6.7993230791916455 13.86374184777167
Se 15.591954163374574 7.955952972945902 13.038755546746641
Se 9.22778592405624 11.432135333745336 11.380290045393298
Se 16.73769706963383 14.844281638488722 13.081350347292966
Se 13.967801496666079 11.405266880526403 14.304422866137257
Se 16.408214801632283 11.495156678966431 14.80009402934696
Se 9.828980453532717 12.962120131258208 14.4971451718798
Se 6.63895115166821 13.91595983042284 16.157611810850778
Se 5.33147416020919 12.007168125851933 15.583859832959787
Se 13.834664090469298 14.462249775147704 15.207385671068186
Se 12.989689165799613 10.952154917231702 16.25202128023788
Se 8.319067137919998 7.606619474704871 15.56055612323883
Se 8.512311078427771 9.967570099535724 15.365305309133435
Se 10.218552801682025 13.83023535515473 16.60981116914658
Se 12.68756908081651 13.679098663021714 16.949746588849052
