42
Energy = -142.63989851 eV
Se 14.979809158760608 14.425258474806546 13.413640635112055
Se 9.922953621861703 13.56455350248444 11.870552048827275
Se 6.878446964242802 9.837703858751587 9.258413849850747
Se 14.599662193994563 7.640509877401422 14.721602895059222
Se 8.11222679076477 6.220580395770319 9.808979033674616
Se 11.011938781921401 10.557440430535369 9.888466305499716
Se 7.212889076315644 12.461360002503685 15.680440106138175
Se 8.37814293128483 15.340766727523926 11.567833584368868
Se 11.924451016213887 14.679192728430921 11.080971585486173
Se 8.486174385293513 6.469012712166339 13.717677700999634
Se 14.946690452412296 12.809326296466093 15.120143975194473
Se 15.143214115347272 14.240657903186964 8.409322235788565
Se 12.19932657960197 8.715185581348807 8.960624504879725
Se 11.604454235556542 9.88818214043881 15.50024541298948
Se 16.43765736840602 11.170844065403276 10.65267404075069
Se 14.44416217608771 5.37122771286729 9.508791431436135
Se 14.555885772892776 15.747715453200305 9.995450487756774
Se 9.302230811169519 7.177879038622925 11.59121787800215
Se 15.371848607860523 6.58559704243716 12.900248563044158
Se 11.10155730244061 16.81164590970426 7.495259031350574
Se 9.536722179200611 10.292381331647384 6.616977747413704
Se 6.232971464625591 7.206357539804581 13.80102347216885
Se 14.784990258856277 10.61948944843467 14.07378507341788
Se 10.167226416479533 12.279187267935203 5.780083684719732
Se 7.123672108600937 10.385244837536558 6.986060320429594
Se 8.925398706976837 16.286868938320865 6.76014720662725
Se 6.024815129921983 9.503293889734305 13.407235000724505
Se 13.52578860999605 6.0486410394615975 11.424573649482046
Se 16.81819616318157 10.430506949908946 12.844296536868818
Se 13.143661704205906 13.644654295770291 7.164727254013706
Se 5.710558023164794 10.680779222451688 15.46653568646458
Se 6.190091919975035 7.610947414331016 9.52819121181037
Se 14.14073799554266 9.671863072400908 7.997408813891989
Se 16.03621868019262 9.227991287083418 9.314831531352992
Se 10.51186715849837 9.515687163973592 13.46871625764919
Se 6.997681111142616 14.696272592637614 9.749098994919718
Se 12.880343836423352 15.466522517178191 13.111844863904675
Se 11.942436784158176 10.865715062082698 12.007943665395313
Se 8.88316381422805 11.923213131953935 17.2931009347578
Se 12.576478113561182 15.645283129065195 6.065045410041259
Se 10.946072378728303 12.073833467473522 16.191313658272108
Se 8.340242447986114 14.263683894837886 7.857561067539954
