40
Energy = -133.74023655 eV
Se 9.759052221403065 10.269864485562135 6.064011544671339
Se 8.305266876042483 9.897877750478612 8.410134075012003
Se 12.028265458613621 10.063520784247967 6.637635639295494
Se 8.826131243000374 12.232208014301547 7.9956412620396975
Se 13.014903424583188 12.05535840307861 5.92244733940624
Se 14.726387536606152 14.76392158328593 8.075102309310493
Se 12.741295517019703 13.575391803220414 7.8041028111343955
Se 15.397572647755 10.44709119785758 9.112135215004331
Se 12.654080921765406 7.978179800933798 9.994826848649312
Se 16.008388903262244 12.200167741049803 10.76145668069983
Se 6.726377216486063 9.806202328491592 10.293267111767923
Se 16.54475181652812 13.373275972423611 8.840391874754719
Se 7.657586812935469 13.552030787945153 9.626171988418063
Se 8.119173328274753 8.652878191856106 11.836782965200134
Se 13.12675143024585 17.60029129406918 11.308165484113095
Se 11.978265575828617 11.700506082516828 10.490586196283228
Se 10.950228929725784 16.920195015503502 12.197821382295688
Se 13.084754739027765 13.50395021607332 13.237296815868266
Se 12.37339450503231 6.461321606318025 11.793602817570788
Se 15.058156583554013 8.287061467882713 9.834700768776038
Se 11.03985134551101 10.626500662614905 12.285394071196045
Se 11.048088707794102 13.97003141028679 11.128952798731245
Se 14.647276039122412 17.329030645313093 13.046713616907777
Se 8.844915450595899 13.358216900547676 11.691951654931103
Se 15.874536928570276 15.339102464537454 12.870404425530074
Se 11.014968211101426 17.44160592683687 14.480307828578049
Se 7.342229145871728 8.9140306749543 14.057487291824017
Se 15.90049286807864 10.979415829280375 14.988802386216591
Se 11.571706688784229 7.465049270907558 13.7536769446007
Se 15.311947488068009 9.416904855005301 13.472263257998524
Se 11.886833548917519 11.80726795637739 14.315933231265424
Se 15.194203309779377 13.499534520600587 14.637795875492541
Se 8.743495554086527 10.236335830438035 15.445751470110736
Se 11.660218035401236 15.541100591544664 15.743689693332913
Se 7.944691634790178 12.496348292699203 15.40535459123933
Se 13.637218266224835 7.9443939502337395 15.06149411287426
Se 9.8569966024319 13.514149344810289 16.293009229259276
Se 13.057040373978085 9.408030122675354 16.629961308188417
Se 13.905600781181711 14.599850373269359 16.95153002910776
Se 12.58895356301588 12.923856080964715 17.65529528333874
