49
Energy = -165.16825512 eV
Se 14.64641747671369 23.399617508660587 20.251759181097544
Se 14.431414950284996 19.660833508093663 11.724579585048032
Se 15.846862996409904 16.384844502747153 13.645857036796654
Se 24.70716438015207 18.230734290394167 17.59253674776963
Se 20.514710353658735 11.35450825536037 12.623110170700542
Se 15.598686389332219 23.44417949609022 22.429817977366294
Se 19.72139486895029 21.84629287576148 19.977186477944823
Se 18.643067791765507 9.909346657857895 12.905664698404314
Se 13.224247133176773 20.608486606881815 13.561445576690922
Se 11.122580405605484 21.345168339136347 12.782011468749836
Se 23.35388635590191 20.82183120817284 19.93541270193946
Se 9.390172673434456 18.678343428881984 14.707400577960335
Se 12.364386680944182 13.472327460536007 16.63022001499492
Se 21.1707999441606 19.978416793255565 20.27182687131623
Se 21.738729991051436 13.232691449226923 21.220835984550455
Se 18.48494931053724 14.356789746263793 11.739666021366222
Se 23.824237976405243 20.425508992510174 17.651784232083255
Se 17.76359049823874 17.636369804766876 13.367474470704432
Se 1.1693351263381158 22.33652371160429 13.851368977641037
Se 17.94665019047756 10.118899241156774 16.641579585996677
Se 12.584061816254193 15.375302246577812 15.180373767657954
Se 22.85411415879969 16.770523337911957 17.529441319980723
Se 22.106273767626355 16.680089981272026 19.792198581565142
Se 11.631506535249072 15.526612673537592 19.611429590318306
Se 18.390820304063148 -0.5928082545368645 16.20759960718645
Se 15.842319748812042 -0.296452511710871 18.930419254925706
Se 17.11174277275852 21.660733048428835 22.673902239121247
Se 16.489527530877286 14.818643287047712 15.573239263781154
Se 16.737733366478636 12.745861928640162 14.542589810606163
Se 14.860784952179511 11.381210427989954 14.916166473799512
Se 9.86569451395497 16.494721832919716 20.613882812624063
Se 11.429026541909415 13.57784641639136 22.410380656782948
Se 10.907803027753305 15.301036908949818 13.551722154435982
Se 18.85646486587769 15.242196220192048 22.611462037209176
Se 17.343648076010478 23.36711904426876 17.735868249442728
Se 8.969062261776036 16.41466176335389 14.37662735575528
Se 9.681800787540334 14.892452055936946 22.687479431697525
Se 20.651427157715087 13.732807244287356 23.23465855092371
Se 23.318287419040086 14.946099202633295 20.898606062159423
Se 15.643853985702187 9.945820416636945 16.755521387230047
Se 9.672739337709414 19.5386385207028 12.471355302918605
Se 19.74945036231109 17.211264095017267 21.967467100468937
Se 18.98922103977925 16.57311001808883 11.514888328770635
Se 10.601981781314151 13.908038718122075 18.07143292310281
Se 0.2760670797218315 20.43842034571658 14.503853303289109
Se 19.227265685228037 22.590507404163514 22.158915910489174
Se 18.82842357361109 8.71577158816645 14.928430568372075
Se 19.902190881440614 13.427301718244392 13.507305376909112
Se 14.051025363752737 17.42323380712426 11.783590900154332
