48
Energy = -163.50899899 eV
Se 12.012356114721342 13.341723540024562 6.252185709664742
Se 10.973876645167014 18.530377875561033 7.8256152414103175
Se 11.713837565939958 17.14238634929136 5.907759183901902
Se 13.468371056453323 18.569874978024384 9.447733495702783
Se 13.144268343798206 15.487904773532899 6.675839919809052
Se 8.878399324174627 10.212272667133979 10.166488236575972
Se 11.090982352115486 12.433695844628154 8.0753265163216
Se 17.00570554836885 15.851731048268189 11.782082963608204
Se 8.264971776935093 11.965422727044915 11.505733859459655
Se 9.412279618418276 14.127423635709091 10.938603330817731
Se 9.871258792129508 17.42663252581929 9.41677682427825
Se 16.242298001476495 13.687195152657294 12.338339034773227
Se 18.228686589124106 12.440000902757133 12.833409439176489
Se 13.030560412420229 15.044846990860734 10.506662762443204
Se 10.74674888384771 9.115334558687175 11.294192975182249
Se 14.792964195906656 12.554371890888746 7.237926373557267
Se 18.71060174388409 10.976185995583439 11.068957056206163
Se 13.744476298560288 11.653804572609296 8.987830619781935
Se 12.398044280635336 17.40057612523021 10.998617088589311
Se 8.197178043844094 15.339651031919521 12.396275065542598
Se 8.154798651953783 13.831971397172387 15.153445645210093
Se 11.764819303391501 13.852595608928567 12.000416081317733
Se 17.42249536696789 16.98907098940501 13.801313352282842
Se 13.547505543425034 9.21795516668085 8.588761484155706
Se 14.263048419182164 8.315451891343674 10.597177854421084
Se 17.863503146314688 8.895826014416128 11.912112760361317
Se 11.17387588376879 11.147351914317724 14.429587660456948
Se 10.19054051369953 9.138932322856263 13.555083376892245
Se 9.50745183802481 15.683569158579443 16.219494720505313
Se 16.592617584516944 7.803214999974922 10.29890634845847
Se 13.47082540419263 10.584104226970606 14.562560225058576
Se 15.43210726373121 18.17757614223643 14.386902902363847
Se 14.343544728382534 17.030992591610012 16.07907533124802
Se 7.681453147370392 13.048004387852815 17.342838210647123
Se 12.879692673074508 15.573295643636335 14.714299489339384
Se 10.233823546516945 17.208328733033596 14.797104958153763
Se 11.284652989362671 7.04727001262605 17.733899748735404
Se 15.925814676053738 13.034645402423193 15.832540432802013
Se 18.80380708060899 11.73812517775283 16.793940597820775
Se 18.119799328630794 13.942319241761183 16.125381099122837
Se 9.319922567738294 8.040124941245786 16.800962241801823
Se 11.96087742694905 14.142427058797573 16.16965067258723
Se 13.10034568305066 7.355248231238323 16.296699196634126
Se 9.46740433912493 11.755272940658882 18.243832591750003
Se 15.432313849029512 12.49588962755595 18.027161328395966
Se 13.88511368770012 9.584623200467773 16.659196804567383
Se 17.619386297101826 11.52349513593195 18.754611416991658
Se 8.64465743654788 9.554968618626408 18.48075173544795
