43
Energy = -146.77109616 eV
Se 15.414444149497337 9.953925220361413 6.752112057741546
Se 11.423134557178793 16.630577637197113 6.655926217360565
Se 9.341640988172582 9.491549446045813 4.977148509611141
Se 13.159638469271536 9.44456268299584 6.162059286829317
Se 9.012673224817203 11.774769550408061 5.036464075865539
Se 15.379460245650092 11.87326493491297 8.049025071147877
Se 10.194279134761405 14.79790273180262 7.203038321199092
Se 6.872573082429502 11.849831067784297 6.331434610977147
Se 11.679503469220494 5.088589590493614 8.252825291131526
Se 15.187343076824423 10.764190963085763 10.29799762978523
Se 8.750794244383858 8.907166999615008 7.2213851982943895
Se 13.43983733202691 16.588324154797046 8.145658110892166
Se 6.5200086708442955 9.596631518973233 6.6574074139373485
Se 8.772516807921857 15.885236565644748 8.923742544753342
Se 17.440211584572246 11.471172655213405 11.560992702530221
Se 12.828883925917662 15.147208356337227 9.828619709440959
Se 9.483361357794104 5.269342195685023 9.088190877501669
Se 12.906495945961355 6.907646538453989 9.121889121296812
Se 9.199751012868346 11.153450658695265 11.33329047179914
Se 7.510250586059046 14.247225916241362 9.936500035347803
Se 12.12519461572514 8.938071196975498 8.220106148492254
Se 7.344335495771651 10.055459850700528 12.570540253759958
Se 9.519668416236733 4.775485475038701 11.397970748178672
Se 8.956151927195918 13.409251267945976 11.725939683918813
Se 11.48912929017277 16.285505126270003 11.445469669456886
Se 13.65875991828545 11.790814228833932 11.607742830865334
Se 11.652534997608132 7.1787067859978775 15.148508201745605
Se 16.453276046154024 12.96923371882351 12.93790533911985
Se 6.5217185712798615 11.603560299049631 14.07023855288279
Se 15.174058317855083 11.655519076137539 14.535458054443202
Se 9.029991395622762 6.854426212268928 12.433437282608185
Se 10.956898904100498 8.05366822760638 13.041701610903054
Se 7.957397419723787 11.9949819959368 15.923913777838637
Se 13.83730234306203 15.007500930100736 14.085538133507814
Se 11.23266450092813 12.234108772827927 13.762335327474126
Se 12.943619290773894 16.972131027604533 13.20651713257209
Se 16.137080108773254 11.913915814834425 16.657855560756577
Se 9.867043476059155 7.217480933137935 16.652359874771385
Se 11.802434764550721 13.98884540457546 15.078972139675919
Se 7.701672822516073 10.273891058664411 17.527624632944786
Se 9.811528781830614 9.294196186029936 17.834935116723447
Se 14.909626796621005 13.809276327454315 17.504782519135148
Se 12.710950017166116 13.191240782627231 17.404280234967533
