42
Energy = -144.21522384 eV
Se 7.113742468171457 10.764490149996597 6.390869096236284
Se 12.64666509210944 11.69989140624498 6.322682955719699
Se 12.73232866408437 13.80154368556217 5.217657048343968
Se 14.934412323504194 11.308180463306863 6.823110987201084
Se 8.19717522827101 14.44468804343152 5.606832315458482
Se 11.930419653096717 8.456849410176678 7.860321089731623
Se 6.456887188979896 13.031505343769865 6.335001714002192
Se 7.864318190171192 10.386011739712478 8.599299051230824
Se 9.983067715158073 7.292031386415871 7.190389263073763
Se 13.123612095223745 15.309404472897098 7.005038448423249
Se 9.598048849904503 14.98334725820372 7.420357772859493
Se 15.308297009307706 12.815438285862907 8.61525952670023
Se 15.408377777185896 14.900325274580773 7.493685965299902
Se 8.04069288379575 16.175170381498248 8.828029755599967
Se 11.807376162981033 9.503188910316378 9.97473500651133
Se 4.998902695935571 8.40247822330903 9.999378856206194
Se 15.412253088575357 9.220958681396958 11.421198721404785
Se 8.185549784917574 6.880201868371256 11.45671396991599
Se 5.96898527121644 10.551558317409125 9.99039746598189
Se 10.880475234402903 8.236114119666363 13.117697272461077
Se 17.26762026164345 12.643388474943336 12.024754862675023
Se 15.401477165363808 15.306630670407584 13.894895379781095
Se 5.921871289832694 7.251906493141906 11.862296061543582
Se 10.116422560069608 5.359338476934387 8.608781233093909
Se 8.116064923598664 5.148184064716606 9.741198538532382
Se 11.487485640404831 11.881693996412839 9.838275494634438
Se 10.229023592637766 12.386608045971524 11.772893839994625
Se 16.745996050928397 13.42907875406921 14.24434049036059
Se 8.64292997662176 15.566721007122027 10.989583186054483
Se 8.036384455977478 7.517401545901618 15.899247833856197
Se 13.103734945288926 14.742273060746632 13.728183401432256
Se 8.075110335094816 13.271549198242914 11.33447799969498
Se 17.412133362683697 10.318932103615237 12.13524546049297
Se 14.615676666304925 8.055429576149043 13.290222397861534
Se 10.351451681006193 6.563869891467491 15.126949285919272
Se 8.74939873813254 8.933114391794346 17.538662721727512
Se 12.19167631706912 14.767074828584507 15.9027652745497
Se 12.256785769371314 12.52041976410726 16.616677811743696
Se 12.682608763650935 9.283105898686957 14.062307396563014
Se 8.605177483677318 11.14584521146114 16.627221173870723
Se 11.781665955690316 7.20399209192372 16.67918285105448
Se 10.546895848567521 11.469244192080248 15.342360182811468
