46
Energy = -155.76531606 eV
Se 5.60908126283106 10.634408966093215 10.59452440375994
Se 6.84170192950317 2.815678800084392 8.48117156695463
Se 9.081287233603426 5.072440682954586 10.341912046572558
Se 13.465130866546994 7.230820716069604 8.299695232848888
Se 5.223702685925919 4.1039650832433905 9.3496130792266
Se 9.61813166043085 1.9080576708739025 3.0196077462129245
Se 11.799410917017362 9.243443824841828 8.242197199963154
Se 12.358245953410023 12.616657210833912 11.801023812528307
Se 12.213047778776168 10.135335406366224 5.754373052138235
Se 13.76001517178734 10.704470148336444 11.941664818130155
Se 12.666941084279541 8.626457949607524 11.759793083851363
Se 4.684954677236277 7.547383117749219 2.379534635860021
Se 10.119879922360504 5.269102726743094 4.742760105672471
Se 11.674220003047466 12.794521579612374 9.560423261447733
Se 0.6663325571401678 8.40085121374059 4.658509121026494
Se 6.2859167225130586 7.741731986902012 6.4530917964363965
Se 2.7099113671266526 6.394804252601557 3.1499752326086417
Se 1.316994431332963 7.227454988333811 6.429312377777938
Se 3.0447565426033534 5.493171925880919 5.203377499648066
Se 11.564467992518518 8.061739697207448 13.77810912145943
Se 6.098426962468117 10.389049343178613 12.941605946909528
Se 7.4855927134519895 11.614910719974784 7.030421108060832
Se 8.656636073757934 11.06371346340699 12.981286817825595
Se 2.893157078337745 8.77508046096924 7.61309882576731
Se 5.612086501115936 1.5499268632647358 6.771339942076395
Se 8.463437867138792 4.638955180831311 6.355744404637879
Se 12.002051937594123 5.535292193627291 7.816523286168935
Se 6.088032916247739 8.13740049621187 12.803446631522219
Se 10.143498356070172 9.760445604933143 4.927002643796536
Se 5.56180313112868 12.903111417419778 9.670543344287
Se 7.445415276457997 1.0601592320356779 3.3982186468325755
Se 8.961623493236559 11.883069338053383 5.25998058778
Se 9.125876546438924 5.45411321650334 12.659398322836699
Se 9.24680571572252 10.285581737093025 10.884309548804397
Se 6.242061365175592 10.76228894327033 3.6402932188963293
Se 6.432313397117047 5.548258820942338 5.579630664136054
Se 5.304179021944815 11.13564107688243 6.004815250624081
Se 4.075016386564881 12.613957084436437 7.952317136571727
Se 9.802226643905167 8.324605206961172 8.021351331533658
Se 9.265854558598788 7.803005951246098 13.11813373126126
Se 4.762536972919867 7.586992003648981 8.294879342438461
Se 7.153368832459633 0.23916421356595635 5.6170836316081525
Se 4.422874620113091 9.902803511891026 2.473722805129062
Se 9.389454778314052 4.237011248279109 2.755833307840353
Se 9.32581610490537 12.36670065218994 9.676376195479667
Se 11.274988963642345 4.345531045924103 9.75124110786899
