43
Energy = -146.64606964 eV
Se 14.675056652327731 8.818234428274195 11.51694980111682
Se 11.813974613216823 12.813050807182101 6.216331990206609
Se 10.272783474767344 13.538484278276881 4.654421033539301
Se 13.253259905403553 14.787901572003198 6.657414592893903
Se 13.486841352020638 5.784923958232016 13.497017569118272
Se 16.293198399938433 11.45600530232389 15.814834023947716
Se 6.677122068483395 9.679615074877805 9.81274977281558
Se 8.446491569798237 10.253773137745638 8.562623171657359
Se 15.177347872461167 12.260932617741151 17.994050277550798
Se 13.366283280392704 8.009549416664509 16.657490049372345
Se 15.76145398907386 16.040328751222113 11.580780378344752
Se 11.743092586868642 13.288611822894055 9.448433549289927
Se 10.385478585314022 16.89281930707202 8.197572255833718
Se 6.945583109613088 13.384254967724866 6.590748418557705
Se 8.603639127314132 14.806873141082816 5.839963913019109
Se 10.182054811723297 12.182515557850172 11.016945113614609
Se 7.759388535656339 7.4659126835240865 12.639866683888524
Se 11.859255886365153 16.604954472185085 6.302776647970118
Se 13.782079282552557 8.385322965668959 9.36764010526568
Se 15.743141666582089 12.323752293464063 12.3269210157007
Se 11.430770237716448 8.595036554583103 9.466881639773964
Se 6.050422159496052 12.690077672145291 10.213864244680753
Se 10.886209827102434 18.842442271932168 9.358139635890469
Se 17.17894106457502 14.185215009237304 12.01256582749204
Se 7.835886268871655 13.04401551917784 8.943937824484035
Se 7.307190933188017 9.721340809161507 12.159371489664903
Se 12.333206412580914 18.256297536575097 11.19348657574942
Se 14.550532403428033 12.517511476112146 14.319338571086282
Se 16.264071769762054 9.229340834607136 15.627691652363364
Se 11.393088759300797 16.305465523742612 12.072918735503103
Se 12.806466676196873 14.398229426648868 11.289653709360968
Se 10.100769305724876 7.080679063491808 12.56853501449585
Se 10.58135453960034 6.548851902566525 10.3039642091977
Se 14.48674781526312 15.453623783737413 9.68993636919006
Se 10.950262941032591 13.297905959525382 12.947656236859068
Se 10.554225911492331 10.368333788600335 15.022352737511655
Se 14.075111638489314 5.922761499797463 15.776473173121357
Se 15.308054273918819 6.679623540579886 12.275345964159118
Se 9.918005186689179 12.130743260044705 16.483251363501417
Se 9.690922721321225 8.351382277769389 15.876471792549166
Se 11.421790218590171 12.178659142707785 18.280653984619704
Se 13.288718034141136 13.55010259250918 17.67322515512087
Se 11.220488755022373 7.735308622115622 17.609518353298053
