42
Energy = -142.65724629 eV
Se 9.663220532185012 15.352602600842594 6.52308170712754
Se 8.282796974375207 13.206485728358908 6.569414749029805
Se 11.492209907837395 11.43107865158695 7.082338587104978
Se 11.643600950733763 14.73303330079419 5.746699085068494
Se 9.733511980220767 11.802704579534174 5.498354842451945
Se 15.030738625897403 13.63068561385264 7.444829523614945
Se 13.875816073546902 7.460808068404719 8.300824929961463
Se 14.85437729310253 11.341172568100657 8.060067981908503
Se 11.543489792730778 7.599626574575372 7.7510113409693995
Se 11.553420592554112 16.809911308072927 9.615086381737166
Se 16.860519598195026 10.79579955844727 9.172509745769228
Se 8.274551031367388 11.901701786896327 11.490973125423428
Se 14.128709544412347 5.514279989633716 11.755162837595902
Se 12.676986618635365 14.887115833507552 10.264657425635813
Se 7.153902605318502 11.03332404730339 9.62752637484953
Se 12.102286071993866 4.660782997592663 12.053525636253063
Se 12.397495033225514 18.53451510877976 11.11524623213771
Se 10.260890369322915 8.000736685925872 11.617889760054334
Se 14.90739986840805 14.876504114721106 9.429220547318309
Se 10.817470678234239 9.68786505032994 8.538747234098508
Se 14.133249711605059 7.798966193594991 10.568942980006094
Se 5.581438407370708 9.373528937100021 10.32175811258536
Se 16.385298455342255 10.493293514984707 11.489214063572657
Se 7.0675075451766105 13.536446703920843 12.719552118156297
Se 12.841329958698047 17.503752291551752 13.145976122910604
Se 13.183229731684985 12.092431648599858 13.068376551984024
Se 14.860347461811028 13.560910966584933 13.167615212083316
Se 9.880628093242485 15.286558845632516 13.87489299702411
Se 6.5591413347820415 8.097514999511011 12.050825794074317
Se 9.751432580495507 9.44219721220773 13.311890410482418
Se 15.105955985722447 6.783238538582178 13.734506420636746
Se 8.20771223906761 6.64982786142719 11.323102502499742
Se 10.352507243246446 7.979466960561815 15.370557192826634
Se 10.77086004663244 13.605627337678916 15.30553817882013
Se 6.07131425424325 12.460463527610006 14.56492426849152
Se 16.990299601937885 12.390585067835582 12.676981337750021
Se 10.852578302104156 17.361584936012918 14.445175015567717
Se 13.949127753646435 8.825066291545504 14.002797292919995
Se 9.238301684851818 8.780992907783242 17.144016892982492
Se 9.066993825115162 13.151374505226583 16.88169858109677
Se 7.8326797791533185 11.429490412863586 15.831384150306059
Se 12.666998871480281 8.738273181629987 15.945432764819126
