41
Energy = -139.90311317 eV
Se 10.836705469238883 12.914725968944891 6.676855955788585
Se 9.170839465207246 16.38345329313136 9.23460630305022
Se 12.579944165176196 14.261646776814132 7.638891000677791
Se 11.764893246967137 9.21707125006625 8.06664679153936
Se 9.28359825647101 12.670096154302994 8.43051410894904
Se 7.922530654800897 14.587374467859417 8.25374298336052
Se 14.615982759119852 13.160989306018244 7.645778762242033
Se 14.956577266603691 7.9151644650785595 6.589767503064836
Se 15.621311058526228 8.211823769240674 8.933108447277013
Se 11.233583617024543 7.212786550847092 7.070367718223149
Se 12.312337693304956 8.790517725429796 10.359679957401909
Se 13.482628950962011 6.18906056501524 6.768279074223918
Se 8.279758156396909 17.108371173435 11.270557710909271
Se 10.878392233135514 14.436261546751796 11.383144176949772
Se 16.478267047252537 10.379657667049738 9.088302419876694
Se 14.911933383211219 12.011755192632751 9.764634158412115
Se 14.80486260435653 16.002747802315174 11.378636129054577
Se 7.25321832859211 7.762582619597001 10.964592788306907
Se 6.792687372366481 9.920179303379395 10.234647925709895
Se 14.823025622737193 7.494579396685896 14.285063999825066
Se 13.104103656857149 16.589505946599296 12.951374824224908
Se 9.129848703179915 7.977724773215419 12.47603135778973
Se 14.749778769599047 9.597886721438499 13.160680643421268
Se 7.512469653537918 12.938231629293808 12.32615429870668
Se 15.616436576157733 14.122820302403305 12.459087690503377
Se 12.57694319577873 7.112989920243588 14.872331510262612
Se 16.358189713578877 10.964963534569662 14.204160192926103
Se 5.931014023890071 11.18342716085657 12.059891257145393
Se 10.523015981027598 9.653875968050873 11.651227974147904
Se 9.190758633205283 15.680537292753776 12.990134212811315
Se 11.398621632840987 12.969037625547434 13.046122408859636
Se 14.852475350228733 17.135983726328746 14.483589496068184
Se 9.050939779205875 12.397330839040771 14.027796727808168
Se 15.678583655320557 11.577340831626664 16.373501284609766
Se 15.76376028665624 15.016782171780692 14.803860256499874
Se 12.036712566612458 7.980242250526177 16.9943623350607
Se 8.407526795647897 14.149988199408478 15.866143608663908
Se 7.1339947476252386 15.56756081030867 14.656567963843186
Se 13.688640759345361 12.887629108215577 16.181216704149477
Se 10.942377864684168 10.055715543781854 16.60766328273514
Se 12.250062671311056 11.70891301715584 17.669616422661328
