41
Energy = -138.86604233 eV
Se 11.60911981400662 10.181215590871188 6.078820280825225
Se 9.421739209744096 9.917228009885989 5.777950382650741
Se 11.899938202624828 7.87742339385225 8.202298035018101
Se 9.678662982845 7.053016896310859 7.547147530006928
Se 14.032082529658679 15.687893553003198 9.174336370409343
Se 11.93705334289504 11.833982111043024 7.838653385004026
Se 8.21292063789275 8.033269642826292 9.062145778187098
Se 13.104965020946532 17.79053853265259 9.561493470119636
Se 14.239476295287059 12.178657391261234 7.566099641029584
Se 11.611258322744963 9.22719771962364 9.979157615207532
Se 16.33521817030267 16.201844604248706 9.803599655856
Se 9.699229408958345 15.255214615271365 10.753411768231402
Se 17.472669843938778 14.283476569578923 9.128286555577116
Se 15.445005225706003 10.561135238748316 8.832666216126555
Se 11.481458904483041 13.782986554490677 11.29074563359846
Se 14.632874055008484 18.941819093186563 12.473500611600599
Se 8.09087593308937 6.6691403941352965 10.95257014254192
Se 8.278059576029428 15.34954962222494 12.62370803830455
Se 12.527145823207167 17.81666242842902 11.853566477764138
Se 11.926147903101786 7.339563006299763 12.50790692905709
Se 17.70335755443904 12.734103801797515 10.89703612273438
Se 10.306792479503358 11.73629679763318 11.747773234103752
Se 13.647758603424942 15.209140871308486 14.514203782497907
Se 9.358684332025293 8.092313100094799 12.594333259595224
Se 11.89527135825927 6.162531776086713 14.476509245763767
Se 15.685945574367777 11.47314414460039 10.973244651330658
Se 14.52773921907373 19.772691182923747 14.53901011852459
Se 12.41456077594127 17.08273596878651 15.276864886640173
Se 16.693434492554722 10.579381688048931 14.856981030426665
Se 8.858039644979387 17.1604341565404 14.031138295076143
Se 14.63581539428678 14.42706041307393 16.517682592458687
Se 10.205739049581602 16.370288280789822 15.793521445631145
Se 8.720073846306388 7.280982833503366 14.564059941048793
Se 11.945825469671803 7.859020616365319 16.19215006179118
Se 10.654069219371028 11.214751820780132 13.976981052873764
Se 9.016313062849193 12.43974660624934 15.308428506181988
Se 14.547031444354445 9.972220228369617 14.781515242981866
Se 11.472561087066666 13.322859814826966 18.240237694722097
Se 13.506473427120921 12.514954849107463 17.261802141813302
Se 14.193459122946779 8.308931956060611 16.5619936916706
Se 9.8755576379471 11.804998123652117 17.38687248356014
