48
Energy = -164.03458263 eV
Se 13.810885796240267 9.283372872547623 5.100083811411974
Se 14.720096837284496 11.19435749651183 5.8992527720408665
Se 11.940144375820621 8.980633788211914 7.0112116939132925
Se 12.273580489718158 14.03867892793034 6.4661084383100365
Se 13.148946127787552 7.120517959915424 8.592126839621816
Se 13.579480202208673 13.04035796173428 4.801595506358623
Se 12.357570132121623 10.799710866891036 8.170044383771462
Se 8.169371129277017 14.965076061173134 9.915848682761665
Se 13.495787792046709 15.856023467268344 7.368165792150612
Se 14.380290217078723 12.201971516033254 11.078275074062544
Se 10.350876401942864 15.447722359309546 10.663636687679453
Se 14.297472018827659 8.617826079475577 9.815906286422951
Se 17.291136263489495 12.063044112431426 9.461578247339379
Se 12.165137117089914 11.649294332577076 11.642703201558035
Se 9.310980985904703 7.457713543592856 11.281520369098326
Se 16.503796542142705 8.731903143546802 8.670693689889161
Se 15.22641109677764 15.01601651552715 8.741219060291462
Se 18.480829157816665 10.923540817271244 10.93992626782341
Se 8.725988222855634 9.62261676924626 11.925788985204484
Se 14.516714534480169 14.59359484884256 10.946004486230764
Se 10.15311697966952 16.86243218009589 12.548723178710432
Se 17.278726251935346 17.41248387755985 13.598178314995963
Se 7.458144735150108 12.977957540252767 10.972539832326849
Se 18.00178007942198 8.47310700929184 10.34358209741836
Se 16.333372460583938 18.784933381182444 15.29106739277884
Se 12.516315184806892 11.958237940241322 14.029426234100512
Se 17.037397624151236 13.56315885250204 14.11705081156801
Se 7.761172654885437 8.966948516132119 14.089144983560539
Se 10.344597202050192 15.457889753439673 14.438966250991939
Se 11.543380984747712 7.0464746514396905 11.969422843274197
Se 12.655714711307565 15.294974533463028 14.960544512046273
Se 11.223441236136747 10.44205305092318 15.220268061305587
Se 5.859943859826381 13.632673222133874 12.625593770018273
Se 16.853072934313428 12.255343356556033 16.06236897410775
Se 18.310232324870626 15.539412731238192 14.560797043338276
Se 14.005399091591812 18.824330914150366 14.979602328973575
Se 11.315070207767427 6.734972297612616 14.32152582167677
Se 14.602828456162568 11.925850913600053 16.794252330663003
Se 13.112026438206101 17.134552855491343 16.36991238003787
Se 6.0937993673771205 10.441798641272952 14.64314808214803
Se 6.874808498375432 14.231274235319578 14.62055376591525
Se 10.970642278101767 13.974627278458456 19.764557040987064
Se 14.416467591641888 12.507039745093385 19.072347242675313
Se 7.304553655049965 12.19861013705206 15.940772518367451
Se 12.547733967787472 8.44766949590995 15.342873207095709
Se 9.914357684295872 14.8533915828586 17.73739344864646
Se 13.21493869773032 14.528680641814415 19.45420634093831
Se 7.7530543432637655 14.126732166997334 17.84107585751446
