45
Energy = -152.08611001 eV
Se 14.210992243837726 10.468370714197551 6.9710939435289445
Se 12.589460736604327 16.294662379928678 9.063859255464005
Se 14.038694576102973 12.81376096752172 7.123386429278176
Se 12.296201037097182 9.521996152010667 7.829283696654242
Se 10.844472822163183 13.236958070845061 7.71210722359784
Se 16.320971403263 16.024691897734133 8.18824625919043
Se 14.63661907787312 8.120584908244101 10.212673320510204
Se 12.611434760297971 9.797436616522587 10.378352349581478
Se 14.731979011042766 16.684847469895985 9.860362717386243
Se 8.127629869103464 11.473682649590677 9.617108122631809
Se 8.571741716717353 13.363830058963423 8.241022355344342
Se 11.94089097484604 13.949019457717139 9.885506932148346
Se 17.247642102225427 13.990034577911834 8.948217908021585
Se 14.132826530967069 13.026059136337436 9.6955723456329
Se 15.618182809759814 8.44560338338965 12.313057152168843
Se 11.6769476029087 7.620370765169526 11.046083340538267
Se 18.78361943547116 14.648268782664662 10.621401997363481
Se 6.422686571474048 15.312336964867306 13.274355976084767
Se 10.623381512483325 11.452075428295215 11.26967991508333
Se 12.810367097590081 17.552967102828564 14.777807184651657
Se 6.971661526369104 12.79365455055192 11.384671261379498
Se 12.66650179717608 17.66438262535058 12.53726405354106
Se 13.63052003047536 13.4882704749571 12.327531269466524
Se 12.786250641137684 7.779035681168747 14.771939970420764
Se 7.076694970019953 14.635149592007858 15.581758917652177
Se 12.436633930289794 11.54730363796655 12.897112419937768
Se 14.662616680249394 6.797492627838162 13.721005338464725
Se 9.913008105667359 14.345632386911893 13.494655359798502
Se 17.49830508517142 15.070573839649581 12.590440532621901
Se 8.519270298885042 15.970059098966829 12.475915537294126
Se 9.342685210198619 7.736704388120444 11.337033120164508
Se 5.475956531945766 11.159622988550218 12.090547729853835
Se 14.557502910297162 15.931652631801425 15.344324530358483
Se 8.91687704783226 7.80275070144225 13.668544923416741
Se 13.407176389112959 8.084896119075278 17.057529731126287
Se 6.218714689349342 10.486780526257672 14.288553747579941
Se 17.42853123490766 10.173714795316371 15.46587809642759
Se 13.342584829370136 13.964689690076419 15.522299951578844
Se 16.435151071474557 11.607028486284205 14.062441192481975
Se 18.034472039224315 13.467919881904118 14.18495556042362
Se 8.504747599368542 10.066634505933502 14.234670760644715
Se 9.284771363707726 15.290578886074101 15.611579198517747
Se 14.299871788115848 10.191013334966529 17.445065413109948
Se 13.075516976762929 13.626886115244263 17.96645385131619
Se 12.251313671906098 11.494093259791757 17.882727418405903
