40
Energy = -136.93407508 eV
Se 13.535604333288163 11.983217614248604 5.89340841470506
Se 11.83681057250219 5.343823518379494 7.937495335705262
Se 12.842008156474975 9.839773403180537 6.038310655739346
Se 9.097099696769742 9.375951293293568 6.865239092033999
Se 8.018989934091195 13.336216029838154 8.28238592568682
Se 11.267075605835826 15.390153103513548 7.946021776510221
Se 9.5198375022579 5.813868974840451 8.10325527119004
Se 9.064681753727704 7.082904829248529 6.1859537972206855
Se 10.09919375168122 13.795105708736681 9.266357311348536
Se 15.549491273749158 11.774378342242906 7.641629586361245
Se 13.016156103471669 6.949435952074166 9.218240958310243
Se 6.2900529440404656 14.724252101664776 9.092410502658176
Se 14.39170492121125 12.910268127169171 9.749301235424674
Se 11.206537400182459 9.683252982016054 7.8200986595904745
Se 11.619089463996268 17.28884460250171 9.28008229618594
Se 6.993156563972834 10.290708230866068 11.971133427127079
Se 13.01820012823337 16.52782336197374 12.782918188123553
Se 15.50210450634946 9.639657391709582 8.174731401852222
Se 9.078706525231942 9.26052048629268 11.189481297383416
Se 12.251262885707066 5.94978952530316 12.91920659414027
Se 14.089978195466012 11.059494389626462 11.019953358002482
Se 16.22543214959825 12.58202448484889 13.738940881466862
Se 14.284925786133192 12.776652404338726 15.080683349221582
Se 5.972140321036589 13.960298105162813 11.312382043306455
Se 13.54963020042688 16.60697825190188 10.510490324896372
Se 11.584634351365672 14.64364713085734 13.175990462018135
Se 6.276654580439859 15.889441225030197 12.644099372830375
Se 8.458670533122538 16.724126465376436 12.550595990833614
Se 13.79506169521323 5.810000710081874 11.138929826289603
Se 13.014033368530159 7.672516007572478 14.35267018534648
Se 16.038328952247102 10.668845806503786 12.405591330899162
Se 14.50443801919939 11.618008046436282 17.115872765618324
Se 10.839297118887748 10.256100689140375 12.287289546139881
Se 13.535618393805319 9.463083914237842 16.817948905647405
Se 5.990152799975053 8.647804696531837 13.17687018410773
Se 9.805546627559417 15.723997221439394 14.247547192661143
Se 6.907586759707535 8.99948821636346 15.499874223574743
Se 10.693620514983069 8.933505315989763 14.415420517458783
Se 8.531128975046517 10.54897203023146 15.141322514663782
Se 11.208268102074866 9.957980776828741 16.51277676531334
