44
Energy = -149.48788164 eV
Se 6.606708816132671 9.676993761652858 3.5532817231634786
Se 8.017845268869898 6.799277313165054 5.185985400893599
Se 11.918551513844585 5.076422594696758 6.877304525116073
Se 11.625228198599102 7.409568175684123 6.663832905204809
Se 4.564693878286377 7.859386890843232 6.081656068004439
Se 7.1796803017806585 11.867203784450167 3.432166411268585
Se 12.598343020391429 12.202496650712845 5.36748759695934
Se 4.587444023830146 9.894958845281446 4.920297048011599
Se 13.570648548531771 10.817632529423182 7.016778071847673
Se 6.779730310489968 7.675719172766544 6.977070903375079
Se 9.732392035158226 4.3281522708129225 7.397871958911393
Se 9.977833435071378 14.004796756440074 7.66863394448701
Se 8.023982796182187 14.321531015311404 6.357835491109118
Se 4.275083094406073 6.944051787357155 12.549968316103255
Se 11.903897857522711 14.236423460320148 6.32686539327408
Se 8.330582430424027 4.463634420914534 5.5032970424799705
Se 5.602863886328306 12.42611505810262 8.384286220303364
Se 10.248164378675597 7.663329642307338 8.646919540489527
Se 4.143720093413851 9.065515787584092 9.370667233275489
Se 10.304788933881861 9.98373621669945 9.004556646077123
Se 15.600647859475595 11.906386400275997 7.672191390285524
Se 6.912687181510019 12.253056019889188 6.180490929312921
Se 15.618350466763557 12.078739516762091 10.006501767441671
Se 12.305179265652109 10.62055031326098 10.078662986434493
Se 7.169061214494432 6.228193384505279 12.316355909197247
Se 13.888603782252696 5.499921542845165 13.443870106758272
Se 14.896728236698186 14.217304212716657 10.808061754931572
Se 9.478451531178424 13.37300919278531 11.083733300669175
Se 10.728122769089543 5.281077576973609 11.44707437871134
Se 8.165474225269067 7.956921538279312 11.356150543451873
Se 11.199440409585902 14.871940690749945 11.649945209970003
Se 4.1565632998719435 9.049913271392471 11.796779595328493
Se 6.090687234107351 10.439349347091534 9.4378755956467
Se 11.876059098943578 9.95396499249083 12.363323342760605
Se 14.549192232584433 7.301195700419071 12.023071334571853
Se 13.228081186851949 13.883549283959105 12.425753466109636
Se 8.836217994728475 4.088374069834535 11.743224952789442
Se 7.967472509767331 13.449179480920478 12.954502970296708
Se 11.582847439856165 5.710355944285557 13.70243436923614
Se 8.067487221272815 6.538886310576653 14.839350561048814
Se 7.080439418884774 11.31751786412788 13.334198909080166
Se 8.020586295193194 10.288153097318906 15.248444711945119
Se 14.031604109111907 9.342861130196264 13.066840135789324
Se 9.323962656410359 8.398783445191079 14.500529799251446
