42
Energy = -142.77253576 eV
Se 9.704999933182108 11.749605998392674 6.377428079132979
Se 13.418576416208529 11.560804000242287 6.216828551299542
Se 11.602896666406597 10.383432806500311 6.913786001544592
Se 9.667029240847345 6.878612183258365 10.85600847359163
Se 11.628426345147693 14.767370781686582 7.454575674385314
Se 13.498797533542549 13.116956869080733 8.394405710274123
Se 9.874183100697206 13.440567540423313 8.077086690427679
Se 7.099330312531112 11.432497923532006 9.373149658534649
Se 8.01955649373361 8.336883798334128 11.283186745826134
Se 15.02862617562161 8.927715503909246 10.925953147250295
Se 12.330076810435296 11.889540845108467 9.81458228426544
Se 6.446032980832709 14.959715181294051 10.566113047631564
Se 15.785979812685495 14.47643297428585 11.956625659936355
Se 12.80527216699693 8.515459732627386 11.603260210311579
Se 11.245429124494544 16.417246568344474 11.068615933513346
Se 8.880421586076208 10.625732935977577 10.622783243598859
Se 5.676747264905726 12.742227431718074 10.772263396716976
Se 15.229548908575815 11.302256438672034 11.136395772462702
Se 18.829644993182363 12.25529408965426 11.629182237842748
Se 17.870775814231266 14.74112013663402 11.213906082566309
Se 9.99793995809473 14.700449097414007 11.97929178535978
Se 17.006735182193495 11.553399611308372 12.774747559070395
Se 7.76556790776303 15.410655755999194 12.46130383022164
Se 11.809154146168774 17.89317767070866 12.953328284800582
Se 11.633634990337102 11.792330264472694 14.478331065279113
Se 8.349296481066148 8.338248081162467 13.758826166520654
Se 15.200804589249378 15.929726934162058 16.340226537919808
Se 12.672158494429699 8.036714466207282 13.91321329709894
Se 13.490459706435784 15.054471617392386 14.92358626527614
Se 6.918031602635649 9.792967621022614 14.845061223297094
Se 20.241638278686978 14.70655789032011 14.349625423905273
Se 19.13141769264439 16.13745180147162 12.916487820387932
Se 15.888462632690121 12.334845258192443 16.07634438242067
Se 7.930624119311376 11.971588934071825 14.75547661083756
Se 11.65791656316108 16.554831889266495 14.833522820572439
Se 18.168739146365983 12.357475550018524 16.56486073961649
Se 14.594909582942213 15.20533947612011 18.43014923665872
Se 13.09254119806021 10.067393009449773 15.087292407253605
Se 19.0676461005351 14.548387139013515 16.405204037519493
Se 9.857188439565977 11.986441465879071 16.07507431319067
Se 15.036400266395857 12.626039556483825 18.428911950757463
Se 13.03274600569216 11.66839793494748 18.579362405682833
