44
Energy = -148.10072439 eV
Se 20.700004745265435 10.410269207987062 10.526139095102158
Se 15.259895146429407 19.388283670323084 21.77983999112989
Se 14.552477383624543 14.334276269269713 7.171898382793312
Se 12.228903020128397 13.836999278495671 7.592046846690962
Se 19.22392185740616 19.75646832381669 18.06348336693242
Se 13.65619581245473 16.013506330643057 12.619648024089889
Se 15.061219162258677 17.69586506167038 11.485763615314493
Se 14.895437084176695 14.795180954884446 20.121874217943287
Se 19.592990191925875 10.220778138270326 12.446032158530757
Se 14.748216465316835 21.592194209981024 18.81595864243628
Se 14.190781806398608 20.949191728818477 15.14615222238096
Se 13.71599180329877 19.862774657401797 20.057070066629684
Se 19.4522647151976 10.782094429017329 19.369129502612644
Se 15.305739311356492 15.120919879323978 9.156287163014394
Se 21.242554437845797 20.545898018452956 15.10629199208395
Se 15.634632205095842 20.433133084087533 16.956925042923622
Se 19.7808290855356 17.60032509579769 17.61309977491383
Se 16.910151026428778 17.955572460228726 20.875746534813153
Se 19.07409604093965 20.97900943014519 15.988608782101942
Se 11.719324000504347 12.64039704615005 17.973697636830018
Se 10.323494332435635 13.675407531311539 10.6761530485283
Se 22.33146748083742 17.738352739619124 17.420881400200997
Se 18.096612088993425 12.422912241813322 14.914502079028493
Se 20.128537619353096 12.176140526552771 13.858515432336263
Se 21.532413973856666 11.653562570401636 16.610497436013116
Se 16.499375253626486 15.743609369590121 21.580160280698795
Se 11.987687406644204 17.746065609402248 15.517012499866194
Se 16.48624149584472 12.083158956006319 17.926631004292062
Se 12.05326607618017 20.101468345559656 15.634225628883543
Se 22.897638660094188 19.697880512975708 18.34641159221322
Se 10.630847599796649 11.436766166228422 11.541457604353518
Se 11.093536857781544 15.852129408297662 19.805249943299852
Se 18.912738896661924 12.18821195200388 17.346146676364487
Se 21.46137606316122 10.129971583461964 18.3364064032727
Se 10.659849592859386 17.85281276524141 18.89580342631503
Se 12.99434748569079 13.609971775996126 16.18034898214794
Se 10.012262268417624 14.158266612519524 18.418801986392186
Se 11.737745514693176 13.556682894909537 14.219418142672838
Se 12.478951080066848 11.638180280720844 12.929023101384692
Se 12.413356491030203 14.473450675394984 9.90728901757329
Se 16.77431097121072 18.154034134427057 12.857013791067859
Se 11.698446005650487 17.158505785459102 13.235017069884549
Se 22.821785768203174 21.43020572827494 16.514487555992577
Se 15.843517929347218 14.351646711491696 18.009737837547554
