49
Energy = -168.04874791 eV
Se 16.010373078791034 11.907610298752688 6.4933537895241695
Se 10.82522022315562 11.149353805659823 6.854172119195456
Se 11.761131240296455 12.47359278574968 5.159294507507181
Se 12.121624691960584 14.70848093174076 5.858270868788827
Se 6.591241488860171 13.982007463501906 8.57919793609248
Se 8.448674046710101 11.140393630242235 6.6690468451311125
Se 15.866118343631742 14.258470369308501 6.671348648634674
Se 13.718945163015228 14.618125349046473 7.596006232894388
Se 18.878606795308542 8.45687165248727 8.660169269038422
Se 11.246869214239746 16.440148834358062 9.149431483549744
Se 16.214305034742544 6.0134945081097 9.969827654946945
Se 8.95503741527807 17.044104977060552 9.0441030629246
Se 7.520926224043705 11.804229955988093 8.718508444614635
Se 7.675717655449402 15.393898717980376 10.131750958587086
Se 18.220804573113984 7.159788900590231 10.516083341236966
Se 12.733189847907163 11.649701605077334 10.00485549296765
Se 12.032934622961028 9.679213739232967 11.154755487256145
Se 18.500666996180122 10.715446801933979 9.211448806885134
Se 14.384870204795977 6.610922984776435 11.323675795986222
Se 12.721799261165915 7.723217101055418 10.034868751643849
Se 16.21631277882771 11.07646526277601 8.69307793417146
Se 14.503594045303782 12.698016661918711 11.133578004010822
Se 11.456021669963617 14.689030373473521 12.386934278108948
Se 15.473509357542172 16.193914380462463 15.781812804495834
Se 11.831625227995675 16.82729021921404 11.402520639537094
Se 13.971832533700823 9.785431739102451 14.509095644018455
Se 9.15594996671303 8.865614681498732 13.273884200011366
Se 10.160880546608178 11.399519165742031 14.68472274160197
Se 8.017904436425798 12.306722501729906 13.8975642640479
Se 8.260254971409449 16.171091233053875 14.457595402614437
Se 13.477697164478178 13.747688554614003 13.06063188828652
Se 8.583767604064274 19.03087240485166 13.89937715422359
Se 17.232038416690564 13.206677926661605 14.15144000334718
Se 14.186551080941145 7.652800490626748 15.496962016978395
Se 9.821291698241263 10.433897991693598 16.6684368956426
Se 15.5219037520267 16.038089165755466 18.126526784361292
Se 8.878809739412748 8.058436454252755 15.336660716172283
Se 17.57768414897492 15.321428119223269 15.129673761082085
Se 14.664077229382176 11.359153262083872 16.136411142436703
Se 7.472698323855644 14.044476175147455 15.34439802445492
Se 14.677967319280905 13.904523232971798 18.754426188433303
Se 12.620030280120528 14.185128309508539 19.859719507648517
Se 16.999174719222296 11.61949369949303 15.892734922003818
Se 10.342548318349962 16.25547236781828 15.658808138550594
Se 12.382651748135297 7.383778682082055 17.007468824213568
Se 10.789947784596738 13.73965287460859 18.405921810593654
Se 10.62260554198553 18.58171692978515 14.76759135337491
Se 10.625373709315422 6.376329020307036 15.86769593261103
Se 9.695488575428417 15.767462517490713 18.06340833616154
