43
Energy = -146.41527812 eV
Se 11.77011029296907 9.700664943688112 7.86384352606603
Se 11.150051724213256 14.705599165258661 6.619291062370374
Se 13.452465287261031 14.4876069399085 6.131490000667902
Se 10.108416453718164 12.647221691198745 6.179759567454006
Se 11.51245361974267 18.012215334279322 9.535459287167473
Se 13.931696818152295 10.753994999883009 8.592093764165389
Se 10.17877715699176 11.349620962335178 8.190621281975627
Se 14.517631497430168 14.236694130390145 8.231137801372082
Se 14.974840515601771 16.498227032404156 8.856427182712793
Se 15.2310609815842 8.9872154218242 7.739963788214008
Se 10.370591351121506 8.696487067022145 11.38968888203865
Se 12.968763200412141 14.008282074191348 12.250487671386942
Se 11.298968898817167 6.6428284097189625 11.542016085206456
Se 9.198401495957773 14.94398863327307 9.906317805126582
Se 16.400875979898842 11.865566737694454 9.997862904793882
Se 13.544760807199763 17.18836838764978 10.569149656173382
Se 5.915557780682383 14.145226048666654 11.684068409720972
Se 15.661755168899997 7.49711918010251 9.495736867347695
Se 13.124342330162593 10.110336145278255 11.911390032526516
Se 9.833475234230146 17.097016148919884 10.842886166570443
Se 6.871520601503709 15.1674456310678 9.778378447273997
Se 9.607400789441332 14.838737156463901 14.00435524352242
Se 10.703108709581675 16.865247651012005 14.142623900393232
Se 13.49958242025553 6.643079202942766 13.538709983411414
Se 14.337767870160716 14.605014767745846 14.174124295249309
Se 8.767176527033216 8.806711845635329 13.290288538451337
Se 12.994944347837366 14.468206453302319 16.034347025637107
Se 17.528758086209788 8.523717919581422 10.623808596408583
Se 11.844337475821135 12.027172815656025 12.716319607901925
Se 5.9848829319872365 15.80668791880178 13.368236809601456
Se 15.742801552663794 11.461480094855583 12.093192175965703
Se 15.560544354570995 6.469515231397282 14.951258523450608
Se 13.106935503459113 8.903007516270804 14.011445932773663
Se 11.649764942966213 16.567083013359653 16.503029721919503
Se 7.474793857941149 15.000741811859802 15.017858650205428
Se 16.71693254204731 9.157722977956642 12.659849132175559
Se 9.163371595158205 10.480297998618232 14.834430843874296
Se 14.696392930642373 7.118218268142866 17.034454492974085
Se 10.297407564719858 9.330662415307913 16.662445316934615
Se 10.10969411967315 15.558011168369381 17.756274452770974
Se 13.79396375748989 10.92507492491279 16.566682658051647
Se 11.683774509375667 10.8912207818821 17.685985878727564
Se 15.263978970393298 9.355495537150194 17.567040585247273
