44
Energy = -150.1297576 eV
Se 16.121319985643986 13.719571136353029 13.415688879010288
Se 13.060874206424486 14.346856562238855 11.213723621719605
Se 15.01995565749057 15.371262394353238 12.26935684216722
Se 14.95298873742524 15.02770713262901 7.237939274006793
Se 13.353546521185422 13.920703727906403 6.148611871519988
Se 11.135733308578692 15.161740861631555 6.306675969183418
Se 12.78750708716863 16.073394592853422 9.617460720940608
Se 12.815988116519799 11.900743126172475 7.800226014571531
Se 9.128595132893787 14.398777459658616 9.570577429631074
Se 8.653211794480795 6.680792645360263 8.976493617751402
Se 16.40769845794129 11.109948041062887 7.753764613209033
Se 9.491221130052612 13.858928554359812 7.208226070273333
Se 12.210465544144231 10.181079725730328 13.154402035372446
Se 10.086021740914829 8.250190279202535 7.983222147910372
Se 11.780723590586186 8.823865757884588 9.541158961599768
Se 13.454463878162084 7.150124002698637 9.453600489396134
Se 15.545950669207866 9.104272906157448 11.745189908464088
Se 14.161999062956033 8.911503374305068 13.659775538179849
Se 14.677068518679052 12.192460331027338 9.080703691023167
Se 17.444223100218 10.361917739980592 12.470733639142995
Se 14.9435440233507 7.5854962481202985 7.674518995617181
Se 17.388456965639367 12.560005170551978 11.684616377188505
Se 16.690752099528464 8.927140785422615 8.563509991468626
Se 11.094418963781012 17.417759353361618 10.586060413271865
Se 9.061340518343847 16.727847826134514 9.507113606465925
Se 6.1392407618167875 12.60350502231953 12.501725417487565
Se 8.666847421387386 9.92487908732395 12.721669686991977
Se 14.96155214392813 11.335259989965412 16.638331110226368
Se 12.9536582653546 10.022375759769549 17.34059252069095
Se 7.620966720161743 14.630248822537006 12.65757179996354
Se 6.725102080643694 11.300259796853185 14.207284629546459
Se 7.388374445695832 7.687062078551889 12.373267006594727
Se 6.917125152844912 7.8561414304175265 10.153019987729493
Se 8.370832472995112 10.997091930746235 10.818175780636006
Se 9.595833111581092 10.554535991211056 17.035424818983227
Se 11.614742912784704 11.847948525173198 16.58165483914398
Se 10.56605918048756 8.548591533713449 17.52082651589471
Se 12.151311087199312 15.365054378080268 18.087348374208663
Se 9.552513233307375 13.682437357572118 13.525698454265367
Se 12.442775674253577 12.302307799475019 14.064500347974072
Se 15.200214190913615 13.16775659689305 18.075237128822728
Se 14.300659537793123 15.092527330952485 17.04526033537408
Se 9.263054906049442 13.871782422639688 15.909542771015976
Se 10.501535889485478 15.846612589344444 16.51998557667048
