40
Energy = -134.59713061 eV
Se 11.0770839861537 13.398659087271835 6.1385758543766595
Se 12.205496578414335 11.01651197889506 6.372757212207243
Se 10.982287424395139 9.163520454021569 6.673723535392321
Se 15.238409353414788 11.439821467743768 8.270328681945646
Se 17.092529681802965 12.909367243332266 8.607274447331358
Se 13.029438684616844 14.457004853836231 6.372240297064863
Se 7.680710881907242 10.709450240456908 8.074350024529526
Se 15.945338315934052 9.190768749618965 8.706365272462174
Se 9.87646103894496 13.743932835614558 8.308731109648615
Se 11.932839940378122 8.276085074236375 9.489312237689727
Se 12.076653371929678 10.85894435117641 10.079900916645755
Se 7.716516723145392 13.090346529735411 7.790184792974079
Se 16.571917548183357 14.147674226258411 10.558204577055772
Se 13.976696998508139 12.324784640621342 11.010102511886132
Se 15.262462363295445 16.269348195139393 9.979885057107767
Se 7.894635878791746 10.222322662421766 10.325241931806026
Se 11.673037446670754 7.4296483117167735 11.65101193361804
Se 8.573534095844272 13.39684429054023 11.778915500176597
Se 12.931501964923932 12.229762278935358 13.163288264174435
Se 5.579235104063494 9.820822641696012 11.303895216146078
Se 16.69890607293026 8.810635915902992 10.889150796582516
Se 10.968182185321517 10.899052852971602 12.099972488281425
Se 5.858999752837497 8.107931119671962 12.706089695990322
Se 17.257109265652307 12.89855592272545 13.037974983021215
Se 9.404613104798235 15.27294330424205 12.911546400750304
Se 13.592965751195464 15.88737272744426 11.539368399909714
Se 6.1754517627643475 13.58231556833072 11.534963526660572
Se 5.439347140509082 11.851616604660478 12.863513893694426
Se 14.98900619005575 8.771985093004174 12.542802082054298
Se 15.326034691720949 13.41935070758838 14.099997891425335
Se 13.838958927963242 6.718082167931191 12.322005347747941
Se 14.59174216991272 15.779893394204215 13.642448763754599
Se 10.921131230288472 7.734612823035973 15.631549939582118
Se 9.911231751472585 13.064458468765123 16.049021118756748
Se 8.943123426897612 15.04334575673169 15.235868065505892
Se 8.005211152048178 11.732601785686416 16.516008247612774
Se 13.623731895490124 10.266276172595054 15.208708780448996
Se 7.806362598344076 9.923980928987936 14.988538091592115
Se 12.124428297183732 9.513473811926893 16.7589288481199
Se 8.711863416529157 8.131082925558731 16.2724414295033
