49
Energy = -165.82154092 eV
Se 12.661214630101897 8.996575654383605 6.7057545465635435
Se 14.758212987437945 14.856794461802615 7.332317700816783
Se 11.145325058561674 10.67426087048851 6.461939816003132
Se 13.355240107191044 13.096227399956243 6.640248230611137
Se 13.403954753949563 16.792687312528326 7.386936018768657
Se 8.201529629641565 8.267499923408879 8.73165170382265
Se 18.675589358166516 12.588506745727628 9.964016096909429
Se 8.265573327085908 13.953915701574587 8.976287206377618
Se 11.75557461750725 7.373698199580721 8.257156280706782
Se 12.199458672242598 8.12797392075481 10.404382183552425
Se 12.334103464521403 16.793918171488507 9.523451972447262
Se 17.170699606233462 10.628237098922103 9.225593108941466
Se 8.568440634510177 16.17876477365664 9.588761523775718
Se 6.376039008807323 9.392929323080843 9.632485039652616
Se 6.059976797473517 13.452090466982595 9.529024984472606
Se 16.880442127296423 17.232909794468327 11.700163593833317
Se 7.70110132415663 5.924913909705724 9.213784094711599
Se 9.186022714910088 5.286984237296235 10.80896957852878
Se 13.838209594104605 12.843944711146689 10.370101991424171
Se 12.200776401704589 12.464458942966969 8.665518454852691
Se 17.542565790190743 13.717492918312331 11.626005877165248
Se 6.650089836533904 9.389812600712526 12.062807088032654
Se 10.18312008112676 9.320387017146611 11.166795735831442
Se 6.2075643864262915 7.011167945886063 12.4615940680499
Se 8.14304024892768 5.955729393315084 12.997225679039609
Se 8.586558488191214 15.9264211507908 12.087772651379504
Se 11.987378782229124 15.20020402746201 13.745479373651456
Se 13.164000401312478 18.502537548583827 10.830775295482631
Se 14.884319727885744 17.72540388034682 12.569386175541835
Se 15.089161561424435 10.875169374167978 10.57055615845022
Se 15.416600532370953 9.194989783518796 13.538797606045403
Se 17.699746596981083 8.695025445815794 10.215806722834179
Se 12.43419070487112 7.141031189728954 14.29364500169975
Se 6.355226743495746 12.938143208629771 11.960448369397414
Se 7.685802695846148 9.918866951636538 14.730913695866267
Se 8.5729569174834 13.613526308758617 12.249601206923245
Se 11.212481559077046 10.406815518972422 12.960070762429707
Se 18.463239427540632 13.423469691059617 13.817133618180659
Se 14.205372649007291 15.364252450119112 13.070474723688758
Se 18.009794777729915 11.330922450133393 14.779319518970636
Se 14.610813111294975 7.5797321828317115 15.090224920022877
Se 6.306078720260476 11.350802485360035 15.857617398552089
Se 10.96840901002765 8.917771736691721 14.824371206158427
Se 15.65264547465702 11.117264243788323 14.92106565834924
Se 11.790712826917678 15.5655930905745 16.08965647335621
Se 7.559785939662846 13.31358622095479 16.473893322391017
Se 12.528336873973625 13.690323419217446 17.29953568934183
Se 10.965393494938702 11.933006961275861 17.023808833766623
Se 8.99125524051558 12.557386600792503 18.170800459132714
