5
Energy = -14.95146166 eV
Se 10.792095166444621 10.75720755867015 8.270032151992751
Se 7.535418924104876 7.39003966776073 11.945868500156028
Se 5.993151091230802 8.836241909952856 11.358520466058147
Se 12.01232983837692 10.102870740042581 6.5235924852606635
Se 11.91554193394313 11.162177077673487 10.150523350632758
