5
Energy = -16.75334176 eV
Se 9.057182677817986 7.412814044494033 9.880738857422143
Se 7.288370328919908 8.86242966322278 9.719881917023523
Se 10.020442643155022 7.647041750914103 7.579421768618351
Se 6.461178254991596 8.255704762524882 7.5518158081650055
Se 8.50398982423105 9.131009105772781 6.682145511287831
