5
Energy = -15.74860155 eV
Se 9.322697981690313 8.408633541765312 6.79841202239777
Se 10.996452803365232 9.100897122433762 8.38263679851555
Se 7.661794492612881 7.453794920829868 8.273153946587469
Se 12.79706345028614 7.790810271203133 8.183128307969053
Se 7.185926775196502 8.897088750613948 9.912180785842247
