54
Energy = -182.35650917 eV
Se 8.42536295349244 12.971279570221254 6.328990591015932
Se 16.0158982804112 12.737116249760994 6.701828206947278
Se 14.095835363491117 11.411744803733757 6.507376790639582
Se 11.072147080959166 7.868940949896293 9.545439722443628
Se 14.848662485130193 9.092560636050877 6.548134327655707
Se 10.184844697152062 14.034042578035123 7.521251944200357
Se 16.550431146520015 8.826201455478081 8.091266199482599
Se 8.722880913799802 17.230730613511778 9.146961645329803
Se 12.081417982169986 17.41213288396925 7.902909577895415
Se 7.8466385832227585 11.148933428367279 7.758276204308117
Se 5.920555903418704 11.72984036356562 8.920955798394141
Se 16.581477046880206 12.55555693706573 9.03182221129726
Se 11.42990465336082 5.690713479105678 10.35806994532759
Se 16.197674447389 10.187131491063196 11.565826354908346
Se 13.217252029356425 12.710691538963273 9.073393955201801
Se 8.732702886186514 8.147900528426733 9.399968194440273
Se 15.692495778478667 8.30370937242179 10.291416795680217
Se 11.137030731426147 11.799859946043872 9.711174851558543
Se 9.890156198037454 18.103278837835987 10.915383538927772
Se 12.274504886312585 18.1411072033326 9.986812456898605
Se 8.981141009613562 14.858404035047746 9.412230758671985
Se 12.220436221356033 10.609779562027564 11.512134125210377
Se 6.70744446069138 14.601997220427197 11.749920518209022
Se 15.256549986477472 17.186489918130974 11.48943908329318
Se 15.959976353549846 14.473726095638009 10.271851634914384
Se 6.317005626589156 12.104538649170001 11.45475609649683
Se 15.0046139426025 7.112845790918469 13.827265128934402
Se 10.464134822137526 15.901634015900287 13.508801963040415
Se 11.94869375519199 5.8926792481958445 12.729247398963981
Se 7.68404791943044 15.090125794442407 13.754372859098638
Se 13.604683865644319 14.11076138827217 11.085644831686322
Se 10.177753711959157 14.285295360080207 15.401218713923692
Se 5.583011546301626 11.190813073945764 14.403781703076202
Se 14.737350203210982 17.389283083773382 13.706179848936
Se 14.528543234877542 9.284270122450343 14.349724094185056
Se 7.908672410767751 8.81941554396018 11.644993872408664
Se 8.478863412444804 11.06457090083205 11.84661111171279
Se 18.435067901506113 9.608496020678537 12.423824375754808
Se 15.713757609981164 15.219356939407932 14.360146831464002
Se 7.186284250262122 12.152417258265864 16.148981772185987
Se 17.40723852569184 6.947483063719701 14.767980518374378
Se 12.834272704219842 12.495387933082585 12.797214676126357
Se 12.181642006928685 17.36218069730746 14.164001927027444
Se 10.150117758828252 6.4060078327923256 13.981315420388828
Se 6.247454551166188 9.054756495361055 14.17541505559049
Se 18.519867147739696 10.574289446188583 14.455226651602597
Se 11.59513856009488 14.920373829047572 17.135562785756733
Se 11.658540387837256 10.815417604423805 15.810083160068968
Se 17.60377595838868 8.762917917408755 16.049787287625367
Se 9.678065710924175 9.55821541156697 15.25506187103428
Se 15.377049443597727 14.992915624481281 16.652189447750878
Se 13.535109092299589 13.545507935244 17.020103175179784
Se 8.108873647890665 10.215756905050373 16.936079846943414
Se 13.374497692638194 9.375965895949378 16.499141621849574
