5
Energy = -15.26672415 eV
Se 9.99814290661952 7.023855400461338 9.435739893056102
Se 11.681245129191351 8.315717682554554 10.515367464038285
Se 9.12618479855948 9.097838079970956 10.119892564964337
Se 8.55735442582424 10.450947260564476 8.2428497914006
Se 8.069043469003145 12.420314977686951 9.185994729344749
