5
Energy = -14.88534948 eV
Se 13.140338085792477 9.884273231141927 8.898775842362976
Se 12.405958493505223 10.596402226769541 10.84124462164029
Se 11.839126449752584 14.959158670118098 14.797004018071075
Se 9.485834941552328 14.690784967181202 14.59808074217603
Se 10.697389892604454 13.407806512602727 16.19072585803878
