54
Energy = -181.9739323 eV
Se 11.31593286951026 12.016540971162948 5.622353671816148
Se 13.376779358560308 13.469528274533223 5.760752903010192
Se 10.574762723278969 15.853107237945894 8.692410153350238
Se 9.815998459174992 13.317575945290034 6.660342782292132
Se 15.099697428056555 11.954952034170935 6.030303156591352
Se 13.623643204829415 14.472395495667774 10.306778852564666
Se 12.321057911969602 10.060587515131047 6.944295608319377
Se 10.815607970901562 18.083807436392647 9.202017004144395
Se 14.156885146643123 11.003821714689591 8.015139537076935
Se 8.402439909618263 12.877988588823866 9.786754386825228
Se 17.574461181355133 9.012593409956855 10.042059516177481
Se 9.198388923096566 15.100348251166224 10.803860176421086
Se 12.392444794143932 12.443125908028321 10.560907861264846
Se 12.956414284055427 17.95275059452943 10.418210202467026
Se 11.964133032828816 8.902688821862592 10.494748020066089
Se 16.03864498047267 8.416908725166875 11.77708645928101
Se 14.698441089073611 10.234244540288298 12.212844964581683
Se 6.606851996619588 12.465168111191524 11.238655826189566
Se 19.144711012887612 10.37913049142118 11.099000503327032
Se 11.233741267260278 12.730560740653432 12.6529230480013
Se 10.11444882335463 8.204178103773563 11.550877157917
Se 16.714196457682544 13.01064646495476 9.57993528940182
Se 18.917724281806414 12.515228729403576 9.947340296487898
Se 15.63313712175275 14.12362643764216 11.49122162909728
Se 11.44640033079236 15.983702683606609 13.258773332979485
Se 7.531506355866665 16.540682985012573 11.01887232435398
Se 13.058794339516895 19.25398162545825 12.28941575694365
Se 7.097175682972713 10.748155382246122 12.742354619956837
Se 12.42067105059661 7.095803798064261 14.312636707517168
Se 16.041040047309487 11.388590951411066 14.042911743193192
Se 16.35344801099324 16.699919225996624 13.717156691876514
Se 17.51544456064475 9.860554727879103 14.802788251036949
Se 18.150646625335686 14.9169956457532 13.517032690549202
Se 11.631993838242158 18.149480482676243 13.999571761797034
Se 13.346620003570022 15.095908925802147 14.583929506726054
Se 16.266327220946426 8.583648981591034 16.599856155086936
Se 10.538748696153274 6.381709017257477 13.094090093414847
Se 12.024981696246916 9.38167484270017 14.755378526390116
Se 16.40102309707611 17.18475756645411 15.92118629901312
Se 18.64260132917227 14.698539347405386 15.766186784862544
Se 12.826144240632177 12.71616604433123 14.347725625610956
Se 8.095127855099769 15.73599984536172 16.053365343298733
Se 14.565033989399938 9.956263374014021 17.223656667802985
Se 9.972451384189336 16.80340311392356 17.060363417416823
Se 11.009571065718283 14.634284801505528 17.107059315648367
Se 16.97625247710815 13.355237477651235 16.759432153419453
Se 15.14467337486826 14.948617946357016 16.980049223556488
Se 8.304989454566092 9.65720530383907 15.959274949552963
Se 7.565821642426466 11.64557070251619 14.984659309532313
Se 10.59530580268488 9.752986023487104 16.61317164441981
Se 7.405425480858201 14.424855423940228 17.82699991726316
Se 9.603485095852562 13.604299591866306 18.640656244276716
Se 15.314531992082225 11.443507691254792 19.032212442303944
Se 13.931276072055901 13.224048968701116 18.566470535438256
