50
Energy = -169.5917229 eV
Se 9.35318589493885 13.003516343272654 6.270218782045772
Se 13.479373084186731 12.137548869359373 13.294395330218943
Se 8.352355700647713 13.812078907504143 15.556217800298343
Se 13.501295022525976 15.996522423346567 14.532382948364777
Se 10.788595895396165 14.655420184309325 16.347753201134182
Se 8.871402445041241 8.67937021611842 15.019233361327077
Se 10.026540327214471 6.631826560215031 14.415334170690988
Se 9.164161624799672 11.898152368119586 8.466925757185424
Se 11.525395425456917 9.348549500023186 11.996358972993173
Se 12.825739669183653 10.185683027451109 7.588934747798757
Se 9.999164340568559 16.253544562945574 10.341336774801816
Se 8.26241186795915 15.243240540676396 13.808651032801253
Se 7.713136750932811 16.67816474150507 10.883477556082735
Se 9.92277995632939 5.703187376337274 9.360287348319002
Se 15.169340329149582 12.874631465996636 8.173012692270676
Se 12.066637946612568 6.690577672652512 9.287592177148609
Se 16.246749484436997 9.339278277794897 12.880096296978872
Se 12.338752115852323 15.438343954290547 6.415721370450614
Se 18.280887192830527 8.545907598733047 12.074229941519274
Se 9.270503609351216 8.887668191891983 17.310811157383114
Se 13.180305972352073 16.23846837776822 8.397106094283515
Se 12.349932756408592 7.930683827524698 7.231074348738718
Se 5.589817184009455 13.560451198714011 11.539479109425141
Se 10.484802839379078 14.183998736727714 11.36853214664881
Se 11.35860486858336 11.056704698315588 13.589069738113274
Se 8.485136748598336 5.6716482168022475 12.943300501017994
Se 7.308921182904202 11.974438943450414 12.212539259636984
Se 9.934899358157201 15.21220094622365 6.628714775771931
Se 8.477111410618203 6.840279850804261 10.858061616582336
Se 5.894568859770299 10.67500537881154 6.797452762355266
Se 15.519539906039341 7.731273183965878 8.02419996987193
Se 14.408670804683887 9.925916522675207 16.14040224255842
Se 6.51352373686822 14.875749908461112 9.865555375158609
Se 13.039548699947701 9.980314327986404 18.077669788377936
Se 14.831828409168361 7.683379955067519 11.791497976817888
Se 15.103265264051172 10.156044452567505 8.421881067163367
Se 15.46399450173431 15.408281597378679 11.2025817276515
Se 4.965863762314608 8.634961895323105 7.9912131935003385
Se 14.421308180723699 12.195021326939806 15.459188419470058
Se 10.84142166675786 10.65935881682118 17.59231581049074
Se 6.771360864455176 7.360684673146186 7.9850247764463615
Se 14.149949935394654 16.884432716261582 12.461804244480865
Se 7.080697514233518 11.812917136000532 14.479791453295407
Se 10.984584590078883 16.014421512146743 14.526791189921013
Se 18.43088904429893 9.50075628284088 9.888438223587826
Se 7.970791918773229 9.93363840883174 6.523051477143899
Se 12.839547694186905 7.59668645748923 12.995287004286643
Se 17.86918660302155 7.940872235730794 8.204761005531841
Se 11.082677646618915 12.689625893226092 9.588522776984794
Se 13.95567782345749 14.135413006227886 9.658539592807047
