50
Energy = -170.28241628 eV
Se 5.75446111919066 8.698112174292172 4.671922936100596
Se 8.819376802620722 4.027638188126295 13.050266717342017
Se 3.989112448579935 13.90638260067705 8.215541194913943
Se 12.036409038196267 11.804682698511606 5.637158729742746
Se 7.734898184243961 14.53246621329391 7.703570981856724
Se 14.610814219239694 6.3096801013840365 11.861404452025246
Se 7.397163612602887 11.111072129223178 6.275855411918167
Se 13.302794399979078 7.763325305168339 7.777442514037916
Se 2.8288772287964328 10.420180785607641 9.346732629710056
Se 10.055378695036707 3.921623116612937 7.440858448863565
Se 13.958006675147718 13.37541874236932 10.371525360163234
Se 11.767096562223093 9.97106775321092 14.739359715488712
Se 8.208891732113962 12.009749265133792 13.432802395358843
Se 11.072769697044095 5.9742171155070825 10.426507515391084
Se 5.3396045933930045 7.7679158749479535 6.786596846943136
Se 13.39756214479856 10.042617701926039 4.636579564852408
Se 10.01947636072366 9.584985560434982 8.945065086888187
Se 7.021889574226096 7.23220307321482 3.328423680482239
Se 10.373384738118133 5.7928932702786815 12.696319124266692
Se 3.8350604437632763 11.586057088246855 7.645761875411574
Se 13.263665421436947 5.063022529159184 10.351898385682228
Se 13.985331823466026 11.11491236480969 9.91561357072113
Se 6.493979349260865 4.852088572667522 8.651105459172012
Se 4.786120134650341 9.583284977428612 10.707669839679996
Se 8.78010907215605 12.361850726595149 7.718231379385292
Se 13.667313502859573 9.89895741824149 12.021298158135103
Se 11.617351515486257 13.923174570275187 9.85972364933967
Se 11.922482758662333 11.591290092597438 13.168857340979434
Se 7.054149239699813 6.789548043460948 9.837662162731856
Se 10.345367311844049 12.347583944713238 4.134269850137097
Se 6.60422065976085 10.347619321047247 9.643264894682995
Se 11.050984983310723 8.016149247791683 7.428663859392382
Se 14.512312386474866 9.58043584822725 6.586711749698367
Se 9.95583318750232 15.298422451835894 13.158868564307534
Se 10.150853218448995 5.245809244951155 3.930698760561766
Se 6.0350315111942185 14.298821308786382 9.318966925281684
Se 8.802139034982376 8.931677290316275 14.423393392223755
Se 8.666712477448796 10.713610951075193 4.204778933034489
Se 6.458843101501846 8.427013632179744 14.083017328685314
Se 9.229652966977536 7.403829741131118 4.272616360683857
Se 9.227214769513374 3.525209068279792 5.221438579507486
Se 8.275796207062193 3.286467117414114 8.799215249679559
Se 7.9248190925405035 14.199971189731057 12.625569398789688
Se 10.895929846550334 15.801505754065621 11.030548584145677
Se 6.1351192203423395 6.154956092667377 14.601830808092581
Se 6.664172293322622 4.904301474507309 12.655888828773188
Se 7.455103002978635 8.499477138276875 8.038617042050298
Se 9.713102825129532 11.13279872102703 11.695077178469619
Se 15.40054837141298 8.317853345446656 10.982816275603488
Se 9.629080065328623 8.782436684471103 12.168359929960054
