54
Energy = -153.74035357 eV
Se 8.398323492091972 14.21903130351804 8.05610366489628
Se 16.68407662364672 12.337168585455178 8.146489974543307
Se 13.926230274329221 11.699852410380993 7.714977456129798
Se 10.933286642388513 16.630820719386016 9.732542979871896
Se 10.910557162197371 14.60740759373911 7.753953144474026
Se 13.75605884262891 9.084410701540033 7.385605852409262
Se 12.138516259832375 12.528459752002275 8.43660829062278
Se 15.776444841514406 13.166669021706111 10.349289052149649
Se 11.98794545269974 8.770462978751887 9.164485151432192
Se 12.88433282856829 15.607313922327734 10.965552033907446
Se 7.162583215110391 15.352870832807417 10.47536765929152
Se 6.721457842349576 12.035693466535506 8.209088793959458
Se 16.04524827440602 9.970434786247061 9.41978720295816
Se 16.066266196892986 7.529919297591368 8.173907411761187
Se 10.658744453190694 10.524139170700442 9.464958182963514
Se 8.32836158913124 10.321693232065263 9.630327216352676
Se 9.236100582896864 15.721517381896158 11.865882606217058
Se 13.26151393866074 12.59419011964955 10.929051512642406
Se 7.024230399414959 8.896976160448972 11.357150354533458
Se 15.178125978367527 15.707227394118899 9.695259363468567
Se 10.705973225113787 13.580639834333992 10.685415472667595
Se 12.08170943861555 6.307344741276358 10.471411669642578
Se 14.539456591022047 7.515843007494836 10.319426025297203
Se 17.0517925841873 14.640434347984 12.05602143668717
Se 5.61426481268425 12.985497437682819 10.703189037561856
Se 15.381751550669087 10.997672341666437 11.402899067186189
Se 8.746789169212372 12.985720240410613 10.688843432685172
Se 15.154870686196622 16.50025300840841 12.249767519039134
Se 11.457252017771923 7.751546111543934 12.370316232996625
Se 11.05848713675166 10.758046125954392 11.957058446272695
Se 15.242471874124604 8.051127582253178 12.612795663206828
Se 7.015335275108817 11.45987878655964 12.31408014769499
Se 9.126581535752386 8.597694855586498 12.601433032977033
Se 13.275165792987357 10.242060191115172 12.567742001102792
Se 17.17175886044061 9.768419167240609 13.250786984047194
Se 13.029657675553073 13.235764608551767 13.254843390779783
Se 11.89280164142622 15.905029707041901 13.54089590207748
Se 13.116606903061339 7.297947222107028 14.259630093762697
Se 15.69240827711634 13.531972137790914 13.91247491108083
Se 9.813155147252495 16.354569107489908 14.084824761412161
Se 15.492333022291001 11.25788242136853 14.533410119731828
Se 11.19598022694453 12.09880850528994 13.6671201503566
Se 13.970124058690448 17.674725152387378 14.33244401426343
Se 8.973613142715344 10.252749871651462 14.602498009185652
Se 14.250718866862258 15.253455649924437 15.369584293835143
Se 9.31346181060897 13.952946792258125 14.336862814390157
Se 7.4620093931264755 12.16313447185527 14.605906494128007
Se 13.178180160790053 9.57196289362038 15.385927521930856
Se 11.039752042772504 10.448430033527282 16.052129250908163
Se 15.035372530343329 10.729967040818945 16.98354115586733
Se 10.630170497298145 13.63986411434197 16.434563670192773
Se 12.834717688295461 14.964630527724221 17.220174946635822
Se 13.212974043444317 12.278290271502653 17.332624402698464
Se 10.723160925201352 11.498696355120524 18.47223351786348
