53
Energy = -180.78108102 eV
Se 6.776149048313464 4.449152015391005 6.144340510015531
Se 4.899775845786195 7.0532184790949435 3.9625874719342695
Se 3.4454986942850634 6.9434725779568875 7.360222331644904
Se 10.400526535906328 7.478321032828533 5.372400226834981
Se 12.942318662725372 3.135649727840273 10.268731526588057
Se 11.003889808204946 4.342979235558039 7.456501497390146
Se 7.099849680051468 5.903938856973886 7.9915532865251455
Se 11.44539702390343 5.3491175682616 5.410060969165924
Se 13.05598046768188 4.822804263394779 8.696553645535971
Se 11.658484061205002 4.034002636439704 12.100010265855556
Se 6.983164200493453 5.942233364239824 4.335430126572941
Se 10.006459459587232 12.238639392228905 5.0984211872728755
Se 5.079287619390674 9.214437609823618 4.801641645450714
Se 8.140973903847302 5.830672191886797 11.425925551382448
Se 3.8322023717305016 9.20247062302295 6.978155695693907
Se 12.046990511203251 9.097478415956454 5.897877217526272
Se 4.961211697883225 6.1090518715351285 8.997569931456908
Se 12.52623222725398 9.17514774739626 9.80162180810652
Se 14.159572884085376 13.516472918007379 7.724153349833438
Se 11.403201716994744 10.09979273142774 7.944411650515171
Se 13.664752293222815 7.046794198884514 13.14891748171325
Se 8.905502033641362 7.869223604696028 10.365504489408107
Se 13.188538963221903 4.617974309873496 13.731165292426107
Se 5.674363715425886 9.948266233815291 10.072440506807297
Se 14.579612231115666 10.360788684513546 9.958482184832752
Se 8.05827689651405 6.2466306556230675 13.755927377812348
Se 16.25590988383754 8.817161779351027 9.379371389601415
Se 11.555331231005322 14.006212084779696 5.317371350698187
Se 4.540886151760092 12.226466202462962 5.8771430486653635
Se 4.529040570347505 11.924777436152723 13.121660149168381
Se 10.139523388452696 6.971369824247809 14.535311523436794
Se 14.544627174584212 14.776204508367929 9.625937486445043
Se 6.5839628406218464 12.528634531316635 6.7944456834435805
Se 11.654487266270625 14.353356219097428 7.764016473597091
Se 7.811176481761564 9.67411509009934 11.282481294862498
Se 7.875147634799697 13.100947972112296 4.72979181877813
Se 14.31083252542986 8.185216810398119 14.951086970993284
Se 15.687614098022168 6.08025898496452 11.950139867236832
Se 6.520247869416261 11.534953948842805 14.335901957097056
Se 9.422369872642303 9.321055504651081 14.548126532084092
Se 10.595893200808224 13.480869349807906 12.71464116290825
Se 5.265084708036679 12.106193928675461 10.85886225933986
Se 16.99031536238813 7.931371964417325 11.465696965043227
Se 5.989097558033623 14.523806867971649 8.217903614745005
Se 9.782228323768992 15.988202600861984 7.314888443735162
Se 12.410738368138722 15.060995175641258 10.402092766164102
Se 8.930348711025472 16.510425330417437 9.399248076724776
Se 7.464125294650814 13.53621775562306 15.137201065375788
Se 10.826263949383742 10.345512854614325 16.083761561514535
Se 12.647294863800441 11.181724111059498 14.776156693595366
Se 7.503112710681508 14.619256165647748 9.96533408753925
Se 8.695761621639214 14.671878994322975 13.449359015727923
Se 12.178668650199096 13.482131363395897 14.499467422906793
