52
Energy = -176.96639642 eV
Se 12.50073218494763 10.20009287864332 6.205170220895032
Se 8.862450194477281 11.65709890341614 5.940084859893163
Se 8.814614989593224 15.400247108954188 7.061637828043577
Se 9.387546455687762 9.564889681496348 5.168652162964413
Se 7.8680002156455 8.087176112411207 6.539590880110424
Se 11.80168912256159 5.151634720999967 5.144322179201955
Se 13.739814925732334 8.427455212580726 4.544366151836586
Se 10.35430735961424 5.382672801910972 7.025263010581426
Se 6.594205747143112 11.898673834670012 4.884483076094967
Se 14.920187875822405 10.62083692258179 6.528017947943731
Se 10.585518827003195 16.95593712713615 7.226161007947985
Se 5.830878593641123 13.592369354932075 6.191667819473083
Se 5.119361664746137 6.324173806782298 7.537357898955385
Se 13.78414755059816 6.384895273860143 5.645217458740578
Se 11.936902929148516 16.24402716049363 9.003691494772866
Se 11.448395686466323 4.218828300965083 8.697821261877712
Se 11.472987423265883 12.112844017727273 7.560402927198504
Se 7.483293102975681 16.04702714276489 8.974678830720405
Se 5.171573361304382 10.202698682972514 7.885774290498599
Se 15.280463954934579 12.62358413870582 7.672390174511417
Se 7.437845558623032 9.363251255182051 8.408837958427664
Se 12.393048189276628 8.014197756300067 8.135672418612508
Se 12.980918947713342 5.9793982870904765 9.589148329255936
Se 7.993544049582819 6.582914285308906 10.440779562733317
Se 5.172346010444163 12.42763321785655 8.365153655411802
Se 11.71819264029258 11.2499425062125 9.749635893231726
Se 4.337527085548892 6.967786687730411 11.213238030930118
Se 10.636967615976769 16.92467329697622 10.917386279913332
Se 7.738208208912233 14.415713897216618 10.549106399137692
Se 15.366939853049956 8.978500903705074 12.567586372433102
Se 9.848033804396344 14.968303929142671 11.803062686026491
Se 15.004806214580018 13.331896067530097 11.5678804736493
Se 8.967475042831792 4.643283355789621 11.18772489959952
Se 7.677623809003619 10.994198878746285 11.838079103937188
Se 16.081365952484493 12.09885871667699 9.880862432926385
Se 5.654096827686273 5.605203247518955 9.575475083765774
Se 10.763626752429266 9.126183759078648 9.495485253720643
Se 11.563028923835493 6.289654246710159 11.783354446376135
Se 13.291271344583201 12.078221532520066 12.6384275568272
Se 8.790234440022722 9.251477947954287 12.836830635986216
Se 4.538248560617622 5.606182984082007 13.063725434560306
Se 5.594271143585897 11.348681345764644 13.001424073881427
Se 13.803310054253386 6.877176192785789 12.611146862341117
Se 7.7119030967349635 13.451635472681637 15.3575530966483
Se 14.463283895236856 10.51268384653943 14.011898310458776
Se 7.9054294578343836 4.107029459734361 13.398531724592955
Se 9.89252234991709 12.582467203255076 14.429379717547693
Se 6.379551550895096 11.590828143161716 15.229806856023329
Se 10.676401626173364 6.770289737172128 14.245073792684385
Se 6.742657078828398 5.989087006008087 13.993403782484311
Se 12.863382287296643 7.31489913071673 14.778355505259242
Se 9.956696745037052 10.362413801840539 14.80105317134753
