53
Energy = -176.37058454 eV
Se 6.56154552233974 9.982557308330486 2.810033435747241
Se 8.648241202783353 5.609745076093445 5.3613403890674185
Se 9.896685640454507 8.725768731261718 3.796055299422308
Se 4.544479192454901 10.31570202004379 3.9415342408530893
Se 11.191400440832515 10.642779101420077 3.2405879881488704
Se 8.016557141167096 3.6386949145622176 6.998857508421049
Se 10.204596909640854 2.7622065590087015 7.198765343369989
Se 7.93456951894295 9.520580434251288 4.820154253877645
Se 3.2981168030178494 6.459372652877012 4.287688115685019
Se 11.840913635855514 4.45699461242803 4.706742889173529
Se 2.910375381741925 8.66227227875619 3.4562436427416303
Se 13.372725750767653 6.093703983682854 4.178868650773076
Se 11.85892128119727 11.477757254708152 5.318117597301576
Se 4.665851228858132 11.571430938179207 7.31929033921142
Se 6.354783696549479 12.829960122478788 6.090580337477681
Se 9.030684641106927 13.84931843582725 4.5503966114243255
Se 6.479688028155029 5.936459681467206 4.7009443790922445
Se 11.76766890236851 4.671568530681158 7.143762042826155
Se 12.89729625399965 9.259894245146535 6.081210713755046
Se 5.841245878663454 9.390706252687568 7.590422260561271
Se 8.78889363588005 12.211223935769103 6.0709807402818585
Se 5.624374437548315 5.882523135562707 7.126267217406915
Se 12.402352516133092 3.988525551157013 10.181896264808316
Se 2.5003183572730463 10.468240707337063 9.169590562363789
Se 13.81479524005579 6.6284386874450405 6.686051231615776
Se 12.674744132803626 9.991554788580205 8.359275108196359
Se 5.303134137915444 12.990285080675186 9.426981256784883
Se 8.040367431094054 9.825983010961595 8.057622747345619
Se 14.651942938961522 9.320212186964246 9.36952769968297
Se 10.28232644367504 13.172222971790912 8.267345521625492
Se 5.197538566937998 7.907049882616983 10.382207851699805
Se 13.65142170326776 7.041645965839542 9.234324560926153
Se 8.970526158404693 12.662987024481119 10.075400301416224
Se 3.2869872264653925 6.38205678218924 6.627557848035983
Se 14.463987247923654 4.922928080659792 10.343938816938678
Se 7.892042231993858 14.862575363382206 10.634979682861683
Se 7.090035431336635 3.6267877122656906 9.421117396345503
Se 3.59257823809349 11.705834051119464 10.687862400893264
Se 12.315362419329835 11.21921801355164 11.479235345956573
Se 7.296512248128365 5.813999348787876 12.569856322739664
Se 5.654582134820387 10.148753860544472 11.69992754929627
Se 11.70594579215753 8.686736773610379 12.439326809507676
Se 4.9747807293648085 3.8638749404662174 8.622941015223542
Se 11.238524669325406 4.775470695358038 12.292991163645297
Se 10.676875711018422 12.684769183847504 11.997919845388557
Se 12.624846102501197 6.3715952310816535 13.097200388962674
Se 5.972794856502867 14.197191838517723 11.692294390956942
Se 7.223336864787997 3.639228230160799 13.09050861509687
Se 5.1566860368628085 9.537108399618134 13.773055499740789
Se 4.870379955761154 6.5703749612266025 12.186485871171003
Se 7.850167896867987 6.838466320721567 14.768829471371157
Se 10.704930215511808 9.27631543457953 14.484831714160924
Se 8.330048162883255 9.068835637722511 14.230559671106255
