51
Energy = -173.81802001 eV
Se 12.336934205286505 4.550249286927753 11.323782896225934
Se 15.215753308675678 9.60646613503075 5.575655900084661
Se 12.701418757960063 6.472943320356543 12.589986286946642
Se 14.762641510602112 7.452766882663744 11.668682079896875
Se 13.379213337540898 5.776473017181722 6.497409167014087
Se 11.73864479474155 4.431882265265486 7.544165851251498
Se 10.837157483819734 5.2139265605741905 9.569555551969863
Se 12.400765545519395 7.331030009885764 5.003362558103737
Se 16.01493047833382 8.703270647448539 7.608216426496701
Se 7.853024734522077 4.602101305366312 12.180271064809133
Se 15.934182000160673 8.048601247872352 13.594680717464303
Se 11.929155423080491 9.190674433124238 10.623797065080886
Se 10.258693892715632 5.661944855613862 14.713087617030094
Se 12.883686953957929 9.46757723193785 5.907969227470555
Se 5.311175075372656 6.896673931728778 5.452934238844249
Se 8.71349218206025 6.633612824217678 13.410812169595914
Se 15.46153031955134 10.33538096478773 14.054807266774374
Se 9.673418368216252 8.637976145409532 10.249436064001642
Se 6.504361124322915 6.7528195431645415 9.35267272501773
Se 3.666112668073416 8.125558811030734 6.378957841459874
Se 6.295309986534165 8.90313026198542 3.9068742106161145
Se 17.12405334604969 10.449239381929848 8.762037093284277
Se 10.083831824109666 13.760949852815562 4.987406938539132
Se 8.555749911804845 9.364658074857928 5.131782949101437
Se 6.994686384906634 7.61444290888932 14.944101931394494
Se 5.941610285247879 5.2273111016719405 10.995889380954491
Se 4.8248941710743285 9.610242716842592 7.886263098354528
Se 14.114239043106629 10.434633678158676 15.992402220669414
Se 14.03572222146376 11.940515825596083 10.703083543617879
Se 11.081092823179262 14.477889334548191 7.04414689567828
Se 12.850211137476627 13.026963924571957 7.369273812207556
Se 7.883259424997589 13.134031746584666 5.430295399732663
Se 7.926834806347479 11.009527510586132 6.566772878957256
Se 4.996908318755065 10.565855920994249 4.560420189832901
Se 11.079708940033457 12.755931447494723 15.588647240419231
Se 4.696028079573981 8.682552748004921 10.053227819629559
Se 12.083025676320625 11.43524200555291 9.434844647864017
Se 15.65355094376677 12.279364097239515 9.016265337471387
Se 11.806559005411778 10.500708865126242 15.500093072004356
Se 9.155456936066573 16.997812287761683 10.754552035751571
Se 8.304000624930433 10.517147384636841 10.753609466390065
Se 6.063500754293106 9.193646606823044 13.500533466140858
Se 4.035310216958828 12.641865826360881 10.05520389923236
Se 11.698491196468137 14.644143762686818 12.181653028017044
Se 6.9981531385355 14.195995350793844 12.086633456911837
Se 7.096100353627991 16.543018427110507 11.826423453359707
Se 10.84767771510372 16.83409435502351 12.391095302140513
Se 10.209189354832164 13.286978302092294 13.45733649900859
Se 3.731320676801973 10.72219836955446 11.320098337715336
Se 7.869381994636517 10.71869695707819 13.066394995706323
Se 6.341056407390669 13.232294254883668 10.0225683308168
