53
Energy = -60.14595114 eV
Se 9.41801858529545 9.879222173692805 14.734469352966501
Se 10.335776010589454 6.053774938381227 12.022523673623658
Se 7.681735639341072 6.693767379654696 12.63962886571591
Se 9.52537362046701 8.14895270454491 12.941059709187922
Se 7.182114095983658 9.44078119313479 13.666767129623535
Se 11.459828294492503 9.549541060356194 13.384455769834835
Se 11.523342280147896 8.351998421335606 11.690463037212481
Se 10.377298386635067 11.939519426707761 13.900998939309032
Se 13.191163510671936 9.99438637876931 11.427144058856527
Se 8.075088292675568 5.033781389527782 10.832615847682773
Se 7.984299526255933 12.03385911893405 13.725715019582523
Se 12.805110579193576 11.518056249697873 13.45091131162137
Se 10.230614478499714 5.285122096464195 9.550647266397197
Se 9.103019399895556 7.7278243014547146 10.427208645515561
Se 11.400065959368659 7.140991906276211 9.759116113875573
Se 9.189405317668223 10.371197059014722 11.991368352430307
Se 7.323095299800338 8.909428057891237 11.424358894871801
Se 6.4013003322587 6.983530095548105 10.368792383681276
Se 6.737915004635723 11.333036520713788 11.94409813185184
Se 13.387604155500918 12.66733672371913 11.265765162216436
Se 13.768981036889727 7.877841210148108 9.92207440557285
Se 14.452599687817662 10.438529461319348 9.413151929934354
Se 11.253468765318415 13.678974034419662 12.592530810944341
Se 11.077618081168353 11.195107128002842 11.296195227783866
Se 9.908408780968283 9.702823713593538 10.250439762342177
Se 7.81695030745779 6.19880082834018 8.506350875580502
Se 11.872219114942268 9.486847611599947 9.281959679860726
Se 9.181087627189628 12.669333281217412 11.495204096830566
Se 7.408528950517689 8.56886667576497 8.900773261393413
Se 12.476973108851967 11.797646288811302 9.350746670129901
Se 11.117124596121663 13.69088571468525 10.15573045857137
Se 5.497501491821942 9.587832562631451 10.288040687557801
Se 9.809257441522112 8.625988330767907 8.40629289689919
Se 13.887072335997543 8.87512971485006 7.527168941676055
Se 12.083372335214607 7.355485387073514 7.667581267772879
Se 8.063997661769152 10.76858194061163 9.86224742505246
Se 9.947683756797122 6.195433009035849 7.542234055801611
Se 10.411912654176314 7.842282863569719 5.866517413847234
Se 9.853230521720254 11.594944759808774 9.327391294350523
Se 7.421081221722408 13.367418247434355 10.525057284459423
Se 10.908056833072692 10.34179976177986 7.770096769064261
Se 7.97889075792108 7.9779227693738735 6.689558512095435
Se 5.45119297067864 12.008596044300953 9.754320140686254
Se 13.358120369385006 11.263699278947351 7.185455360642887
Se 6.051716998940271 10.30992274043338 7.849356352641366
Se 11.479697746170771 13.043450531275333 7.719330030167523
Se 9.070876363847688 13.868244067806968 8.911484052763184
Se 12.227927584498792 9.243821887055063 5.853074069727945
Se 8.35555387872462 10.267551144677554 7.539756252401715
Se 7.262225687932863 12.569085250203422 7.906788534854678
Se 9.566278927285806 9.951036739010531 5.533948994902778
Se 11.526429488888006 11.620520248849221 5.491560597257182
Se 9.30312305648233 12.277205830846952 6.75472885479018
