51
Energy = -170.10527741 eV
Se 9.055751870494053 8.019187643056876 14.532153375446818
Se 11.645782995754999 5.284574416316634 5.539143962730595
Se 8.601751856153411 14.567933918461213 10.034637049807149
Se 9.508896882522771 4.174306216072704 10.21540014938356
Se 13.81717900629736 7.433171797502114 12.503330086039965
Se 14.497854577328969 12.108766161072404 13.210566063701803
Se 4.673820588410631 12.792050030085168 10.297507665391135
Se 12.866380781830134 13.620003907384978 12.294625646556591
Se 7.133699522509433 4.029721243353772 11.489625883681356
Se 7.048422604081247 11.997890970145537 4.635335080067498
Se 5.151962378079168 10.225961111321544 7.599362520969702
Se 7.149791866167104 7.76410251688382 9.087477206635425
Se 9.020670484898117 6.985809636775458 4.8881864057615685
Se 7.454504965548581 8.904110000176907 4.976730933486629
Se 8.522545398363594 7.992352108899909 11.059892263707447
Se 10.167160128358015 9.082890911214262 9.798006333183999
Se 8.387649837575198 4.352535564796784 13.379323677658682
Se 10.53185245930672 4.601333298396375 12.491930192737785
Se 10.468627223512271 5.6476319507722526 7.522924173827078
Se 7.998587232517568 12.352152714639676 10.380334735546981
Se 14.072894243773291 9.022557786634744 10.588692769839605
Se 10.044975182348791 11.311776739697317 11.432758182455732
Se 8.139554502698802 11.47987025443528 13.433688444486329
Se 10.361710621824704 10.538402135552046 4.424876581178129
Se 3.4617913236247357 11.513934256002328 8.749131074306014
Se 11.81402165445445 4.57138622421523 9.284653097583723
Se 11.194719725613338 7.543388419116641 15.377693522576449
Se 3.574465546018642 7.405092599224886 10.309151726781034
Se 15.296893279771304 10.253102996756747 8.537347313801229
Se 5.4667911428018785 6.1873393559391285 9.5829180427771
Se 5.444202423302454 8.117239542815497 5.563982089081936
Se 11.636634063105076 11.141463423377681 7.658307311892713
Se 8.463777382728088 15.00720952609516 7.710379765669784
Se 9.357641370505238 11.579590100603523 6.313145264521424
Se 4.484429299225821 11.799961662788732 12.454236900692502
Se 11.920438576557116 12.308611542787451 9.70969976325619
Se 15.604529933278727 8.174814370370687 7.5866971727955725
Se 5.674630618121019 9.777177654674963 12.503978909890176
Se 8.712572008144587 10.23496351913073 15.340143343548705
Se 10.737162854671022 12.945664624870309 13.189127049965512
Se 15.514779620108328 10.84873193086297 11.511561014520229
Se 13.719402667066905 14.431525547922753 7.912402965777927
Se 12.903913305702181 8.725628444600751 14.259157519917704
Se 5.223759591668489 12.066884732039787 5.9870867404375705
Se 13.27627853814105 12.732326322330668 6.416919280889447
Se 13.97570200224061 7.009635342874027 8.740667080600307
Se 10.480148932504015 14.527805159863064 6.602876643364764
Se 12.036523049257223 16.129460155187168 7.404513216286181
Se 11.011869377251308 8.328865826511704 5.050204433338529
Se 8.585630995261837 4.159771341741076 7.77181334233768
Se 3.9817095453128664 8.065778380440596 12.532142065900045
