52
Energy = -176.36942766 eV
Se 10.846076157229525 7.146037838852711 5.949755368632743
Se 6.475015180011413 13.993864763787862 4.834747080535325
Se 12.084488938071393 10.299512491696161 5.601707665678358
Se 5.69163437243473 10.450892728165138 3.9322737950500564
Se 12.959122759907444 13.42530272024199 7.756962077150803
Se 13.554272348083954 8.252069141381927 6.1573564214095295
Se 7.365260472001138 14.596509374257884 6.905148950656793
Se 5.847180327439195 5.535252543102999 5.462142471786281
Se 4.792955407895216 12.314594830910112 5.050623906933999
Se 13.377110532815614 12.214124077954617 5.674012263527204
Se 12.888797489765006 4.593336790565926 6.34577974544523
Se 7.686757049605668 15.862329924646856 10.414743304991944
Se 9.240634729335065 13.140274632169401 7.27717219389834
Se 9.87038484772157 8.688046771228672 7.398020171458295
Se 7.772418548577481 4.589702012695044 6.462115668601996
Se 6.915945302087488 9.201993274565753 5.520023773861021
Se 14.55133914651735 5.8411710659487355 7.158745336489588
Se 15.05401720491623 14.190915458038718 8.319456125345537
Se 15.659019028579944 9.375482632292783 6.592030508532012
Se 7.03147314709199 3.314497644216952 8.315853274837776
Se 3.915775523955341 11.899419445918173 11.068666280120095
Se 12.026671478328613 3.3326277248703207 8.335655816089561
Se 8.754059527264433 7.193653794350541 9.003988293778566
Se 15.922523058611642 12.846325988447589 10.192545466461803
Se 11.749471306392442 9.598978017478903 8.958406640548928
Se 5.445058604615842 7.6161874657724 6.496387898996088
Se 9.261719070386185 3.6607246505613844 11.326121127795867
Se 8.943038124711496 12.597024735121963 9.580847240517423
Se 7.222535737796192 4.501981721323091 10.34946892973987
Se 7.831125872682889 8.742124039329333 10.455047082483778
Se 12.106986542244014 6.228079691627252 10.647350057304264
Se 5.690738143828454 13.366640230399359 11.61659287881657
Se 14.833075142918686 10.804474512139159 10.098177969991013
Se 5.438326330949892 8.626106429352783 9.812894915566067
Se 13.373785802457938 4.069369358311496 10.00004936919357
Se 11.132111438598724 8.794962880831863 10.98803614114993
Se 10.556651070297104 5.370373328986237 12.241372931747918
Se 8.174893907734539 7.716348705111699 15.86825113027078
Se 10.723875389528525 13.544711816670107 10.660363971331524
Se 4.4906088320382285 9.67227597146747 11.669734734062475
Se 16.113125852195807 9.18729542385694 8.885700810145437
Se 9.71766257693067 15.854663959968196 11.319107587604627
Se 6.877605282991919 12.702635525033966 15.203359491776737
Se 6.9877295409422295 9.070468863803434 14.343488375729224
Se 11.871997472793206 10.753370641111175 14.157529401595685
Se 13.99564528419298 11.20299797884004 13.61580336757211
Se 5.3509008006329095 13.927353676590918 13.898955158787297
Se 11.865219613354668 8.496387687832888 15.14948201023765
Se 11.627457625143508 14.166284894013918 13.991497082925349
Se 5.809294428220902 10.641137043076409 15.674413978058872
Se 9.713824782446732 15.305739587836744 13.89865740796704
Se 10.124114403915739 8.794875052432733 16.674887906001114
