5
Energy = -14.67196973 eV
Se 9.116786045638001 10.438936998285845 9.038204421419518
Se 9.245697116795434 8.511318704317977 10.468156096971326
Se 10.718052128214001 10.418185371499558 10.858664118733197
Se 12.499665951856322 11.562983072239948 12.133296499833486
Se 14.082730475459249 12.661154674104395 13.226854365357802
