5
Energy = -10.89841233 eV
Se 10.916715347279423 4.602018365643727 1.1611202797763907
Se 5.522720975183386 8.723385979776008 7.637411778308316
Se 2.615934023984097 6.827117814777443 6.125453996591723
Se 5.93015374912976 2.0755212912886893 6.540251744209393
Se 4.185568801742902 6.9402040141486125 7.7032743334715095
