5
Energy = -15.88917688 eV
Se 10.519876000908578 7.821282570990586 7.336898250043311
Se 10.203915068186731 9.782449759972241 8.371541224654662
Se 7.891388320881611 9.737495724249133 9.010466977489191
Se 7.5426248891273255 7.5215756893169194 8.162122017553841
Se 5.526060536174591 6.82265485024849 8.804538663636272
