53
Energy = -178.9572128 eV
Se 11.484354344918316 9.670180964958417 2.7834356781053278
Se 11.793877340937454 11.035681187905048 4.753529949905349
Se 4.551006722774089 10.021686948731992 5.2939253941121125
Se 11.890714660872224 7.536851848495347 3.551901166040471
Se 6.363973362110501 7.258742638928499 4.876383256750056
Se 8.173261681817793 6.086814371974015 3.24009398289468
Se 10.129575398313111 12.674958892548863 4.538457175641062
Se 8.019613675602303 11.693885282832216 4.689817014921431
Se 13.707750057597742 8.24519590544529 7.629538891061129
Se 4.37359037057307 7.788342373939832 6.363909293935104
Se 11.305883395201711 8.204665218998157 8.022891370532667
Se 11.377447429092376 4.489024467647652 4.691829140295743
Se 8.03066360722835 9.231227764817707 7.933635167590232
Se 6.154660754302557 4.951164826299023 5.426009660673876
Se 14.075983539638564 10.520255502092224 8.047731060984177
Se 5.084657296330162 11.550297281631405 6.968248628099079
Se 10.004106153931907 6.319782567033665 4.727860520524818
Se 8.777049595949608 15.505104078988424 8.44516807234603
Se 10.399444891203695 3.45697466152703 7.421319224639296
Se 7.542225618206379 11.542656014419036 7.11750522014465
Se 12.526088822709573 2.675586207907991 8.048093957257429
Se 12.197948891075749 13.961764944772725 9.508579931965006
Se 7.004377748741381 14.681962741033455 7.302652929176032
Se 4.435038523401728 5.038714882201877 6.949144538164891
Se 13.876697395439022 4.514437669574751 8.765893702523112
Se 5.4603068873128375 5.551487827595529 9.576910599287679
Se 10.057813758951593 13.264853192408783 9.877364353093226
Se 10.834401145712242 6.260641022845662 9.16373740744396
Se 9.041231909439663 2.449018030476467 9.251519577249631
Se 4.501860478314016 9.095886293909384 10.349184864195605
Se 5.184397791011291 14.517520253516818 9.035127673959622
Se 6.105449707889164 4.368709055290082 11.607529732246025
Se 14.817517876086155 10.98813187314696 10.263638875775197
Se 3.617866912918729 6.896704502941198 10.20193943247522
Se 12.087826467102108 6.740959256318332 11.37725919660377
Se 9.734948816239404 3.3095929112516647 11.274523976543696
Se 7.264765398958893 15.92776351702432 11.897483234294358
Se 6.3715336712510435 13.859764197613734 10.879630170875117
Se 13.015957403414536 11.787014547459027 11.548220166899895
Se 10.474975179038324 14.420720744625827 12.20542458899618
Se 10.299984936267673 10.739631414387532 10.622207369790917
Se 4.266392169529173 9.88149288191755 12.569528178483242
Se 8.07731398849692 10.07480714599612 10.163724097889475
Se 13.667265385387811 4.818271728570203 11.049907678975256
Se 8.278496226360085 5.163836977349356 11.95321158295698
Se 5.996696170101777 9.236334802296874 14.013665130727633
Se 7.275234910876048 15.292308156269668 14.078304053842558
Se 13.097309766553115 9.765936248781424 13.100087891351064
Se 10.977495125332348 6.036054848869978 13.253041594547451
Se 9.348072098154747 13.812007760541828 14.063910077801468
Se 7.8973728842943745 10.532792796358905 13.365732653705454
Se 11.285324735753452 9.73850385513734 14.540866839947277
Se 9.487675245599975 8.61877323670944 13.424242396074904
