54
Energy = -182.01093696 eV
Se 14.53236987261886 10.157093284280961 6.992823023890376
Se 10.319710953138383 13.264062742118393 5.244996044313511
Se 12.495191867834787 13.170308287928268 6.243514492783718
Se 7.739834161452625 10.358951367437113 7.630406481055551
Se 13.658920721320754 15.212014390035986 6.211974551766962
Se 9.83585748764898 9.319274423941547 7.302455596515335
Se 14.452621394021989 9.335387412830261 9.155334661288027
Se 16.89849121796735 10.182475203815025 8.569395387159366
Se 8.60802712161027 14.023143577761381 6.66382556629428
Se 13.199720113540167 16.143531393795623 8.375696550346383
Se 11.465014362259067 13.164165555957196 9.403475329496063
Se 8.294078349727533 12.501066720971238 8.46491805039996
Se 8.822506945784749 17.277869646890885 10.308460152157704
Se 13.591744019088964 14.2395120976367 9.693193898881646
Se 15.630121601219507 7.262715371100115 10.871181897709032
Se 10.74277809508093 8.81274242447896 9.445421112980258
Se 17.128386473962415 13.55360453302898 9.48929509017394
Se 19.0597088092193 10.437872545180486 9.542687830521682
Se 14.235480651253614 10.83308508418665 11.283416917507013
Se 16.638867451595004 15.381331646162739 10.783801593600128
Se 13.911148201841662 6.237854162763108 11.944814296255004
Se 10.71480838002761 6.540465516608953 9.94430375301827
Se 11.894546189718195 17.778927405473215 11.752158044894164
Se 10.337351051737748 13.702772224075886 11.466293134225086
Se 7.726141406640418 11.002631464846985 12.118597326268738
Se 9.505132376457357 17.527883721015627 12.421505913178525
Se 8.738835679125822 7.832713096474709 12.894917460120942
Se 18.89961024514281 12.489857726357373 10.764138497951526
Se 8.849498663911035 6.087032510225275 11.408301637895466
Se 13.089480337662952 14.063993344504054 13.000368598914532
Se 15.562198256651579 14.793676959699066 13.380226525444593
Se 6.245848472133786 12.07243452890876 13.61236811915484
Se 8.959056404156614 15.468262356296158 13.847575447290449
Se 16.228209537653456 10.172801366043876 12.334297309408822
Se 12.009285434178382 6.312071939848427 15.14590228154952
Se 17.486769684611772 12.0390610104739 12.952195461678054
Se 13.195647252674163 18.059959311115314 13.738216287975888
Se 13.902885366292542 7.193906278806317 14.223173335131573
Se 15.31609826130161 17.26344836396802 13.27094655534977
Se 12.392740547786357 13.17528945811953 15.029866243995471
Se 9.939961129944717 11.668761877941327 12.63351886441714
Se 13.267919342665216 10.92519112129562 15.053703798072481
Se 9.154192805482039 16.647424459938765 15.854418120662727
Se 6.290931535375629 10.9625852466187 15.702858173435901
Se 9.993205522148308 7.881080395741366 15.1973310901398
Se 11.363261440191593 16.18281765834368 16.650472951142838
Se 16.620570133463456 12.433022666282659 16.008845643777317
Se 15.876600651817764 14.643767022842525 15.979536452169324
Se 6.925149756352482 12.714410717331617 17.195095493751516
Se 14.80785455841316 11.122036695732136 16.82990864539255
Se 8.839216046935393 6.788700784423991 16.78355828952829
Se 10.864647859906748 12.640904244438605 17.963402715981502
Se 11.118431077013643 14.901112627965956 18.607752445288977
Se 8.649503620333313 12.069102926034757 18.63932575779229
