5
Energy = -14.88725752 eV
Se 8.963008919214753 8.532351111208927 10.948199262012047
Se 7.137464172150425 8.124457875801188 9.483841721125412
Se 7.937629039222109 10.339682431282759 9.796382007619409
Se 13.191994857388616 12.850617795747546 10.786313763471606
Se 13.624251060596773 10.917979628485513 9.840311025497467
