51
Energy = -173.39454258 eV
Se 16.32208348840047 8.386917375399088 7.425569197506574
Se 14.024145181695195 13.636039649015556 6.877599845243136
Se 11.949554972408743 14.473932140859997 7.118793328497963
Se 12.54991068382419 11.093280883845104 6.580937849987513
Se 7.77378509131439 14.514179434643125 6.8235975567607206
Se 10.63812399023017 12.465300704838869 6.67373346665782
Se 15.231759104933705 14.945639889242825 10.641771383642787
Se 10.476598162017542 8.621338357608176 4.5779606737370955
Se 16.88592416913523 9.749225842284707 9.18536331769688
Se 14.447430075875703 7.023423733252423 8.299973124993102
Se 15.4175818959665 12.955423046629091 11.97903462839745
Se 11.018093544856598 9.168900146679784 6.814519044610193
Se 11.057868102434755 4.417836802878713 9.506439932226431
Se 5.955059092195194 13.037356127355823 6.5414061461789546
Se 12.92514830718625 15.307715526057004 10.668157601529012
Se 18.079319853920943 8.209894538343683 10.680736606661602
Se 13.249442796207456 8.227001424557113 9.797515767179837
Se 15.780151819609674 5.3281840553122635 10.152480535777261
Se 10.79671813325796 9.779510416001754 10.800231384929068
Se 9.094298791838646 10.359456738667221 3.7930138241375695
Se 8.136605488595634 14.727390186177283 9.185985106888202
Se 14.355292301183274 11.160983547671673 10.921618814801725
Se 7.229651468348037 9.604670748384303 10.153121483648796
Se 12.466905826406041 14.962854780541093 13.049389267501148
Se 16.802880779653837 8.080134356289403 12.546974663577254
Se 6.6721915235699205 10.78708252287852 6.678954468063913
Se 14.988812197080762 6.428606200856937 11.908365816200398
Se 6.869057352046278 9.959957153455859 4.472312939050084
Se 9.0948559560948 4.593993623489077 8.200212684384448
Se 12.734803330210488 12.366706659467168 15.479559780844138
Se 8.67170851547348 13.642753280389222 12.686732960041097
Se 11.951512985392327 11.58108742268142 11.631617295237396
Se 10.948888299824645 16.583789272310185 13.688375592373276
Se 8.944308957715272 15.954472555707289 12.483951435339911
Se 6.083320602483681 15.480164459602603 10.032714802787952
Se 8.486275254813268 7.655831429058163 10.051961446133678
Se 11.979172393961662 10.763761768671047 14.060593652111383
Se 5.078777072930182 13.52156416186247 11.015544995300651
Se 10.277692598962409 3.666360483495166 11.649125705569404
Se 4.95633833434465 8.899579976700943 10.509526215544513
Se 8.861415768017773 6.883877902822817 7.751791057461015
Se 10.31381649810803 6.82449767432693 13.981626051318557
Se 8.956731337036018 5.271449584336678 12.657529858513982
Se 9.026464211799 11.832339549287221 16.14709985822121
Se 10.694078800098799 13.26433034858295 16.64881004022225
Se 7.170125154259822 13.152109130837934 14.422477273090905
Se 7.532760688213008 9.252607549307445 14.66016097872039
Se 5.011110523930103 13.96812718391935 13.272667602748419
Se 5.3041696648653645 8.53449135762369 14.336776487454207
Se 5.174508821991223 7.377976291868496 12.277393932744168
Se 8.74743398658794 7.399205476665437 15.584807834665721
