5
Energy = -14.99549461 eV
Se 9.815604791283587 7.728076860008849 7.584295394838604
Se 7.472879152519488 9.459361736594646 9.465711429891083
Se 8.453800846901418 11.90876010019642 12.169425214504503
Se 9.10074962211924 10.57920931648123 10.519249070595547
Se 11.724057229437799 6.911152285358993 6.848416615392746
