54
Energy = -181.80076006 eV
Se 9.292058889369205 13.354853299104049 5.625509607448284
Se 13.44825394975568 7.222006797574927 7.811962150204937
Se 9.020916605531108 16.607888234541562 7.2676738317097485
Se 10.627550246467306 14.939780627293091 6.785959203322049
Se 15.156198708394065 12.025562537802445 5.767948067523164
Se 12.643607598408053 9.195424433896052 6.6894027494386705
Se 9.97547416675768 8.50037092928572 7.231800722387508
Se 10.515379495850452 6.717785205507519 8.507050340534203
Se 8.240934037305259 12.197191870417354 7.373066601644916
Se 15.005646645257896 10.189845735340889 7.037374531158817
Se 6.416571560398543 13.915184456013693 7.754899454146243
Se 7.752204155165603 15.7056625145889 9.027661854914697
Se 17.882851329300333 11.799805300569844 10.234438051790585
Se 12.22569710498552 12.252133209955039 9.520222238871812
Se 15.557220727282735 14.13019713173945 8.568661205706594
Se 15.108763790310672 7.816941486761782 9.205923724593344
Se 12.145599907445769 17.462817285222044 11.337542863715786
Se 13.38263810419032 14.413803061830157 9.305268113907184
Se 14.862193652704121 10.306698646526648 11.943794724818881
Se 7.523659489336256 9.740861045024301 9.776488132679965
Se 8.46717338250709 17.035286983988073 11.759266181044971
Se 9.805231121528504 7.131634639599811 10.936146813516086
Se 5.0298872604694544 13.164822886498794 9.350795868868193
Se 13.854829774886154 18.145894757318658 12.761297038389465
Se 17.138477913815205 14.032935560349996 10.399312123442519
Se 10.097521273699646 18.503930906649376 12.229182582492555
Se 9.542283804653312 9.438169687727651 10.869817117637563
Se 10.24411752604759 13.218821596338534 10.285157169026068
Se 13.858168093051125 12.309496738705343 12.765716567767527
Se 6.470720850223575 12.523796586646826 12.375440137303471
Se 14.268309476237558 16.43139210774227 14.368857696718484
Se 18.036367836757794 14.54180303204332 13.590843883397692
Se 5.933374601211554 10.05060138283914 11.709196039572058
Se 10.484762777921821 13.875016985136707 12.59115583702862
Se 17.16985746568403 10.698379949262542 12.189769173513547
Se 13.894085590744748 7.288585287285494 13.960163213469006
Se 12.357968111152923 5.5293515378830325 14.118506392957752
Se 19.10615893476233 13.146436388943833 14.945688764810537
Se 6.819138456825495 8.868232300422823 13.444305131771904
Se 10.4216380684201 6.357255801606205 15.265634562679942
Se 12.828539888968848 16.94613762643566 16.15886126712882
Se 8.706614470612163 6.813722983415716 13.759006254581243
Se 11.044311623771675 15.38862142268744 15.960307535822691
Se 9.944885876959011 11.968062270013965 13.824183719455103
Se 13.828732736865495 12.107327981280488 15.093420249108899
Se 15.14818137112223 7.1214396652527245 15.988110010486533
Se 7.591933415238104 12.196400902000683 14.333014246061229
Se 10.917475789073256 14.30488661837462 18.086102148354005
Se 14.940682410167684 9.086594141482161 17.224880779725193
Se 15.527445654245833 13.476204523099247 16.0988476099355
Se 17.415731490435093 12.252918886322487 16.617569620642076
Se 12.986794049859373 9.041170752772164 18.63050052043606
Se 11.442725954126919 10.467490490331073 17.6438608926277
Se 12.429072920314727 12.578982947123773 18.42905481628608
