51
Energy = -173.64574895 eV
Se 4.822782557868542 7.731498061621603 5.047654025272094
Se 11.833849594523594 10.656219989110065 2.4184556927395917
Se 10.780730641786985 8.929342320645452 3.356975605714273
Se 3.620162021691086 9.269107026495748 6.133216375413445
Se 6.861889833374337 7.139825415484256 8.479619651624127
Se 6.96496195247693 4.794187278738593 8.936769769863556
Se 9.623789336289054 15.76261985930199 6.03994731606416
Se 9.169662495305673 11.28136496153869 7.582486657197594
Se 5.19904969613394 10.492751409362947 7.563895622519922
Se 11.028261842244452 12.174303030472496 6.302126048450906
Se 6.9705901260205225 14.602836150397216 8.236304128470751
Se 9.705260801683508 5.505485698102986 6.432974359669194
Se 8.995514303265779 4.4841028843636 9.991532058567346
Se 10.647099276190794 4.307196479440932 8.15539711167692
Se 9.679260254703673 9.361807148319532 12.16473936332557
Se 11.81606988376003 8.56824457900812 5.554076038332818
Se 5.769248139542301 15.154294906566063 10.152650638547453
Se 6.514442153350616 8.198377233519507 10.5699427510445
Se 9.264940633309882 12.246728864201243 9.705704796977807
Se 8.435024625112183 16.520019190020975 7.864987852069574
Se 9.968382414928959 7.882218139919977 6.80476657132462
Se 11.35826238553586 14.367190419509281 6.98718439046627
Se 4.075247684416621 10.750729326544223 9.572867976785538
Se 14.231747995710949 12.902201798889045 8.448502670865823
Se 6.740163651635815 14.208099205891358 12.107895968524408
Se 15.783388863086376 10.99238014712712 8.375529001049777
Se 11.354185167743427 16.627834437494407 12.20517844500926
Se 10.83055715629097 11.148395051886503 11.11996720706734
Se 7.642453737092105 16.046521815414945 13.316063309343939
Se 12.125881646511848 14.78362641123197 10.94321555087374
Se 15.572481848303761 14.604101763586868 9.365452616697622
Se 4.208205951488271 8.59774995749269 10.637202502553155
Se 12.430284662566311 5.653151148612414 12.544240508831605
Se 8.825946362257755 5.798560150137546 13.756555713817004
Se 8.028633857125726 10.416096779657446 13.483911383019215
Se 15.556628467105204 10.891472259476714 10.788202124691104
Se 10.654421993451955 4.338352413781341 13.36193976849285
Se 9.904107249811286 15.65967196812966 13.812705729999735
Se 17.65624336529013 8.894117657236988 8.747452145968424
Se 13.600123293111343 13.735172894102876 12.52774370424623
Se 15.84430889077347 13.897983885703685 11.680990912980478
Se 9.023879738461751 10.945821706199158 15.56767055910192
Se 8.197812121905883 9.399013389563253 17.134144685439598
Se 13.414620062259514 9.838622092730493 13.6147267026314
Se 13.923919304341599 6.16383248268386 14.290180538771157
Se 15.8280200129752 12.733108301003675 14.33938119832717
Se 8.445097492108586 5.788833607366032 16.08552025352406
Se 17.184890165710673 9.173498773601374 10.948045431228488
Se 15.764495028553945 10.508623626049538 13.72587303637056
Se 9.63436798958307 7.521257827589133 17.156584759393272
Se 13.160787416026086 8.201569892746598 15.247843615069556
