52
Energy = -178.00242458 eV
Se 17.546602882086717 7.846750511402466 14.706595223222413
Se 18.13250222439398 7.827964177780589 12.427897807017521
Se 16.780521469200377 6.329154277626156 11.05039618539908
Se 16.33624703141745 9.766757979096727 15.156498883121262
Se 16.64435436287206 12.001472107932809 9.237620307796151
Se 14.430263311981687 7.368408781755082 10.930123747662401
Se 14.000835473579182 8.269620496262881 14.75802753309823
Se 15.166223739103522 10.593363943314571 8.028687136462079
Se 16.297865238351203 4.293526789786411 12.354448367725334
Se 15.145803922451373 13.048558834632253 12.558247224919711
Se 12.005758458173215 17.773241002468506 11.455838207456473
Se 14.733045085588298 11.738513890576485 6.015314879990176
Se 13.988320089012955 4.173134848831438 12.560002519203694
Se 14.793120150243707 9.114328844477729 12.361091175850532
Se 13.63561717780987 15.288598792386097 16.266905998894444
Se 11.847504042494835 7.08224392005428 14.393058634718045
Se 10.76159518458368 9.155962430434084 4.933235511163249
Se 15.61074345389027 13.797181579162586 10.333877827675117
Se 9.765620119901547 18.500610298023382 11.724259757509232
Se 11.832614097056986 14.386491857893898 17.486620498127778
Se 11.318841078337107 11.411791026949773 4.463286417878777
Se 11.921969040788987 15.808072896552634 10.103685207376811
Se 12.823042998812653 10.184904642676685 15.546665408290757
Se 12.47086865659498 12.458382163180838 6.2261906722396425
Se 12.87149638643125 15.631001097036982 14.058775485989203
Se 13.316294934352278 5.0264589056782745 14.637894862201618
Se 10.841699084573404 11.894830545122144 10.004266275773219
Se 12.135811187115525 16.292416940730234 7.852549434686225
Se 12.8822912438962 13.496516799735033 13.013489311147936
Se 10.417637787253396 16.173903995836458 18.083874700402895
Se 11.434963734055538 8.328306914052135 10.899472342110576
Se 10.660989528137039 9.484172283159774 14.933089930905592
Se 8.230744260176262 17.81245297819642 15.228950134612807
Se 5.889303152862271 11.100410769439229 5.9572383259227975
Se 8.868065881172653 8.96343587926216 6.3072485591887055
Se 8.469823059887807 17.008751040658186 12.984172913077527
Se 11.476785786755165 9.843814964716769 9.040742375884433
Se 8.514149330944656 12.252154616726433 9.708828722780295
Se 7.921278639672331 10.430393698730073 12.81650714140101
Se 9.899356079310717 6.59422595273642 10.399910078028485
Se 8.368080529037663 15.725076255277237 8.39190406523446
Se 6.994298268194681 9.326545059801708 4.872569054015946
Se 9.883022044044463 16.77305328466611 7.017281713961446
Se 8.47078198565623 16.029855901715543 16.73606673708034
Se 7.631156011358828 8.857601818788375 14.470199562205753
Se 8.126365021216175 13.42794665365217 7.712811965720702
Se 7.691870743258941 7.264897846503157 11.025637704802715
Se 4.19419561601189 10.018314064573099 7.198534129325889
Se 7.226953899363001 6.7328792511402975 13.207501041107571
Se 5.815914717640569 11.418288445358197 12.154401844037977
Se 5.223273187696763 8.957291676953568 9.059237932140888
Se 4.463136456213085 9.783402011834063 11.135025437044048
