6
Energy = -19.70722642 eV
Se 6.888679973499426 8.574680077190257 7.4992723454692065
Se 9.007676886650797 9.26203280037509 7.238398341508484
Se 9.60985092301629 10.263074519965418 9.580853060761408
Se 11.807146525588687 10.54658480345881 9.500595402250445
Se 7.130548079817057 7.372058949550804 9.781912861420592
Se 9.311497267695191 7.736968505727071 10.154367644857313
