6
Energy = -19.22435883 eV
Se 11.408997293278373 9.279942415723895 7.361777934970026
Se 7.889539579334732 7.149152049288316 9.046566093863056
Se 9.207739092777643 9.21100924873933 7.460330983381569
Se 7.276300428190001 5.232535726388153 8.139958430020462
Se 8.150909222160761 10.29664157017347 9.484591128028528
Se 6.289478293980989 9.105115377803134 8.795037547180447
