6
Energy = -18.45567103 eV
Se 9.438189112768068 7.2528683523794735 9.890247513025269
Se 9.930379660661321 8.968162242081853 8.518747988966787
Se 7.4436841000107785 6.3825727987325385 9.318063441857658
Se 8.27778835200053 7.259748207603507 6.083732294615465
Se 6.642554704485376 9.645258405935731 8.388592731971691
Se 6.745430052353244 8.8983307673062 6.266907449946739
