6
Energy = -19.35273839 eV
Se 12.663557999428715 11.327552321552574 9.295556502438542
Se 8.491015356046171 6.987597622960452 8.744920768911925
Se 9.638808367808355 9.503205582901552 10.818682123204743
Se 6.843402802755779 8.452005422142179 8.656038527170026
Se 7.69747821757728 10.41039968614517 10.094300643697105
Se 11.123370914636777 9.776873022550886 8.848135092830743
