6
Energy = -18.39126738 eV
Se 8.726628378380697 10.051082113479481 10.656543164177776
Se 11.652139163970304 9.127661261378668 8.040743968642492
Se 10.614463882670467 8.426408041536462 9.977271585505713
Se 9.551742758856324 6.891482347268169 8.644869437951145
Se 7.04034573979559 9.158342029277291 9.292116581855451
Se 6.593279518264683 10.523623648998251 7.567054703805488
