7
Energy = -22.68628368 eV
Se 7.142961829796268 9.728990943764948 7.893433731017555
Se 8.328441983946052 9.270057961347957 11.274152531373637
Se 11.437795268780318 9.04918617781617 9.046861690089743
Se 12.334521445354094 11.09308452183108 9.162484579182252
Se 10.472157505259789 8.30542657476886 11.151485502046729
Se 6.976163178757953 8.132697774886418 9.748556603682376
Se 7.560336672284876 8.67293392976405 5.975403246787058
