7
Energy = -22.75447648 eV
Se 6.0035384540770425 7.823358572393463 7.736012514521486
Se 9.772470339789711 9.240939846205094 11.8450063004666
Se 11.822674167901521 8.917412535478606 10.817407031865816
Se 8.442417307357031 9.950589189738958 9.711320746500283
Se 11.987031098375887 11.163415548393909 10.045724171081506
Se 8.152149789366447 8.423565637354491 7.823867930773734
Se 10.265970791352906 10.926970618656298 8.466913253011123
