7
Energy = -21.4612767 eV
Se 7.4645166654388015 11.544582142325327 10.37527453349942
Se 10.406009780772731 9.074252986180408 9.029876616667465
Se 10.12791301591297 7.060216776198649 8.109974658484381
Se 8.13649666500762 13.073707216818862 8.683263858077009
Se 12.297803028702393 8.877651543125895 10.708615117469218
Se 9.675439358550394 12.411799772760485 10.371864024353451
Se 11.57208671238402 7.623314667807356 12.404170597484127
