7
Energy = -22.72368589 eV
Se 10.488827576277407 6.8544372142648315 9.269133232638445
Se 10.539336244693388 8.653990013084437 10.751607081630912
Se 10.062947937061084 7.870040408158578 7.076676595145537
Se 7.73378701573151 10.751284575688908 9.610060039859103
Se 8.319819299829568 9.12225247723236 11.34010359700633
Se 6.866024576056383 12.549516012109239 10.60112934483719
Se 11.40874830474654 9.617970253857266 6.770781063278095
