7
Energy = -21.75453687 eV
Se 9.27747808903335 7.878822459948156 9.983209952045756
Se 8.142569239967068 7.331788801325451 6.522144849883558
Se 8.289882859024752 12.334577197964533 10.083188384723476
Se 7.444910074279221 10.76199119555597 11.358256185432916
Se 10.664378686442767 8.483439991722497 8.119776430481283
Se 12.376770694909087 9.678463685706369 8.918642889851316
Se 7.428715441620164 7.155621753053433 8.63948639285797
