7
Energy = -21.12047095 eV
Se 10.620446330516152 11.007647544858795 10.871399791042755
Se 11.400534933182245 11.97020672973164 8.045941408708394
Se 10.193607224156322 13.08091276604335 10.019820061970323
Se 9.343394537352486 6.040172805096815 10.264193096820641
Se 9.697696165710038 9.947720559425502 7.802963440852637
Se 9.118146305617795 9.119093450079726 9.916201398747985
Se 7.478544791518538 6.615020454156116 10.975248866977662
