8
Energy = -26.10672205 eV
Se 7.909537939874756 10.396917417323591 10.18180246065412
Se 8.392594615556854 10.730120549002406 12.452733765953125
Se 9.4240072793209 12.912468056486277 12.446154762302717
Se 11.633656997058383 12.535794666633592 12.38709779065598
Se 10.046287153484737 10.673823356790596 9.118587183033425
Se 11.56105668174493 9.237534966617114 10.08034748180073
Se 11.632937667192158 7.271495558493806 8.560865067627322
Se 11.159383519058592 7.990452573204183 6.515542565669455
