8
Energy = -26.39731554 eV
Se 6.5993208249569015 9.604875361594067 9.607246222576306
Se 9.184148827730652 11.12189914144233 11.887527944118451
Se 9.8356971017805 11.00885221155696 8.098157144821094
Se 13.31607572967306 7.894137335427344 9.77844620805368
Se 7.749137741835748 11.480666541810779 9.781111351989571
Se 11.232729204001243 8.303476476193612 10.427293531716579
Se 9.692219033111876 8.79492199883265 8.217147431843093
Se 11.293759640689377 10.694259036921189 11.106158268660717
