8
Energy = -24.51741579 eV
Se 11.92600533632926 9.60514484021636 10.473175236272883
Se 11.116085353297883 9.151143311678672 12.496295707883105
Se 12.618624837958288 9.325207809526816 7.637226237355815
Se 12.469454340073861 11.410602875916789 8.364857927230322
Se 8.51511771568858 10.19898367599836 7.644503038657369
Se 8.301254529953157 9.58656138830903 9.756350859688183
Se 6.421600247860404 8.036799741522549 10.257238142267594
Se 6.215854296837662 10.320148209640873 10.89395539618377
