8
Energy = -27.40780989 eV
Se 11.907657471734664 8.237077090413177 8.486079019418248
Se 11.889167068642134 8.882778191118897 10.809391616219575
Se 11.28216863050534 11.139033556769244 10.779239058605164
Se 10.034079178585133 9.2642616332407 7.521485428268773
Se 9.072169607732206 11.132271414105828 11.620909475596282
Se 8.032253033973939 8.06182987693401 7.634842261020966
Se 6.989833758721822 8.736108498446095 9.717392705689802
Se 7.4584740693447 11.016621889385414 9.891877999041037
