9
Energy = -29.94255661 eV
Se 8.040440407146344 8.915170556566666 10.926991864262067
Se 10.919797609862165 8.17987856034437 8.360241017063196
Se 7.960902591372983 10.257929618249888 7.265108892730206
Se 7.46020858110646 6.6066892567081545 7.937295441000785
Se 10.605276932304337 11.309592114492046 10.577226227246356
Se 6.7775998869125464 8.363133839974989 6.5039667040659745
Se 10.595074905497372 9.10589386702183 10.77800528660954
Se 6.974340543140285 6.960602893039438 10.255969091651762
Se 10.339033150214535 9.973783901159393 7.067870082927139
