9
Energy = -29.8257679 eV
Se 9.075641773669332 9.233700714871357 7.630285455693376
Se 11.196449913889154 11.082898862224026 6.641454707809986
Se 10.15808103617362 8.660833170721471 11.463750635950838
Se 7.234645402995314 7.887531869443945 8.269108710308615
Se 12.464548600944857 9.60134893445982 7.802101723231283
Se 6.806999313635251 8.220876728953433 10.666368286552839
Se 10.826438104890231 8.1106372780866 8.793900719383013
Se 9.353790463812603 10.739237969185005 11.546688371210216
Se 6.843784623830155 10.423313705894858 11.146720623700883
