9
Energy = -30.50094779 eV
Se 6.413640887688379 9.155477829214192 6.186712369187929
Se 7.8793628667235005 7.343960887178385 9.087533469505143
Se 9.994335635260766 12.109031648571593 9.21654097014125
Se 8.229129527940087 9.254584405100866 7.470721462899153
Se 10.0205197083122 6.590317871913961 9.510374782825828
Se 10.795326637652398 11.346927722168452 11.330486453180692
Se 7.849388170498895 11.332285949157393 8.852560659938803
Se 10.83480996472904 7.557661612514349 11.534188383816687
Se 12.111949912836925 9.438215385822865 10.939344760146708
