9
Energy = -30.88332621 eV
Se 8.927699911947512 12.11810126239622 10.612855597703415
Se 10.491129895973572 7.012331486175349 9.575004900520616
Se 12.007701220776534 8.573326952271678 8.52061019618125
Se 8.977687405372277 6.439985031221614 7.967253304691992
Se 6.7809766798942 7.544598187316928 8.479634585524925
Se 12.186695846970714 10.492001739028955 9.847493500417293
Se 7.014152759549391 8.755074733075181 10.401839572061997
Se 10.692700936735912 12.136126704426545 9.044512225212419
Se 7.053892872202208 11.061091433509848 9.683433647108277
