9
Energy = -29.40193663 eV
Se 11.561895507759825 10.246384776414201 7.164644001655129
Se 13.665092724026504 10.431757695254504 7.80388833367853
Se 9.253409690265292 8.047996206539029 8.690568039547458
Se 7.267196638771055 8.564330302049829 9.673998232330943
Se 7.099710482327938 10.956670964613668 9.630645575412112
Se 10.715130574066936 11.202015002550064 10.363821058465401
Se 10.686167289417087 8.532729779238444 10.937903896091212
Se 8.69756152631697 11.565469743473104 11.331672624485936
Se 9.09156863891775 8.490378601737072 12.44059131020305
