9
Energy = -30.73810525 eV
Se 12.470494775286797 9.062289451169429 10.01502736230086
Se 9.549614710681961 10.528061988837004 11.98311431286748
Se 10.954395054782747 7.533592258285749 10.738117614854659
Se 11.345641147888385 11.251225059321992 10.937303878556067
Se 9.535516478703608 6.944945989727018 8.893647497973012
Se 10.335410219421883 12.307489998154445 8.717835851224738
Se 7.493284338945707 8.055851148871856 9.211169442065836
Se 8.157391734924731 11.856807331083568 9.143031062104082
Se 7.493822546765902 9.949030237321155 7.832158475644969
