9
Energy = -30.53325971 eV
Se 8.07093959538507 6.813085773696243 7.841772120108597
Se 11.255627028207352 10.362742685886742 9.33088920756467
Se 10.034009719093508 6.756287325486423 8.869158605105373
Se 9.802279034586514 11.857727193604148 8.169645984896345
Se 11.601649803696015 8.527316128315547 7.985421825090104
Se 7.82770543772102 10.645794492860574 7.757470257418249
Se 7.084327493999906 8.119684129933308 10.463528235444345
Se 6.627347721939759 10.423448267392715 9.740094541323959
Se 9.152593571899908 7.950393409353093 11.298498629577407
