9
Energy = -29.57444407 eV
Se 8.862551668085606 15.40061552510956 11.660485391993415
Se 10.935891317413523 15.284431208193329 12.51178131855224
Se 11.660687004470216 12.99571945047504 12.08232425778225
Se 9.668543492322419 12.422824862897208 10.928387208482235
Se 10.381937140507596 10.503303271409745 9.742495001867367
Se 12.097692082250129 7.811828342406525 11.691812588385927
Se 10.020581453732321 8.625542510472327 11.196684840338376
Se 12.609989686800168 6.704467267923987 9.461063936439887
Se 11.073105376740163 7.522221500452223 8.091044075806114
