9
Energy = -27.55009385 eV
Se 13.478566581760397 12.71415058007632 11.173879049055401
Se 14.290253314717926 10.522734503308993 11.846593697217278
Se 12.794871834491069 9.587492821109487 13.221620740027129
Se 11.524084829488755 11.91263257319275 9.961832152071114
Se 10.782643355839616 9.333680502169242 9.798918401625293
Se 10.054294382123386 10.713309909740115 8.02845415243851
Se 9.196772984298814 8.521077538709049 11.114466969448934
Se 5.959695950461685 9.66484567792209 9.075470795729109
Se 6.385511061269755 11.466411833957187 10.247703122714606
