9
Energy = -28.77287865 eV
Se 13.059409642524226 6.938906438984811 8.652017431860672
Se 13.797787149512349 9.31474420794026 7.733130112749974
Se 11.921540208828116 7.742859504346417 10.34913308759183
Se 12.752097947654335 10.440152981482711 9.300924447795516
Se 9.380901503858722 10.043958961347775 9.961295738371788
Se 9.80931470095588 11.102750079100023 11.866882566508187
Se 6.034702245615485 11.117527998930376 11.385408511037584
Se 6.993984799565567 10.428418190529976 9.341659791603442
Se 6.596775710631188 13.260670476747062 11.77350750416026
