18
Energy = -111.77183261 eV
Ti 11.767306249432117 10.444229058671395 6.456085717336375
Ti 10.359230251300172 11.87081871750028 7.979798219470519
Ti 8.819519660372544 10.214909631338903 9.410675122927183
Ti 11.014348175582004 9.04617220762207 8.405863580177652
Ti 9.418214001813968 12.8276482071732 10.357173551883449
Ti 13.165776313386356 11.0886100936178 8.511745692469516
Ti 12.006710932154647 13.263636851873947 9.618215368906846
Ti 11.217196035816427 10.893731692623316 10.317846820528397
Ti 9.144873813284196 10.78316371635224 12.092927446561626
Ti 13.012267246536187 9.014266396535778 10.215642532797448
Ti 8.995579823859147 12.963943787760577 13.358166398381035
Ti 10.458099646091219 8.407322692289819 10.9640729776762
Ti 10.05539405281519 8.921337154179618 13.655518399108109
Ti 13.638750629133598 11.569686613397996 11.08752108319038
Ti 8.43972453799146 10.76848752163829 14.59085474845681
Ti 10.842436170956425 11.349369133918557 14.234730238877043
Ti 12.278093537635563 9.79929831534205 12.59676320496631
Ti 11.430628077024965 12.830286691947878 12.206886906222968
