11
Energy = -63.81254956 eV
Ti 9.05521694097727 11.642184159779978 9.751037093056581
Ti 6.8852542846733344 10.047622102672948 9.450027724129129
Ti 11.363324136156825 10.331969772843296 9.963685271459102
Ti 7.755599608759482 7.654088195821076 9.46272832053549
Ti 10.444478552606828 7.83716747932452 9.78301035770478
Ti 9.116261710155266 9.49741819725557 8.174813372942284
Ti 8.774413046586808 9.389799444893418 11.152475706000708
Ti 10.27040881378883 11.304844667769633 12.147179153642734
Ti 11.155037282040512 8.916817443535216 12.168341220669973
Ti 10.789406371734575 11.457262276692608 7.660091293666112
Ti 11.655832385257701 9.063421057014999 7.685056901235154
