15
Energy = -92.68970877 eV
Ti 12.089543922512195 12.603300820486297 11.47425242716918
Ti 13.015148451547322 10.25494762545256 11.192650893149324
Ti 10.783125887678805 6.910095744016243 10.706998530245231
Ti 10.822004484962534 13.672382444919966 9.785467068699997
Ti 11.017604803473018 10.939890770921634 13.04051008123538
Ti 11.189969857424117 8.604671037635057 12.248539314658718
Ti 12.191986655972174 11.520525842885293 8.836433367118124
Ti 10.500932221532098 10.655171428002381 10.479302841286945
Ti 9.320030396946985 12.300801791582574 8.573092972588416
Ti 9.218392852215041 12.549781296777436 11.641423217894145
Ti 11.909753166034932 8.774302852985038 9.302070084190907
Ti 8.705342759634645 9.900345810924582 12.309413272498482
Ti 9.850152050311717 9.892391098387932 8.044063903753958
Ti 7.937396685100367 10.602245191959785 9.867616112362452
Ti 9.00792884484101 8.344451696826004 10.01958236696324
