14
Energy = -84.50745338 eV
Ti 11.701705783652773 14.369698542730927 9.032696009587351
Ti 12.701805216271515 12.816425689729007 12.938543407921149
Ti 12.88183831420511 12.10480638617584 8.815018651807804
Ti 8.840241206514337 9.985210351787327 13.547952046654268
Ti 11.34114046895395 14.778338534857326 11.540000249426177
Ti 11.194580414068787 12.37297604088445 10.665518035401112
Ti 9.64323299242949 10.21256715795133 11.394559920911528
Ti 12.176606094461642 9.939448820495809 10.99989688664802
Ti 11.02104582773754 8.546672673260762 12.916058805571735
Ti 13.573724094476061 13.88913738205938 10.630298408766926
Ti 9.823712319151218 12.71355079175452 12.7588724654081
Ti 14.16922737513882 11.543317143796104 11.051339871864233
Ti 13.512718271871448 10.071526497516405 13.13766182015283
Ti 11.203360912370643 10.873784768176584 13.699674143056313
