11
Energy = -65.30107356 eV
Ti 9.883548916066061 9.55508736310472 8.813866338927246
Ti 7.264799350587124 10.136076575730499 9.549184117810565
Ti 7.768572997617264 7.838559239909719 8.759965284987459
Ti 9.488130169433884 7.65133886144833 6.9261767035935
Ti 11.22161628076286 10.492926244154884 10.93688167595907
Ti 8.835604398220141 11.197060953006842 11.096362716685716
Ti 10.051411941985775 6.849796705007561 9.285904781358443
Ti 9.27975124478587 8.5945779932447 11.134251946191192
Ti 7.9881492539888015 9.861425449524974 7.101763346410258
Ti 8.933715246140633 11.948607851992271 8.718221696487966
Ti 11.812454379793065 8.438337772434457 10.226484882657536
