15
Energy = -91.5429894 eV
Ti 10.388445722230585 11.14368477007532 8.326923660390136
Ti 12.344090420679802 13.06542586627093 9.039893760018783
Ti 12.744348568631295 10.651279279945083 9.46901160462621
Ti 9.765482629278821 13.404077422276925 9.37243871552228
Ti 10.493922699440784 9.207156557465096 10.184117841461731
Ti 8.403372016905672 10.76719213273311 9.770541280587565
Ti 13.652713589538171 12.322563171108518 11.289112357885001
Ti 11.674171110539483 14.013456179123455 11.316065530854049
Ti 8.358123208038705 9.915279063609889 11.72053580418998
Ti 12.733322145962173 9.792532741768722 11.768361292419023
Ti 10.788531370752413 11.690699812959924 10.946705955270321
Ti 10.57260338412691 8.419474684359814 12.655119864978818
Ti 12.329996916219635 12.199393936551935 13.368706329877876
Ti 10.266700009091792 10.670650615919373 13.444314783276186
Ti 12.372472578170818 9.625430135438874 14.216447588249109
