19
Energy = -121.41088604 eV
Ti 7.862791020412461 10.264904129565181 11.54389997791098
Ti 9.241486050127683 8.08369388407901 12.315933086860838
Ti 7.838015121743104 7.916451189134286 10.075720984375158
Ti 9.640064985073536 8.434663770584153 7.746696439188593
Ti 7.898706652144699 12.32027459342509 9.7811825579792
Ti 10.134230228253848 6.601038205712354 10.272256773062852
Ti 10.206555783377922 11.285236482630074 10.274124077772498
Ti 9.194899931763251 12.674042603410102 12.092323605525168
Ti 10.748833456660673 10.392570829257401 12.7347390618842
Ti 11.803181898469601 8.041726219659482 11.786482850706177
Ti 10.12124915053227 13.728852713958236 9.779463480018455
Ti 7.696420965087905 10.040325859327439 8.850081565830937
Ti 11.871207006188484 12.650543052399488 11.537847112837232
Ti 12.818530869491077 10.20958459966663 10.569469414530445
Ti 10.127712945967225 9.073726510383766 10.060884808944472
Ti 12.165179200883564 12.267388125923326 8.908869757261748
Ti 9.673755961784254 11.360884452783782 7.693574119415662
Ti 12.220877598666172 7.864151535941793 9.179558153121265
Ti 11.912819936885958 9.98702783409959 7.993263103030474
