10
Energy = -58.39329101 eV
Ti 9.35824838109846 6.613066040652681 9.679659069490553
Ti 10.565338498193736 9.007787986088791 9.995769465949023
Ti 9.28438236831492 8.39997360916487 7.82142054191521
Ti 11.259784655271476 10.3129133678996 7.797838266075036
Ti 7.6514282729043055 6.569302504576405 11.218206841143319
Ti 6.959949664968453 7.191325634337825 8.748930553014656
Ti 7.913565101231696 8.979030698727597 10.183105240657051
Ti 9.25842426358917 10.87561410947934 6.443973854697915
Ti 7.163725753806995 9.700289150076568 7.718096016728725
Ti 9.146554875782835 10.912098734158624 8.954401985490318
