15
Energy = -92.98176299 eV
Ti 10.53807419934647 9.513327117100431 7.384616424025956
Ti 8.58981905521042 8.285452085400248 5.673477635809689
Ti 10.452027741799569 7.029889286069994 6.3360276383254845
Ti 7.873761830297798 10.462328228894666 6.845234822193869
Ti 8.212715800909264 6.220687976391073 7.584103982851217
Ti 10.797660777692881 6.998752163413934 8.661606497094528
Ti 6.401754134549161 8.199088839832802 6.797895493086309
Ti 6.175534192152453 10.00065486625795 8.714469051520775
Ti 6.276242008630702 7.3605120611973875 9.223601428984322
Ti 8.48267300529119 8.557643217705868 8.520280306585159
Ti 10.789253964555607 8.991289354388462 10.04209935526742
Ti 8.735819865393017 10.912619552827751 9.424384289886671
Ti 8.836650280032972 7.049611311839542 10.533179702489992
Ti 6.967397104918853 9.219713893359613 10.879018605941676
Ti 9.153082019530114 9.48089602563148 11.662470746248266
