18
Energy = -109.78867496 eV
Ti 11.578318194726616 10.269994437762355 11.720970716400952
Ti 12.824294479596276 11.231970740860927 14.206943016562821
Ti 13.267670956221577 12.789341999830965 12.17405853777225
Ti 12.61413051427817 9.093927521938717 8.047400666892965
Ti 12.045539803600667 13.592852349385309 14.382066885956435
Ti 10.976568633846382 10.99308541333624 8.722663816269023
Ti 10.716321621456808 8.686863724804432 9.73514106582222
Ti 9.26648159307498 14.248490291564877 13.732622396970688
Ti 10.527410229297582 12.203294273683104 12.815300289302519
Ti 12.112504967370787 6.770033316150327 8.788631496717077
Ti 11.348707906635367 14.695628771797072 12.176690145873263
Ti 9.103172002197326 13.862099390438454 11.176264622724197
Ti 13.218654790736595 8.40122119944614 10.534476954976157
Ti 13.40523951466619 10.959111695590256 9.893464320142916
Ti 11.392391737786633 12.830481454759182 10.196205198813386
Ti 14.107527586787521 10.31053601581291 12.419448301733967
Ti 7.866102616107993 12.33996026079646 12.769958228835224
Ti 9.112395012851179 11.276635629434201 10.677495937185169
