16
Energy = -99.08885072 eV
Ti 11.025180772767698 12.475890219923242 8.887732144472597
Ti 10.389841098004567 7.537784309885237 8.487930393643985
Ti 8.75456490876988 7.927171745997616 10.530741169848053
Ti 10.483997673282124 11.36146368986629 6.851540033933409
Ti 9.919766094704435 10.069225443523537 9.27544319658057
Ti 10.378766989205761 9.002031970132093 6.593770995324483
Ti 7.674700114820486 8.390434986871307 12.96377160072269
Ti 9.65446616934822 7.441600596129153 13.040986713127213
Ti 11.432272331511024 8.433118281511067 10.802243731609249
Ti 11.84409229805676 11.078832321155518 10.887985852062064
Ti 12.24200459783556 9.908452302983111 8.442639995921775
Ti 9.316488290198036 12.244316155553088 10.878401503500681
Ti 8.107212359377211 8.850963390077887 8.049496304590312
Ti 7.566741097991268 10.297076752526191 10.520994755014012
Ti 9.720649392328994 9.923115820421831 12.09671324732396
Ti 8.396706076031448 12.018608268693281 8.501539111806201
