11
Energy = -64.33640452 eV
Ti 9.724077437567656 11.64514490720436 9.171232618958019
Ti 7.417598218841643 10.222801089287698 9.264769141311747
Ti 11.744631522036697 9.95521397571951 8.598570656992882
Ti 8.926357312670833 11.201902963872405 11.306231688989282
Ti 9.427151912977079 9.935860937799566 7.33009796239173
Ti 7.721287510477637 9.419214445601929 11.814249829612045
Ti 7.985789752301858 7.935528910804233 7.918924329574437
Ti 12.113383369547165 7.647144901754623 9.417724664582435
Ti 9.595556008815215 8.949562952918802 9.857489697390529
Ti 10.73800687965311 7.7496251886107 7.596455674843157
Ti 7.019372401124419 7.75134739159681 10.152488231894106
