12
Energy = -72.77174323 eV
Ti 8.127732032076429 8.232373224636985 7.153760581286387
Ti 6.818563663720195 10.307883991864653 8.774945584089036
Ti 10.687612161329646 8.658314473855214 7.445986623653632
Ti 7.770452655063191 10.131024215830822 11.526335080595253
Ti 11.094951446327944 10.779908429685463 8.957020186133285
Ti 11.500561153497207 8.336628232492071 10.033212358478263
Ti 10.338121894900658 10.183099157047591 11.47535276154585
Ti 8.977281794616694 10.67973721893458 7.372111530840621
Ti 9.446308005727598 7.701890267362832 11.542056245715726
Ti 9.93765480782855 6.69070029013697 8.832043452138914
Ti 8.779319588453504 11.690318597534 9.815161773944725
Ti 8.919941145129927 9.006622249289972 9.470514170249622
