10
Energy = -54.0072649 eV
Ti 16.63373088369658 13.461023370680085 14.479177938797328
Ti 14.056279776815291 12.87785792856903 14.711975389814729
Ti 15.554456493697362 11.690843727878235 12.905231585829053
Ti 17.331723657034043 15.335461973685524 13.064072432911958
Ti 5.030642266361456 13.24972425361297 14.021820499321054
Ti 17.69146727943098 12.942303390770789 12.194309157058292
Ti 14.72875126492352 15.270281224883336 13.871835933624984
Ti 15.55453174331198 14.032454687377003 11.834462486581801
Ti 13.143996988168658 13.386832086286159 12.574782584143565
Ti 4.07939850506246 11.558196214759004 14.147310850419391
