15
Energy = -91.57070751 eV
Ti 8.126830931000631 8.268876810469694 5.41066224323206
Ti 7.963855905096854 10.779360901191946 5.572220099678639
Ti 9.693690758475366 9.4728970541889 7.018176118747114
Ti 6.858786799941829 9.50513574784305 7.542179315002747
Ti 10.15331471540706 6.74693395922737 6.518888581083221
Ti 8.15143983747061 7.182266578244177 7.927703200752329
Ti 8.242226262638557 11.594883330027711 7.923643837576237
Ti 11.015713220372048 7.867477071243664 8.612350512912393
Ti 9.970057258242845 5.59319288260823 8.956966234469892
Ti 7.829159712192544 6.391060353030375 10.482841672122037
Ti 8.95437102151358 9.508377235418916 9.536028797679934
Ti 7.7472598448928816 8.687247726001743 11.678754289136835
Ti 6.261527954861656 8.191865642417818 9.697630218352655
Ti 6.797708061171798 10.652017595627981 10.093038738784141
Ti 10.048913694704906 7.373263090441321 10.843772118453526
