11
Energy = -65.33554098 eV
Ti 11.798835255458753 7.42745124919365 10.694094892377324
Ti 11.369740997723005 10.229888942490074 10.850007897752418
Ti 10.337868605476569 8.801202320666627 8.845107667442813
Ti 9.592955368514376 8.37345174836909 11.404712928100023
Ti 9.905955351875571 6.3573031205244686 9.869045477522443
Ti 7.953328744470703 8.212801890873656 9.360011982880167
Ti 10.63727665452053 11.385061655708448 8.604534900208614
Ti 10.337845796343968 12.851350758842766 10.614279263738178
Ti 8.769841983880728 10.63416676492343 10.410591090613003
Ti 8.279538285475814 10.428261198077658 7.955332785480182
Ti 8.643554119830972 12.925801513901257 9.019022277455965
