18
Energy = -114.47644715 eV
Ti 11.457179908093677 10.014630803873358 12.841344502924875
Ti 8.929594344732317 9.287529021779338 12.565572636247754
Ti 9.376003938693602 11.670129164136547 12.832219160811418
Ti 11.572630207785505 12.899885041303625 12.396929383831969
Ti 10.61360702468894 7.692885979823951 11.289246606302047
Ti 7.725786819428426 11.113041043170789 10.810924715583758
Ti 9.673515265344045 13.00728929230619 10.706466906290364
Ti 12.84020186012026 11.562287050947196 11.023734512171185
Ti 12.878200103899124 9.028684709981265 10.967223425245814
Ti 10.350596617828234 10.215153414633146 10.205552732519516
Ti 10.622250707238038 10.199240194510075 7.435782021023752
Ti 8.112098458382228 9.879271663068195 8.431547468423256
Ti 11.85403632191988 8.13716438723062 8.89192146762174
Ti 9.053041401893742 12.095663121515276 8.531698600802331
Ti 11.523154555658811 12.499200430331006 8.839751372571927
Ti 12.897485652995421 10.403811249900423 8.779489862669337
Ti 8.078572297627508 8.426447865246729 10.508844023898662
Ti 9.586940505370212 7.858030374073236 8.628489506808336
