16
Energy = -97.09423809 eV
Ti 9.997326039178764 10.685299870583266 14.067061266604464
Ti 8.708930278207793 12.582302348171126 12.213423141512154
Ti 9.54481086882758 11.959213162595685 9.637011359979795
Ti 10.53616065751746 13.975069205724875 11.088472301181746
Ti 7.0626562237225805 11.629141960892902 10.317475673392757
Ti 12.958440161968984 9.346543687694554 8.578878846513895
Ti 8.198985235717837 9.783589437161448 9.049853931172766
Ti 10.786614539254789 9.405273693891415 9.984570720044976
Ti 11.21668795323316 11.57258327401706 11.944564564732493
Ti 11.07433871498873 8.80075570202028 12.530855235072572
Ti 8.66859930101124 10.11633505667418 11.665482651174381
Ti 12.187597667669504 11.752544492680341 9.393119078969518
Ti 12.453807676201905 10.217046039584396 13.910856322223346
Ti 13.254620523651788 10.035597182612662 11.110004411934302
Ti 12.759092677433966 7.656615564223561 10.529725458199579
Ti 10.665286748105649 10.537399529722853 7.678309482489835
