13
Energy = -78.4889478 eV
Ti 13.483862736105255 10.671805974847395 10.815167485434435
Ti 13.51507555937379 9.222279360550958 8.959057534200086
Ti 11.823649105296074 11.096818725621867 8.962079900648831
Ti 10.796569189373106 11.402500400450892 11.406027379764602
Ti 11.41589297317302 9.00437810144775 10.589088598142636
Ti 10.820430122521014 8.791087739805965 8.0801105861488
Ti 9.264101086771289 10.562945928949109 9.394132891654689
Ti 9.170498988410204 7.7862581867661325 9.85012168274805
Ti 9.173193414010091 9.49556741468408 11.996724569316696
Ti 7.7787099852225685 11.60647949932565 11.283377835833729
Ti 7.838583600400708 8.939128575254232 7.97270599491544
Ti 6.684830170836607 11.125810418087681 9.08187352522058
Ti 7.126960865186552 9.187297470888284 10.501889812651706
