15
Energy = -92.89115238 eV
Ti 7.340665735271294 7.96044522732814 6.548736758243531
Ti 5.993941113825579 9.552357024617825 8.153929647959963
Ti 11.098386627800604 8.850723739549005 8.915087901167142
Ti 7.010914882547277 7.130082152969223 9.1204556649012
Ti 9.236933203371585 7.7223417310352405 10.62194322087846
Ti 6.966097763864666 9.41980172638672 10.630549142394939
Ti 9.648864043553312 10.538739660829393 10.468253347370046
Ti 10.037786276877132 9.10129449973351 6.378867261762108
Ti 11.156566333696396 6.045349551796521 9.997962424740678
Ti 8.51897701700572 9.193374112593503 8.503535919019951
Ti 9.989213664316775 11.244630996073594 7.943865778768615
Ti 9.538043044784947 6.780049773832599 8.044282999984969
Ti 7.5385389798902445 11.540482900430774 9.020192541707807
Ti 7.8048949836915185 10.68706801907167 6.513331444773096
Ti 9.04476743136943 5.157849985618586 10.063597048193229
