17
Energy = -108.44142382 eV
Ti 11.482159850358336 9.917746209695277 12.873451399852158
Ti 8.967870171616608 9.512711273412688 12.656871417004453
Ti 9.9013854566264 11.843872244516394 12.691211014991994
Ti 10.645527092631884 7.783266552757905 11.306696180819277
Ti 7.785233548820439 11.361253503983743 10.94805734620985
Ti 9.862598475533993 13.162188144644219 10.70544458222543
Ti 12.334039382376897 12.064068365734114 11.365343360355642
Ti 12.904722950482984 9.37470887699264 11.052672290933447
Ti 10.340876435000496 10.370462638359374 10.271918475553317
Ti 10.596359988100277 10.302632066748275 7.468997379623519
Ti 8.07498758820949 9.986713899938218 8.557533262049992
Ti 11.95182978152774 8.38231114296784 8.939410605003372
Ti 8.922788460173393 12.210354721049278 8.560947994485828
Ti 11.426723751457459 12.609475525146957 8.819871788168374
Ti 12.860281964723844 10.733653167209741 8.982339966864195
Ti 8.085837752830162 8.631453918819707 10.63728048115998
Ti 9.606835494836691 8.027659674673412 8.745697277062682
