18
Energy = -114.62494655 eV
Ti 7.186213208270054 9.533305507598492 10.43811107629322
Ti 7.873220007281651 11.808264181896906 11.167724490696783
Ti 10.416202156980281 11.706455055895654 12.306985622967506
Ti 8.58027789521165 7.658157523285938 11.398032982227543
Ti 9.38952703838552 13.008205294395289 10.008840865699193
Ti 10.966466270335435 8.854129056785105 12.422999203800765
Ti 8.558416674202595 9.88163114165992 12.587342658363717
Ti 8.52302785868974 8.226628966815435 8.599337902982152
Ti 7.982117547740911 11.089101089771177 8.48048933251285
Ti 10.495319666325724 7.082775923087525 10.266625681650488
Ti 12.613736428832155 10.609065475275548 11.331328110714871
Ti 10.08469428514801 10.093456334695194 10.040265725004154
Ti 9.955597051019579 9.923615127076621 7.172002124405051
Ti 10.467446929474686 12.126945041448604 7.96463322587004
Ti 11.199142579582482 8.126468787052234 8.14688904588633
Ti 11.799119360330181 12.469796008946155 10.064881386928343
Ti 12.54124864945623 8.476269496684644 10.2477415362493
Ti 12.479801385968525 10.442796945564982 8.453050051742677
