11
Energy = -65.77697494 eV
Ti 10.00989617074032 9.754733406885443 8.872496882235367
Ti 11.832478429021267 9.961261292939081 10.835860235598258
Ti 7.412932224639719 8.880201082256963 8.061583614980423
Ti 8.008188267999678 11.400109525126012 8.518006046368827
Ti 8.640482135969227 7.404562279575251 9.790629716095165
Ti 9.62660944581823 7.618397561207676 7.4137907413881745
Ti 11.214295607974755 7.612498011227608 9.763904999163245
Ti 9.7880479265547 8.868925897142958 11.579883004819662
Ti 9.596349491432333 11.392451080086733 10.867703135460383
Ti 7.630992043599974 9.762960241797124 10.478933927272449
Ti 8.871339835933224 9.975511121755288 6.448819116934499
