15
Energy = -91.14567795 eV
Ti 11.480004286725347 12.859799658803578 9.380166162200737
Ti 14.100590430560334 12.661155889069901 9.741265776753826
Ti 12.205974661922216 10.786541383954642 10.330906654154468
Ti 9.356730067559596 11.683527332297556 10.624667462617994
Ti 10.280050099838036 14.17299569370478 11.191707334084382
Ti 12.745447230855083 14.921995410240928 9.835170056209643
Ti 10.497407170364657 9.224312190008622 10.933446201160042
Ti 12.965144964107436 8.458142120297373 11.537012644926472
Ti 12.949533940564809 13.528815197920762 11.785041108615907
Ti 8.6135198702687 12.77378983184464 12.709030782822024
Ti 13.830766231010962 11.154174938877125 12.220720980620422
Ti 11.097091084317512 12.077623098497183 12.652914430366456
Ti 9.206379549352562 10.193233629365094 12.891506497066391
Ti 10.809542438618587 7.762603899314869 12.890760421504208
Ti 11.949399932352337 9.82887168422086 13.363265445315339
