18
Energy = -112.91335135 eV
Ti 10.470934871866392 12.14793819429346 8.553446002368391
Ti 10.121974631379922 10.570369933102784 10.705047837168719
Ti 9.11779330524684 6.965743239832603 8.595461918227715
Ti 9.642820665850449 11.744084553986834 12.919496885705254
Ti 7.361680460106641 8.766008499102687 9.200125310266857
Ti 12.649608301296233 10.935380764808109 9.920726770081346
Ti 12.044894370717357 10.636577808670697 12.422753029918491
Ti 8.695715797080931 12.756296340205578 10.655704913505758
Ti 8.91388886688047 7.862809434872592 11.089525084408894
Ti 7.90609005847547 11.248173320405606 8.816966345809696
Ti 8.743704748020487 9.118706944429386 6.877343530211232
Ti 11.318334796003066 7.629454856582017 7.501548821636061
Ti 9.89592306036794 9.142321082100809 12.886055121859597
Ti 11.705690152346124 8.336181926132985 10.455610340582863
Ti 12.411365806596004 9.496679072743994 7.95810311604448
Ti 9.927380342527053 9.395122690931252 8.759342834859476
Ti 11.287842941092757 12.861557985439749 11.124039208893262
Ti 7.6737588358238655 10.285595598702301 11.457428945687054
