15
Energy = -91.77327463 eV
Ti 11.738044816492726 11.864636976847118 11.324152385768947
Ti 10.351154150167778 9.914096449109124 12.24475024790611
Ti 8.744426853420382 11.780969435070514 10.673194259757512
Ti 7.681788209543893 10.819328324305449 12.464279557815779
Ti 12.70702625065921 9.50546320720492 11.004802879539836
Ti 10.61830864017828 10.33597744523737 9.544592414681158
Ti 13.015869767065094 10.936180065035716 8.86874286859115
Ti 8.310482358169542 8.941349836433496 10.635115089163238
Ti 10.744935082581582 7.791286976202147 10.690217302497791
Ti 6.376056194775615 10.602008728528206 10.188497520752797
Ti 12.283869450040367 8.441897589561473 8.665585704752088
Ti 8.28182713318363 10.617947088405725 8.29702941228944
Ti 10.992186287730426 9.91270231162657 7.0194597077235565
Ti 9.625534267058988 8.112989933475056 8.286987592871897
Ti 6.852096899524916 8.746771993549249 8.416199416480964
