15
Energy = -91.85946403 eV
Ti 9.512011485487935 7.772101510151089 9.444215273249744
Ti 10.749429471198212 10.906271405313603 6.598371106822773
Ti 7.239941012501165 9.03602970604436 8.871036586099647
Ti 9.828293612426014 8.09940966809056 12.086161100794627
Ti 12.284035420623596 11.07604264116131 8.688042861223318
Ti 10.574991008454868 12.889602468464378 8.26961790949876
Ti 10.388328508075968 10.48610993423465 12.940344358985884
Ti 8.071918924113506 9.364910932798363 13.271073937453547
Ti 7.427142388813478 8.043136754006289 11.078940755092669
Ti 9.05756888909619 8.702017687365455 7.023444542204192
Ti 11.53042506994375 9.46112550713231 10.72563688066181
Ti 8.724821442251326 10.433565776438627 11.062741228444702
Ti 11.456804289353109 8.741426252233783 8.006313840603573
Ti 9.593507092644673 10.506248591372325 8.785738358718692
Ti 11.104457498055437 12.025677278232118 10.691997373185147
