11
Energy = -65.45474585 eV
Ti 11.15225164706851 13.492994688564323 12.83666135866411
Ti 12.227540394907658 12.79961334657838 14.842689773863228
Ti 10.607333586492437 10.916714841420989 13.33739555962171
Ti 13.794775957614531 13.749579681757362 12.796836135732757
Ti 12.325952868724757 13.024595884286338 10.67871169181974
Ti 14.228976868375693 11.7245721329842 10.597707115121136
Ti 11.697137354476087 10.904267222809397 9.180158677112313
Ti 12.253438277086376 10.083551245156107 11.386320545625692
Ti 13.238317797344102 11.404404932492556 13.068338392391997
Ti 10.053068851201346 12.023542132654912 10.954254086578517
Ti 9.876302322071883 9.65647920236195 10.820447025358067
