14
Energy = -87.10940974 eV
Ti 11.310093367486127 7.911204665376497 8.361215280332278
Ti 10.333338842006365 7.966927864961067 11.136521615896438
Ti 9.155886124784136 8.541581664420931 6.921597105120353
Ti 11.922300347712735 9.996579376633687 9.871181591992626
Ti 10.058996019002931 10.825708303881559 11.542252517051212
Ti 9.419723505159983 9.426892321826976 9.394128563189046
Ti 7.902329174416348 11.458030684775075 10.103912644487954
Ti 10.265730885432813 12.051046253895539 9.278302352036443
Ti 9.04469480889997 6.757168841129001 8.767333165929598
Ti 11.044929134718334 10.253771594275953 7.325090896157616
Ti 8.459318700909535 11.00770582514166 7.556779690223351
Ti 7.814018828051469 7.181565315627149 10.823206999693326
Ti 7.903835579131265 9.44433159397139 11.709694646583936
Ti 7.081676602604123 8.894357694083121 8.925654851621974
