18
Energy = -109.22664485 eV
Ti 14.017300771513906 11.244680927844874 8.983949642138054
Ti 13.131812094668025 13.557418377064637 10.297523106545155
Ti 13.308417826032382 12.951811745272131 12.548398938604205
Ti 12.877276125011296 10.825410680200962 11.08144305538272
Ti 11.426720984844533 9.610677375839305 8.872090731005178
Ti 11.681187663370034 12.152667617671185 8.849203184458434
Ti 10.685498756134182 9.82469003744125 11.451478384737786
Ti 10.839667360946292 12.881126484103271 11.710695590804507
Ti 11.491054508077184 11.228654231093488 13.610505813797337
Ti 8.938399612352846 11.25724594749504 12.783934494410218
Ti 10.268369200107747 7.421306313872757 11.046321289630622
Ti 9.77483369541214 8.89363622649993 13.62876213684492
Ti 9.810931207955385 13.726508428101353 9.279569860865239
Ti 9.777192063092587 11.26169339127276 7.411120049949264
Ti 9.233893201994025 11.347592656855774 9.938355800590607
Ti 8.099759526111479 9.010593559097329 11.600360107081254
Ti 8.961666364627709 8.828133940758025 9.164296358437957
Ti 8.218072119843946 6.548583775644532 10.395099393935475
