16
Energy = -100.664865 eV
Ti 8.763542764444074 11.929184500367196 8.507954361607146
Ti 7.676038222624994 9.975843970276136 10.330977756404605
Ti 10.908060174602015 10.837500990029778 7.386108662860289
Ti 12.60806942834557 10.116320630948486 9.543551268148576
Ti 10.134332007488712 10.022578243325416 9.888438833803722
Ti 9.253629034763474 12.397725633489022 11.046325721328225
Ti 10.644999151388348 11.8764787520741 13.494567666454149
Ti 10.994062546209207 8.328219423592797 7.9526434382168745
Ti 11.532134848477536 9.464811742072257 12.235113419678232
Ti 9.26894321396948 8.141067049529685 11.771810803693258
Ti 11.373144191941082 7.636958292823352 10.361591862801973
Ti 8.994670359946221 10.331620915350381 12.679701507951961
Ti 11.177348762044101 12.527584869904224 9.212233500270282
Ti 11.899674049212262 11.951415572414016 11.425242482285157
Ti 8.912251807373533 7.619011932386777 9.353405462819506
Ti 8.663609655785057 9.537719431441232 7.664444307278171
