11
Energy = -65.77773956 eV
Ti 10.131593059301608 11.666091784786415 8.026568259293692
Ti 11.655690645191243 9.577727274072087 8.727547403094404
Ti 10.016713950081998 10.55784800464951 10.503429740391915
Ti 12.113154268778707 12.094976503706558 9.344855124637208
Ti 9.875752645775787 13.15970952832334 10.224922924401012
Ti 11.121597727917088 8.275741896244897 11.191437409391128
Ti 12.825347574668433 10.199684591701883 10.942309424002419
Ti 9.312788350949946 11.836695892434857 12.67107931192115
Ti 9.08617522169658 9.20230832656309 12.5973351674092
Ti 11.704210951028847 12.419969947689665 11.879089328148591
Ti 11.29770894520796 10.149979590426158 13.032159247907371
