10
Energy = -58.81954951 eV
Ti 11.441259213436409 8.703873092965303 8.857711476666843
Ti 10.725286036044242 10.805133127619795 10.440741335663246
Ti 9.666921783182548 8.473197736733246 10.420129793246828
Ti 9.206921928708912 8.31109892444417 7.307479032141678
Ti 9.530303056903765 10.473530928126733 8.32243002717719
Ti 7.040817703237701 9.840773414975818 7.705669456045593
Ti 8.11613986826592 10.658737794542366 10.38000095024577
Ti 6.879187951244746 7.24664341645104 7.408656511095562
Ti 9.11983665849449 6.395555395911715 8.70784147856631
Ti 7.417218854506242 8.23534922225467 9.59323299317595
