10
Energy = -57.91378297 eV
Ti 8.766407031499048 14.044869304979391 10.75880648419971
Ti 12.729450282893193 13.015562237680852 12.071831337214471
Ti 11.057928070307744 13.62262851122161 10.119599146742244
Ti 12.260557974875669 11.060233457280134 10.466735651172623
Ti 13.317810814087958 8.694616886092067 11.025398016840604
Ti 11.225088193329514 9.303898662560501 12.067065293453364
Ti 9.833057038260858 11.702055189009615 11.364883347052045
Ti 13.429626703946644 10.5303912233714 12.733363990836095
Ti 10.41785805832257 13.899839994107609 12.634064295727052
Ti 11.228371202106963 11.512162711043384 13.520975144721184
