18
Energy = -113.70473426 eV
Ti 7.548883397706677 8.2554025159733 5.983997643027736
Ti 7.50475529596744 10.747760971078781 6.183348477923064
Ti 9.923330084076667 9.315032530470322 6.5893378410579
Ti 5.247643369462611 9.527582828045057 6.670623455864122
Ti 9.285093121451208 6.391786188860372 6.903321128055903
Ti 6.006137549254147 11.61437483413935 8.034358734016692
Ti 11.488616423720694 7.812520549223272 8.03330745331222
Ti 8.78772095482015 11.178663125647955 8.3614176635533
Ti 6.570462173645894 6.790373547724515 7.718477926982898
Ti 8.960754627481979 8.029290179462317 8.827893974811028
Ti 10.77812723279023 10.091033482414122 9.063006756280096
Ti 10.49230865967788 5.895410870050589 9.358458414313812
Ti 8.053013179211376 5.4692601701307515 9.25465400949472
Ti 6.822874973723565 9.342322577861985 8.529242747640494
Ti 10.97598233214272 8.227975250400467 10.654376556778969
Ti 8.662100215470046 9.651310271646004 10.832367382172029
Ti 6.6534489103132755 7.4581499419932955 10.375496740717995
Ti 8.912938003755317 6.8759406695498635 11.300503598668604
