17
Energy = -107.3492611 eV
Ti 10.783411783082869 7.553712006262348 10.08045401155116
Ti 12.225875773756682 11.150787074417766 8.4641474316178
Ti 11.185982533448419 9.07912585138851 8.081413930668216
Ti 12.836078905897217 9.21119103999583 10.470673748203344
Ti 8.809486393549294 8.735985161807493 8.743143504831215
Ti 9.445888452249905 11.365474429872126 8.244446572358692
Ti 13.2782857942126 11.735748006086176 10.624222040309364
Ti 11.060797558456958 13.04629953155387 9.861474283050761
Ti 8.623151712143143 8.346705872704602 11.361155620972442
Ti 12.628667515315295 13.387338041336573 12.194033879254242
Ti 10.41306985845923 10.362824592716583 10.429090325956873
Ti 8.611786016197861 12.493076141436784 10.651755222093085
Ti 11.919555042685086 10.765171697648384 12.709234945435675
Ti 7.645085099555179 10.402509966336348 10.196134055805466
Ti 10.926009569334344 8.541466271014125 12.416459213442955
Ti 10.30898503330384 12.872957973012484 12.441843292320128
Ti 9.035285194007526 10.626947874787838 12.705572475140722
