17
Energy = -104.25677907 eV
Ti 11.680791210276917 12.092543149236525 10.156286906029047
Ti 10.036406494274763 14.036131975921384 10.224728947074272
Ti 9.146146928564582 11.749269514124054 8.955366279945935
Ti 7.851930153484425 13.661551552577059 10.347986812498428
Ti 11.449817255440484 10.50505596816302 7.922646288121305
Ti 11.67312969358814 10.437348108894938 12.367395911327808
Ti 13.148125659721648 9.84004617327253 10.057913450695837
Ti 9.276591982131627 11.70789577354638 11.58554967585363
Ti 10.530046703387281 9.702035246735013 10.187779247699346
Ti 6.739078338872649 11.828582292745356 10.357749962412887
Ti 13.434912017396712 7.462955999055271 9.974367288431015
Ti 11.394137334582442 7.844670513850369 8.55849200389612
Ti 11.578527419303612 7.798651492187912 11.644573743439029
Ti 9.101094389780048 9.036768698398223 8.069191809579651
Ti 9.354704731667226 8.966757062842582 12.428992569921979
Ti 7.759837335099778 9.46259167268492 10.34156489969512
Ti 9.343032089510894 7.333660852903176 10.213019253184077
