13
Energy = -79.05701494 eV
Ti 9.54042975458223 11.234497400149154 7.990783074701915
Ti 11.96264605296921 10.030734422660997 8.56787245831971
Ti 9.34568413382033 8.79455970204475 8.704226523144609
Ti 11.274577330999925 7.783538544091297 9.874409026018206
Ti 11.375241797750965 12.622680359655588 8.977275646702655
Ti 7.739750877905485 10.219468100337645 10.087021419802236
Ti 10.331344129599907 10.523848506531042 10.39806315924017
Ti 9.355878853926077 8.55476188021016 11.590122333213346
Ti 12.538367722644919 11.75233651868006 11.02726474356832
Ti 12.362904179546508 9.171412261133018 11.481845424249833
Ti 10.164230793187505 12.885035956057749 11.405196157966163
Ti 8.470394269676229 10.970882060586113 12.357300646880892
Ti 10.913542911224196 10.831237095695785 12.913612194025397
