16
Energy = -98.36751442 eV
Ti 12.040611318001957 12.02615268004916 8.67404455705132
Ti 9.75981839789939 11.588854174250745 6.958124448062259
Ti 12.7844877976664 9.773329020887445 9.307851025875106
Ti 10.330973662501615 10.081613738513662 8.806318248107742
Ti 9.673473251035682 12.617895764843084 9.361789826157818
Ti 11.223531807715224 11.138716724535314 11.126526454426392
Ti 10.454635150076165 7.352934859858979 8.965643378728194
Ti 11.556866355333906 8.479851372159196 11.104095206243526
Ti 8.419627860881628 8.62808302734494 7.65732268142724
Ti 8.479693730833882 11.377301346969707 11.1600345873681
Ti 9.675470352730878 6.808568958139653 11.41571002584205
Ti 9.803415259873063 9.453071710572575 12.715045867778462
Ti 7.8581910826065595 6.720792094192025 9.450984518855943
Ti 7.725015800931283 11.069969332532189 8.519059381023311
Ti 8.68919935125906 8.914817081128263 10.463189118348193
Ti 6.406251814890262 8.849311108260142 9.195523668941147
