19
Energy = -119.8907248 eV
Ti 10.014602597585503 8.466411122971572 7.619655962180333
Ti 10.064793044804887 13.226165325377332 11.252256174809906
Ti 12.380606515725859 12.355973012913879 12.261595303474515
Ti 10.539004002237867 10.490445588349132 11.457368210238231
Ti 8.851081439220273 10.679255191514871 7.092348659536225
Ti 9.361886538520626 11.860673765031486 9.24965512060575
Ti 9.440826499928143 9.760167129996452 13.856779770195894
Ti 12.019784925060916 12.175766663844023 9.784285353773926
Ti 10.101198392422994 12.189035957101517 13.53844538792403
Ti 13.002447476402645 9.869535341705722 11.234176019025577
Ti 11.29712740755016 8.207597273878967 12.76244256121974
Ti 8.836837404927559 8.376781451033668 11.881219466015528
Ti 8.532197690307042 9.331827266676818 9.595563666797954
Ti 10.920724582190006 12.269658009234066 7.064420697378352
Ti 11.592004578689957 10.086537620961044 8.590701016296832
Ti 10.901534985642831 8.021572052020074 10.255641781211597
Ti 10.988578780453397 10.13353942081371 5.896356900997649
Ti 12.019347372569857 10.357580612107945 13.794772959705146
Ti 8.119547676545064 11.125609105253435 11.796446899398687
