15
Energy = -94.4510095 eV
Ti 13.84633587786182 11.457122283973293 10.332297168167884
Ti 14.04528949016752 10.19068795889638 12.450381958026101
Ti 11.449174552443813 10.224742524576422 11.484975560782761
Ti 11.735457600069058 12.723535249695592 9.737664834487312
Ti 12.364699151881922 12.442312008291461 12.449729780393222
Ti 15.120780093378936 12.716046867686426 12.3387846356986
Ti 13.776101815408419 14.131062833135296 10.798954786308988
Ti 11.404539146348577 14.79283174701635 11.381130329463902
Ti 12.232626311509009 10.29960684863004 14.128533717018415
Ti 10.074355797158018 11.3769087252895 13.591621851724781
Ti 9.831082490364581 12.60473201812778 11.409413527065823
Ti 13.38445856383097 14.555669264732346 13.51778667300899
Ti 14.185409450159701 12.102707293973962 14.545533668707991
Ti 11.875033608852254 12.766057051540843 15.145134030334539
Ti 10.375542787588648 14.058981315020374 13.585036269582512
