12
Energy = -71.3283729 eV
Ti 9.677463920465497 10.355387035960169 8.777089288862243
Ti 12.229753787014348 13.414973683829524 15.039217873902436
Ti 13.194727525575882 12.763899283573187 11.149697194245642
Ti 13.932732979254467 14.300143067108545 13.378016334676536
Ti 12.021056827552147 10.942280096907039 9.348987852074567
Ti 10.070858280621465 9.958673662938173 11.204182541222298
Ti 12.561237976956368 10.264801983733262 11.761001302343367
Ti 11.264883726836105 8.568652629622388 9.528413565415963
Ti 13.508827413140088 11.849360529250687 13.583429820317265
Ti 10.590691482474877 12.452640259465708 10.875716171953467
Ti 10.911145626839216 11.583070660404168 13.35287283614663
Ti 11.531899225143048 14.043937243666152 12.71747644868401
