16
Energy = -97.27619435 eV
Ti 13.109036159846834 12.194549545761316 12.402535500291444
Ti 11.12709519210397 10.927219599013496 12.78696311339415
Ti 10.37868722080427 13.331640855269976 11.760007437715387
Ti 13.025716091921138 9.385228645390299 12.941808166896381
Ti 10.146130656611074 8.479525684051847 12.606872539886359
Ti 7.769583781392736 12.987607468053264 11.383572514709067
Ti 13.618244490771803 10.433832589928974 10.705509626972578
Ti 9.28759382525656 10.779337640903496 11.259767089773261
Ti 9.340439919412672 12.807815481269595 9.423697259142758
Ti 8.8800179247851 8.47076601220873 10.036402604937841
Ti 12.346724806314649 10.107048959274122 8.25628061959181
Ti 7.400780958902253 11.0498639455462 9.670755153595305
Ti 11.781151966552503 12.09448705290815 10.033481803894572
Ti 9.728063451090126 10.340317645775164 8.494216840444565
Ti 11.447715751964445 8.971500949422945 10.578152818825258
Ti 10.918019733742263 8.064453946261013 8.190175867726357
