19
Energy = -119.67753293 eV
Ti 9.61391579181251 7.5888192183172425 8.034223318887802
Ti 9.781002720208596 9.677286375189786 6.815246499089493
Ti 7.314263806082237 9.160972249713163 7.6918414145324
Ti 7.691386915497697 6.547589875227645 8.731143916278002
Ti 11.43048683113783 9.321242254914281 9.290755530665495
Ti 8.195340317711965 11.620013481708494 7.376920616749491
Ti 9.625027908453331 7.149448268369177 10.664283340010876
Ti 8.642550327908193 9.37170530369839 12.024145360320258
Ti 11.317487553927617 8.235271795991133 12.053100004236034
Ti 13.247504214687277 9.477510848290658 10.911825652057026
Ti 11.093193849763475 10.572949152137456 12.073165990513276
Ti 9.034461798711115 11.924757706259415 11.560230086546182
Ti 12.256007315982592 7.1165279649811195 9.935522731155537
Ti 7.03138491134564 10.958914083263554 9.85297474661179
Ti 7.259922323383617 8.30575440982905 10.194890162647456
Ti 8.948161663203805 12.911719655545928 9.272157485081992
Ti 9.338524424824044 10.141714526818841 9.527794334862792
Ti 11.359224577686506 12.097735880583901 10.194142686700339
Ti 10.774640664973274 11.774554866461814 7.750124040354943
