18
Energy = -114.61028666 eV
Ti 13.423299636459484 9.88524131740482 11.85747313277586
Ti 8.771898771602737 10.01758894539706 9.080060864130482
Ti 11.944922844072389 10.662492226740252 13.57886994032185
Ti 10.395278517362648 12.54395547058696 13.037089779515556
Ti 10.921178773726778 11.316475452202322 8.051840404582745
Ti 11.112442409166512 8.31765518633471 12.582838954864304
Ti 10.375867050594524 13.43868891046532 10.92739939074234
Ti 10.083711478037007 7.833781413478684 10.163748402053406
Ti 10.871318025616052 10.586510603896178 10.855673477501233
Ti 12.828428771550314 12.423427441543147 11.62820743001954
Ti 9.470986565111025 10.244856631607275 13.42813726363691
Ti 8.574144153028426 9.094799216598865 11.527000339851988
Ti 9.185671370947176 12.756923267989746 8.931244241899318
Ti 8.34203105692212 11.697928148107255 11.357451212487584
Ti 11.280695560531061 9.07491809839327 8.336174470299849
Ti 12.555729001881677 8.25744423266492 10.323954405037348
Ti 13.247986539790281 10.782285816418396 9.405481126118012
Ti 12.03880772990797 13.198730685104012 9.148235898838491
