17
Energy = -107.34816573 eV
Ti 10.345952437596258 9.88273493925851 8.074132589197728
Ti 12.323782912020201 11.672488006459693 8.741303090671643
Ti 9.501680271840577 12.15242286580172 8.667617971423407
Ti 12.271629396191445 8.883569845127889 9.30319095034945
Ti 8.258321530567398 10.187513961877 9.702766961618494
Ti 10.7528335671562 13.546885924713703 10.089872774992415
Ti 9.942747657924649 8.201940555580244 10.085465637728086
Ti 13.580223718796962 10.187428688504342 10.740275460991914
Ti 12.907205052526667 12.663333998011554 11.325172344470825
Ti 8.668385318306298 12.189940800794549 11.433080238818476
Ti 11.614879216800594 8.685607458516825 12.113471572344176
Ti 10.64509801255308 13.41666141767282 12.559085156750239
Ti 8.904125918135517 9.44721333006104 12.044650622776578
Ti 12.968312973966 10.639906408892202 13.111997935040383
Ti 10.857558715893656 10.83093679688128 10.703247082998459
Ti 12.335111726709435 12.693880183115077 14.094649322289994
Ti 10.323824928720072 10.91920817443634 13.4116936432425
