15
Energy = -91.00896606 eV
Ti 7.884934371676406 7.779930912835391 5.883177090606085
Ti 9.3607276812729 9.885267827067688 5.753723637249484
Ti 6.479510481403589 9.913982426247006 6.615907953511161
Ti 10.238307780503343 7.695108937298691 7.035541349803955
Ti 7.958989418244032 5.66669281100178 7.425035000154026
Ti 6.092184034130343 7.530898450451526 7.68953231752936
Ti 8.327893899107112 9.737773257419969 7.954176019406988
Ti 10.602749379992739 9.773231164974888 8.83863499311798
Ti 6.697252213162249 6.447105217707784 9.997287400890864
Ti 8.683428386826414 7.253045052750961 8.941967857689225
Ti 6.51359063876029 9.179038622813996 9.619602083562368
Ti 8.760010146098388 11.133959199544586 10.225717899699447
Ti 11.090048051847305 7.668473620987719 10.136205177586978
Ti 10.917560797394566 10.028729296895898 11.326665212245725
Ti 8.796958267780848 8.710908750202949 10.960971555147314
