19
Energy = -119.74410595 eV
Ti 10.528490354696384 11.863759520108818 12.331759781756464
Ti 8.008449153891084 11.57160611242382 11.71419841091093
Ti 9.459612683541637 9.779313493295296 13.163009880002239
Ti 12.002878022836711 9.624513049495524 12.28197406910992
Ti 9.573464767850218 12.559404426898023 9.978676037110182
Ti 7.630219944591847 9.140613971218713 11.487958288108592
Ti 12.071653402466326 11.937321123678469 10.512401073404897
Ti 9.903251566007356 7.591305199605417 11.943709675086192
Ti 10.161094028459663 9.724559095748477 10.322913742039152
Ti 12.965847754398462 9.999403558250899 9.688935376950512
Ti 12.228996139426739 7.73736938504727 10.575958866220311
Ti 7.972989154043123 10.636734195847199 8.90781430007963
Ti 10.534476980449138 11.185461231465414 8.023829085086124
Ti 8.096570064336587 7.750806452040907 9.790862155607009
Ti 8.412900324273977 12.859674443275962 7.354757887177453
Ti 10.253163543658038 6.91315832716255 9.353523963199402
Ti 11.806252713961012 8.629615712601613 8.037436943606844
Ti 9.348210336503929 8.801181717056807 7.689892679863863
Ti 8.428613341327381 11.081333261498571 6.227522061400181
