12
Energy = -71.63868181 eV
Ti 8.758081943715055 9.230767841551565 12.54608100685683
Ti 9.21278218531857 11.795069918306435 12.051275650929796
Ti 14.16321574125616 10.866051676350688 11.093302941414223
Ti 11.462366168904799 13.92131736967487 11.703195139208557
Ti 12.905125156130014 12.709665549473334 9.758308907395165
Ti 13.976434021625677 13.173626760719063 11.976711217072179
Ti 10.407928907891348 12.380295361956305 9.775842849340494
Ti 9.607627709052613 9.991258524307609 10.217321440473235
Ti 11.277145137952287 9.036999910996975 11.994614438382541
Ti 11.888419360250879 11.545523542512973 12.042392733410745
Ti 12.061881883921789 10.258967626448188 9.618428743072824
Ti 10.304943682300328 10.453429749806766 14.015843703224995
