15
Energy = -94.34641453 eV
Ti 6.482733169003459 8.594239187616365 7.8726661289483095
Ti 8.43292649894926 9.249443454115745 6.327333613383733
Ti 10.64507088994521 8.055289693915993 7.172969885371906
Ti 10.14157715058156 6.758469704372725 9.634280117877752
Ti 10.329516880493152 11.410653279220892 9.61636980131734
Ti 8.536520444549733 7.978905242096956 11.507419634578145
Ti 11.962802054180807 9.550705843167323 8.781784448342332
Ti 8.942794719792218 9.050570138453628 9.003745216436936
Ti 10.268829528062756 10.701192552529093 7.152190744372283
Ti 7.408716746883593 6.796419188762967 9.698724045037528
Ti 10.742965726951617 9.16447479405473 11.000149320929363
Ti 6.545399706032266 9.283866866101677 10.313086155778022
Ti 7.7545541455336275 11.113204552834612 8.433530118688335
Ti 8.427551838295791 6.822666719310366 7.477935352716904
Ti 8.55342792228686 10.645286204989258 11.183202837763764
