16
Energy = -98.76024424 eV
Ti 8.70131825541435 11.282994949995034 12.23669571633525
Ti 9.717580885643809 9.783963760420455 8.219863057405435
Ti 10.749619875842937 10.767634186011966 10.45010823967314
Ti 8.680018967804008 11.938068524066832 9.55520269631341
Ti 11.315218857757563 8.457996642445679 10.173235788155518
Ti 12.267404357611387 9.553512548784964 12.617581738219652
Ti 8.515492462040518 9.398535411355219 10.336470505354898
Ti 10.464319272516908 13.124088483253603 14.184207242140955
Ti 10.56724939990124 10.652500604774753 14.045543805505554
Ti 13.392719037855846 10.721789184673812 10.80219944658471
Ti 10.670699131243195 11.998324885192416 7.7378452112466904
Ti 12.509267193923495 12.650025366050684 9.353161725766133
Ti 11.35001502584735 12.386716939296152 11.990240634028543
Ti 9.755043990069938 8.820555626078306 12.378903809938937
Ti 12.40227148317514 10.273820353086874 8.348041770893813
Ti 12.799356402264955 11.953693650794845 13.9001114120825
