14
Energy = -85.41397553 eV
Ti 9.500869049115554 12.225388302530359 7.9321016287970645
Ti 7.428451407854796 10.201528708043158 7.234549998483614
Ti 9.71442873975234 9.722443826232379 7.247124378170496
Ti 10.77010061897483 10.221232792998615 9.611576605240195
Ti 8.018775858665537 11.383439624981332 9.534484361877327
Ti 10.130344658240654 12.387780315319706 10.689840970665685
Ti 10.65837041148955 7.852392878209907 8.423060279753681
Ti 11.253553190332662 10.21591479411767 12.066749400741902
Ti 8.2856103566841 7.513069712429357 7.361988652950886
Ti 11.759369084442417 7.72598362953099 10.75319623396934
Ti 8.75483593437419 10.46914558181851 11.6364370862802
Ti 7.97217990535589 8.725040663807862 9.505539143819966
Ti 9.63671528598237 8.238228645685657 11.548060826055933
Ti 9.35211281116474 6.354127836724258 9.691007745623473
