19
Energy = -120.17553643 eV
Ti 10.19823274960879 8.13416788713916 12.830115210625708
Ti 11.534377938013321 7.180835367550097 10.8994425890045
Ti 12.449149035941378 9.406391799762657 12.124119417057676
Ti 10.920958396375015 7.822581428334285 8.390723110631559
Ti 10.454721240966236 10.891607928550968 12.793047394417275
Ti 8.637987864334606 7.571892574406176 10.482414326814311
Ti 12.887237335064446 9.004773484684971 9.691790095223208
Ti 8.282648525157898 9.607134034536736 12.372538195562349
Ti 10.376841172432652 9.507274015402729 10.570879792047371
Ti 6.992858456496432 9.795621182312434 10.45614719075961
Ti 11.72076959200365 11.625381690585849 10.445137606650526
Ti 8.852370539382322 11.840413177639062 10.873629568300384
Ti 8.952784700836489 9.67308039687765 8.521745726734693
Ti 6.821870748125037 8.842477159825583 8.050922212981055
Ti 11.84463957622817 10.3644904734488 7.959950873208683
Ti 7.137620788646184 11.541909434681775 8.684586553045795
Ti 9.88049603874179 12.089602775456745 8.28514546010029
Ti 10.15221612087087 10.225236137850587 6.236948069532668
Ti 8.0412757309339 11.014185601113336 6.469773157462078
