13
Energy = -78.20545285 eV
Ti 9.781031151568548 11.146309111230217 8.134842456986657
Ti 8.036486351433531 10.197306673663785 12.04327773512392
Ti 12.049053555818565 10.014447338956211 8.604620213373824
Ti 9.46169003696423 8.098047752047798 11.347675706019908
Ti 8.439606758778698 7.550212129703786 7.410617461287101
Ti 7.856030656151143 9.065151441510677 9.621955690815568
Ti 10.23626618025538 9.169911967782992 6.651182402286628
Ti 11.963284119215535 8.906392922048441 11.207814942003633
Ti 10.55472423470304 8.174771182010575 9.050773394287978
Ti 7.765737663168668 9.987811029218436 7.177157716615118
Ti 10.366271192104533 9.808267036323901 12.9597531815402
Ti 7.6470856143960715 11.468290846373264 9.54353939387334
Ti 10.168199985442614 10.738548124507467 10.572257095030507
