11
Energy = -64.72325036 eV
Ti 7.4481409636261215 12.157778418957891 9.228763274569353
Ti 9.358537216299377 10.565434775927224 8.401141727256434
Ti 9.539241713579182 12.90863694560117 9.604763919616579
Ti 11.498760451337702 11.084297020717226 10.12623088142639
Ti 6.899910525911397 9.995772457907114 9.250246916891838
Ti 11.20430195133986 8.771060668119205 8.89338761450415
Ti 8.869360324324044 10.706544056944562 10.907704735087412
Ti 8.794818863355095 8.166654455302995 9.791406065908502
Ti 10.70379014084648 8.927460294998383 11.48615481624528
Ti 11.329474988358994 6.774489777267662 10.376692259059668
Ti 13.013277402621743 8.588565730644236 10.594056674799631
