18
Energy = -112.90696668 eV
Ti 12.048924758993572 11.146679119804011 8.65347016527316
Ti 10.83756245590962 10.105115308134828 6.597161000439233
Ti 12.55883771267985 11.183285837338753 11.404566660446395
Ti 11.615462890021453 8.431228863596774 8.717364192243068
Ti 9.830612138470894 12.279212548044006 7.782699548394832
Ti 10.654533453552888 12.496095912387947 10.228104401710382
Ti 9.380024913545826 8.012807905604793 7.064629708580751
Ti 8.201139604937106 10.367206511493027 6.7272259752698975
Ti 9.49173793474112 9.93828828042427 8.834032219954539
Ti 7.2717533053340055 8.61972556199783 8.585757045617239
Ti 9.283704277459268 7.207567103308165 9.532723356570457
Ti 10.589208930997087 9.661916828783514 11.012648517420576
Ti 10.193944814801876 11.854045236583957 12.565400562651375
Ti 11.30817110643378 9.673922516658601 13.382263346126555
Ti 8.173486933607219 11.26326294087878 10.649907993466666
Ti 10.00491663394312 7.519817347955771 12.205646211903197
Ti 7.871253552113805 8.521393086104188 11.1133236537342
Ti 8.76130859436459 9.79501310280731 13.01965945210427
