10
Energy = -57.76131007 eV
Ti 8.0297290884593 8.970688409564023 9.086905303880918
Ti 8.601962010883518 10.94919448593699 10.423832628932457
Ti 8.109357872306802 7.627487358639075 11.14069121933104
Ti 7.287440709169151 10.467010409454172 7.286745220008324
Ti 8.777024344854993 8.33709861354869 6.666358850292396
Ti 9.836095518098475 10.56736749887933 8.084033115013103
Ti 9.258604845774972 6.672020654159072 8.925344093441227
Ti 6.7952162777642755 7.144404855280077 8.004744881657974
Ti 10.318148555507005 8.902244520652252 10.343374933259573
Ti 10.925110829325558 8.301173193886205 7.9766597020390595
