17
Energy = -106.99292448 eV
Ti 9.397471594568547 10.079078141022375 7.221568289664594
Ti 11.913272906844755 9.613360831483451 7.980863864370474
Ti 8.45410678377067 12.179106744658524 8.381605388420423
Ti 10.924552380833553 12.109366808178171 7.841193057949541
Ti 9.81861443461739 8.239250932694036 9.309843408409842
Ti 7.486684528421179 9.76032124865379 8.947937578917221
Ti 12.419935471310282 8.990361869067767 10.501360587932389
Ti 10.023698377237515 10.436026777363194 9.895852316647256
Ti 12.539816651557546 11.485110642547928 9.672909556976151
Ti 10.266498580197132 12.880870382458346 10.50206107629158
Ti 8.005037980432705 9.227832576421724 11.484381634123249
Ti 11.192224306799625 6.509549444178006 10.512055366911525
Ti 7.7471376479679614 11.72543180501346 10.73630470742264
Ti 8.809547376119637 6.659802248102537 10.990652496535493
Ti 11.831866998680763 11.021685454006839 12.019271231185295
Ti 10.408209547408488 8.554275772298412 12.138878284682828
Ti 9.414499837358155 11.181743725976323 12.516436557685104
