16
Energy = -98.73211035 eV
Ti 11.398546247941727 12.130921597719093 8.137815453111388
Ti 11.118937936627798 11.41882295522011 10.547329043027972
Ti 9.008279509922247 11.596995000667743 12.131026070195901
Ti 8.756613183676622 12.006602843164917 9.561143951254973
Ti 12.508982201459945 9.875892512243151 8.933894470169529
Ti 12.013656413851697 10.297452797489086 6.503120495719659
Ti 9.938904044886796 9.982874604647042 7.945037933580242
Ti 6.942562104150506 10.620006003846912 11.104013713125909
Ti 11.543390223582085 7.9868839023226395 7.366653240713861
Ti 9.281406684971097 9.46750021042515 10.49916330265167
Ti 7.454848261110658 9.825742196691289 8.595995649715272
Ti 11.224839038020933 7.772231653353786 9.855471370644505
Ti 6.982996434650541 8.085391459319553 10.559998343270284
Ti 8.208799692348965 8.931753831477813 12.750683531961545
Ti 9.083729959659742 6.876241795069246 11.201073483921531
Ti 8.887445780763885 7.4786243539673 8.661517664560597
