15
Energy = -93.01365905 eV
Ti 9.356313359260758 9.134589465232027 11.401437053658322
Ti 9.841251928130191 11.272101186512524 10.581451306292188
Ti 7.3375486409800486 10.399216040576357 9.858357783637679
Ti 7.367152730400871 7.75235601160612 10.80384253962712
Ti 9.887938991184702 6.9520100981891515 10.306648697287182
Ti 11.054483358574515 9.25275354233114 9.167631121748446
Ti 9.440860015269998 11.382945606033916 8.277542233917446
Ti 7.524094114130557 6.200026642318258 6.844840799457837
Ti 8.044125025213084 8.252822447734088 5.883607501713797
Ti 7.493202336021478 10.421052078374984 7.056720137663756
Ti 8.655773728737133 8.61094619391655 8.627645287999517
Ti 7.888542493125512 5.930696115702544 9.139277155681963
Ti 10.007367511691864 6.909984170533584 7.451201856105997
Ti 10.019564142046631 9.624531721827084 6.582617275438259
Ti 6.279823868401564 8.102010922280305 8.215221492939266
