17
Energy = -105.61572088 eV
Ti 8.835589965087896 12.073636375045917 11.652172448607553
Ti 6.989207943496021 9.932612953068798 12.105106106665431
Ti 9.55331040409585 9.796959310345345 12.5488789707584
Ti 11.119020500440229 11.075524607927623 10.759776068914686
Ti 9.502744547336135 12.616544310587882 9.36744824665834
Ti 6.517932470621081 8.103166369927564 9.923134175775244
Ti 8.348411547530532 7.74903772908037 11.65985952059185
Ti 8.405584044159896 9.957897225113726 10.11402433898887
Ti 11.548047287218095 11.939134223520183 8.288189859485747
Ti 10.815544226653975 8.333875849935925 10.631086090690024
Ti 9.882963821328598 9.872784856740758 8.291715652601866
Ti 7.220989894515117 8.6968311773449 7.696824464142905
Ti 12.495659137541738 9.662773037086556 8.92789319461795
Ti 8.85196257935908 7.164050435546171 9.081710440361872
Ti 11.534085919862576 9.675650079128781 6.500394580400823
Ti 11.310531531561903 7.596815054668733 8.056630942513895
Ti 9.258101213703997 7.942393439442682 6.584841932736174
