14
Energy = -87.15159576 eV
Ti 8.39899085184314 6.344728641826954 6.5454402951545685
Ti 7.929889348243886 8.619172512598867 5.859305890072406
Ti 10.411665882680794 8.142715992350714 6.744992847307964
Ti 9.360607121013317 10.516744950861982 6.921461624432935
Ti 8.505255629090293 8.447212489271378 8.466052103476825
Ti 6.743848693014656 10.21767806894975 7.555142132370237
Ti 6.319694488857958 7.4133164149703035 7.952768908258249
Ti 8.47373228555125 11.07681288881339 9.339550594272298
Ti 10.748026512407053 9.673953243726576 9.024717711162594
Ti 8.095529070639826 5.603420140396285 8.871438567040295
Ti 10.226294011881897 7.0346507827638405 9.714309204817114
Ti 6.612418489762533 9.444085211510751 10.078400255228171
Ti 9.205617358823291 9.136236097235065 10.99400582050841
Ti 7.739758473119495 7.100600781653805 10.703742262827435
