18
Energy = -112.98438252 eV
Ti 12.5062899182125 9.141745248952457 10.26487942098465
Ti 11.040771648380298 8.601451672992651 12.034344195959896
Ti 10.383878847537623 7.279510238502747 9.501963886452758
Ti 11.811126043463563 8.654738956630718 7.968318937841012
Ti 12.205833908105044 11.20445625187802 8.744681426540012
Ti 11.288966462909755 11.309902297230273 11.503724970163889
Ti 8.96918403242665 9.992394413806172 12.662655743627825
Ti 8.900812570665142 7.55394514121551 11.502343750516244
Ti 9.853691739229584 9.85125056544402 9.863504830728468
Ti 9.274059301416555 8.723809708300998 7.217693455284167
Ti 10.10076705025214 12.562434125146645 9.33691239663379
Ti 8.633492915281662 12.012446045742518 11.101540342670537
Ti 6.749594018754891 8.222113134419295 11.945667757855768
Ti 11.510642170788968 10.036190225899272 6.149063515545042
Ti 7.040530031044284 10.188471293221308 10.78582953094453
Ti 7.581716040775694 8.091983378883736 9.264728294535281
Ti 9.948421043272333 11.291168558630043 7.257689163814099
Ti 7.822865491058783 10.904631976679084 8.517101613478056
