13
Energy = -79.43299147 eV
Ti 12.142123250348769 10.095747690924139 9.599824228977146
Ti 10.545892610688345 10.972981558425346 7.567609693223249
Ti 11.257769101816741 8.435903569764955 7.779681310766882
Ti 10.155243234396021 11.842416137971467 10.089857055228464
Ti 11.423635073528786 7.75975464062139 10.468720256591107
Ti 8.675510654551294 9.32677886522134 6.945471593017751
Ti 9.247002835746587 8.008682652972421 11.971125340928682
Ti 9.569525012585153 9.413173247216145 9.493752081880464
Ti 6.784937816354615 9.341864125067996 8.806222272468855
Ti 8.102940754141184 11.389614033773604 8.42697786695787
Ti 10.77770887813382 9.91526459805827 11.838028489833293
Ti 7.732927160983539 7.625844198649177 10.164297544024926
Ti 7.877121690645106 10.164312755253688 11.140770340021774
