10
Energy = -58.69151245 eV
Ti 10.538756045357099 9.997040733118753 10.677209957346278
Ti 8.097906865688797 8.649168793573741 7.936959144608456
Ti 7.849838477449894 11.006264219043814 7.194807618630936
Ti 10.58522415014307 8.29350996049107 8.63853086395758
Ti 9.738529401844067 9.485097554527494 6.264337085962415
Ti 8.933976755520403 9.085907765072985 12.383447229627784
Ti 8.022191344759463 10.353785539669792 9.91194709856683
Ti 8.549872215996652 7.7791792965120825 10.271994102920567
Ti 10.051140630857603 10.827698339819948 8.335643349500424
Ti 10.741349741504031 7.631133427291704 11.493909177999967
