13
Energy = -80.42143938 eV
Ti 8.994716084067008 9.022570384472456 8.972083483559773
Ti 8.991471361105063 10.418408666162485 11.21670123747437
Ti 8.96391710247405 7.601823828492181 11.209630576295137
Ti 9.101389271160881 10.507714939110718 6.864521435107436
Ti 9.085434734026045 7.582783992883597 6.859954343070522
Ti 10.398400251981819 11.244288084602573 8.985870369206088
Ti 10.394843701737615 6.832496767069787 9.013337203557546
Ti 7.652712542241404 11.24742343513421 9.07991609904856
Ti 7.693875740743781 6.776361705185323 9.097081993259282
Ti 11.2703778543293 9.04646866867636 10.309343567825747
Ti 11.258705181257932 9.026733961755776 7.701837519313755
Ti 6.830745720286676 9.063785015162567 10.402349472415265
Ti 6.783069954588297 9.048800130976154 7.70703219986651
