14
Energy = -86.08954153 eV
Ti 8.682475519706156 9.722782932360623 12.20829875120837
Ti 7.586858560698312 11.066543348732973 10.41163364499579
Ti 12.255794734828653 9.295121592386302 9.656654887397414
Ti 11.102702125281663 8.800027347427111 11.812849403194242
Ti 9.081390554500787 7.277917429808806 11.664822604112072
Ti 10.502979717229247 11.362961879468743 10.874650156562174
Ti 9.00369421305619 12.102963726344361 8.63993366666962
Ti 10.82806865506937 7.134163230593635 9.767833830793467
Ti 7.226017825447575 8.504545806098895 10.357090372225073
Ti 7.442480059924166 10.045368074671485 8.033635905476482
Ti 9.57709193829893 9.482444286689336 9.535458538529896
Ti 11.04642296573126 8.694925109826016 7.446460746074246
Ti 11.432748500219155 11.189054950273324 8.253129969014298
Ti 9.545013872175007 10.633147713789848 6.650983481012859
