16
Energy = -97.71339393 eV
Ti 11.571830909220067 6.843443891541521 10.695851835184232
Ti 13.153154802670834 9.27581613166852 9.885354613300313
Ti 11.801165754047318 8.948750591354656 12.03294423668674
Ti 10.66519882775585 9.0302874436863 9.518476806971435
Ti 11.859369460080291 10.893860683430363 8.1866549434733
Ti 11.92771419658157 11.395704790227258 10.919282035802784
Ti 9.755318820201374 6.5661677401811644 9.215359030686505
Ti 10.033819882733313 10.50757923744282 12.728374029870535
Ti 9.836635741988747 12.871670246377107 11.527397027265664
Ti 9.292082117482513 7.970723538143419 11.484908546989645
Ti 10.447330382908087 12.665178911458643 9.062956214368555
Ti 8.976079834258934 10.753484085969477 7.767985878851239
Ti 8.003318697070526 8.562757324747365 9.11987057822906
Ti 8.93646237714366 10.774361965614881 10.422225701904207
Ti 7.9310127149364735 12.810234956081564 9.123076726804918
Ti 6.635258662386332 10.876102058553208 9.158411910010244
