21
Energy = -132.21481596 eV
Ti 13.4557758669947 9.593839528903604 12.809289183185834
Ti 13.419610254184416 10.511968097207369 10.34304303609282
Ti 11.997407538900644 8.381429883065094 10.944495750049722
Ti 13.537471013586936 11.496127338359027 7.737771362259665
Ti 10.88802690496491 9.232487385836643 13.183828204657143
Ti 11.728065984267712 11.49024463394949 12.104727941105017
Ti 12.105050438480797 9.35692766115082 8.34027499855343
Ti 9.304807150925129 7.926488164928028 11.502487937952777
Ti 10.183564066060265 7.678775670554587 9.013474757667336
Ti 11.122316638489318 11.508982703973507 7.1393047456899295
Ti 8.205015763038952 8.785668149165769 13.762377605873994
Ti 11.83391683531455 12.477103053295542 9.505399703758219
Ti 9.556774314005768 9.488117282902477 7.422145029353053
Ti 10.015878696957067 10.320334941324733 10.069767070450787
Ti 9.033448815308477 11.060318857950609 12.671542744759648
Ti 9.28795954419398 12.590777082185571 8.581212516233554
Ti 9.721767677793833 12.996057574788244 10.99689019035357
Ti 7.903781825603529 8.630453499161693 9.303423823765756
Ti 7.167679890184269 9.497012232369986 11.61332389642878
Ti 7.497316760204843 10.836681919835987 8.09711792783149
Ti 7.633769988359412 11.755545829405971 10.46917997443977
