21
Energy = -134.06213728 eV
Ti 6.961130072180853 10.938601212844649 8.716387693821284
Ti 6.86340595322627 10.579210715513891 11.244450345112927
Ti 7.510623754305135 8.484538516517379 9.704631719410024
Ti 8.925039701445755 12.13260227309769 7.78169923624218
Ti 8.254781905110748 12.937381905039457 10.325556999543942
Ti 9.0043149944055 9.368728201553528 7.618979648658392
Ti 10.121660141543295 7.578204318620406 9.45360061361469
Ti 9.13042974899757 10.67150444817447 10.061633801560145
Ti 9.1517153235468 6.497160446996998 11.051245913534357
Ti 8.776032093973402 11.53800090277829 12.621632751618641
Ti 11.772724744000111 8.63314243491702 7.684421494592575
Ti 11.492198524977582 8.01222834238796 11.920963453442603
Ti 8.81304516698771 8.819031256876245 12.163350730216784
Ti 13.007037761359278 8.122007258524013 9.861591383311024
Ti 10.910549610865887 10.230243111815367 12.891496668073676
Ti 10.946988080566193 12.432287765524656 11.571667078801825
Ti 11.02451970817527 12.749790297154547 9.197497717478766
Ti 11.122045672632687 10.998788554055567 7.333551755169493
Ti 13.17660958431768 10.253669378967091 11.561418848761113
Ti 11.286589065818488 9.992937530959606 10.026009978873155
Ti 13.304158471541784 10.585325975629521 8.745495402188805
