29
Energy = -189.32407467 eV
Ti 12.805689850592247 8.101709537506368 9.637678026970194
Ti 11.069637479441953 9.43239423147299 11.496757687927861
Ti 10.165891220843307 8.680969479561394 9.082952902360109
Ti 9.92851290266504 11.740688084951856 11.3397275900995
Ti 14.687222813764604 12.195417151922502 12.627983218542727
Ti 12.185739142829432 12.76373716014082 8.316036977786906
Ti 8.407566141151241 9.335306998186889 12.914657896428864
Ti 13.072967609938017 8.065702802767294 12.477151720829951
Ti 10.573160745463284 7.882063093819807 13.472470388115891
Ti 7.991433465728973 10.059730690897322 10.413988703564382
Ti 14.066505964030597 10.155100880852496 11.220826557182376
Ti 14.07216357846759 14.58246021359244 11.794360167790764
Ti 10.324028264991473 13.041075604755493 13.764529003234863
Ti 8.813690794929471 14.136870009172522 11.94780427553977
Ti 12.557165515535537 10.766422875186121 13.482867036305631
Ti 12.723161549439208 14.77249437258783 9.737277139250166
Ti 9.982116567345573 10.579834973270456 14.142027771834057
Ti 12.863476806786863 13.514457324677972 13.833341162941927
Ti 8.941080717892763 7.640901130931574 11.311955210985483
Ti 11.329583043952045 14.910951247091532 12.051243901657035
Ti 7.814392639211649 11.846100655700827 12.690338404487965
Ti 7.922935852188274 12.674117129537025 10.038192402647
Ti 10.192372302773396 14.076106625068427 9.633995787174227
Ti 12.406081597093959 12.561043470626808 11.306244329150148
Ti 14.520091044832437 12.728333420047306 9.867050785026239
Ti 9.879931885544615 11.363226703719077 8.674981610435015
Ti 11.22156389060963 6.841613521690883 11.05147849890846
Ti 12.501458234060463 10.54295642252821 9.356171042649045
Ti 11.83127440936548 9.861105602489886 7.221009380229324
