26
Energy = -168.92037878 eV
Ti 16.48753032418991 14.12716572737795 12.895635506459886
Ti 10.85432615943932 13.670149250303936 10.133437192302887
Ti 13.785483894377988 10.652972296174989 11.27708297222784
Ti 11.278596957596788 10.086057044402526 12.832285321564298
Ti 15.173443592844304 15.61124713330486 14.22789678456441
Ti 13.691787648084734 12.951079851959097 14.346469292550584
Ti 9.511643435775298 11.927936845861352 11.786006628401186
Ti 15.939908042073975 13.383375733746055 15.538671387572492
Ti 13.183925035405213 12.351289268286111 9.423713632479249
Ti 14.768419580346539 15.865573608727876 11.602775273279951
Ti 12.128828455586648 10.988263401453628 15.426525652883344
Ti 15.918327989908788 11.607045654701661 13.181473342350856
Ti 13.718253872380787 15.05800013045212 16.014937534165423
Ti 14.089897407099578 13.442277116040769 11.849547362599072
Ti 13.564826438375448 12.752245622701704 16.950547490910754
Ti 13.813919502024643 10.083888291695132 13.63168184283504
Ti 11.99029028015324 15.624138590277935 11.451598418557328
Ti 11.308556355409342 10.971978717899729 10.282180849948654
Ti 15.680243658166852 13.354598711399687 10.31720836770435
Ti 11.877818941995182 12.603603254412485 12.435745458122012
Ti 11.391987800170607 13.754307488075284 15.53670008238903
Ti 14.883199634398018 10.954964420993962 15.614558366941267
Ti 10.035029997024244 14.365710455879627 12.839321072170032
Ti 12.477769046217619 15.525648048675583 13.68467113394949
Ti 10.010003131407005 12.00412580335721 14.2556602918833
Ti 13.384469302251329 14.779210137437955 9.581037174859226
