22
Energy = -141.98527408 eV
Ti 13.372873804830581 11.202126945814465 13.176446158426213
Ti 12.990770628552736 9.784938221271338 9.149138085019333
Ti 8.16313125989166 8.321384925963764 11.107234835905954
Ti 10.681164133684293 8.186170713636942 9.830353900502844
Ti 11.03015426913593 10.212783649418492 13.794726350672367
Ti 10.543262591092518 10.248175164490593 8.23422099954755
Ti 14.451934014317894 10.86867429463986 11.062945251803281
Ti 12.641852315612784 8.991547157654416 11.778548498080463
Ti 11.84665841914332 14.06656922725241 9.488155574284665
Ti 13.938969026210176 12.491968162706042 9.234627618476638
Ti 11.815750854229021 12.068632977460023 7.970465156189606
Ti 9.073406325791364 12.221776737282422 12.857639653892301
Ti 10.516078989997599 13.956012000897253 11.430936100427196
Ti 9.949656415577433 10.261406037019993 11.248305527286659
Ti 13.398091701529886 13.531214250127835 11.705317882481737
Ti 11.479624372303102 12.806506082830804 13.441043629237429
Ti 8.451869597786052 9.706459145552962 13.322835674663896
Ti 8.450699968891515 9.785781160349758 9.100204622982274
Ti 7.4313879564473035 10.956298666802756 11.15847691890471
Ti 10.313840303250362 7.986612705200303 12.526372091950481
Ti 9.370336093971963 12.410627656513642 9.425095964513673
Ti 11.931701043427516 11.668151744886659 10.776792258180814
