22
Energy = -137.26478535 eV
Ti 12.142347094849626 8.278650466498895 12.557701626470383
Ti 12.3257685218616 6.830082015997291 10.433079169873439
Ti 12.732990892505937 10.746405561222995 12.58341798569181
Ti 10.063922086028601 9.21708208848833 13.510412393400347
Ti 9.994630928815074 7.669936588810769 10.940459999633473
Ti 12.688256181399739 9.12719543049188 9.997696451671063
Ti 10.5314562742317 10.550237973538746 11.432257086000188
Ti 12.062053234883777 13.105702742097103 11.855028877562534
Ti 8.195501398994796 10.809858741665206 13.207481761890662
Ti 11.012334250335552 7.6662331498343415 8.376589957908584
Ti 8.034178311647128 9.100899891108098 11.24529038716931
Ti 10.014010430080234 10.26350946599117 9.484639639393272
Ti 12.111538179018774 14.005184460456569 9.447394413929116
Ti 12.617614851855206 11.597542025157658 9.657763653941492
Ti 10.033408474049065 12.39533229119784 13.08714930472475
Ti 8.69375076745428 8.451594900312958 8.347808885341903
Ti 11.331732996612416 9.994534239534772 7.393461055298028
Ti 8.019521994494097 11.882122343100878 10.841376809857014
Ti 7.110104124772413 10.199765446293553 9.073591455630568
Ti 9.891161352918433 13.158361079884866 10.162576296517866
Ti 8.64286467061531 11.633493085870494 7.858372803789833
Ti 10.943206887483013 12.507402725311978 7.708480920031395
