24
Energy = -155.54413768 eV
Ti 11.630635981990588 8.639983737794685 8.186124923641634
Ti 10.989881343380107 10.805214048230596 6.376821120606184
Ti 13.5803342172819 9.045637653477254 10.002597642308638
Ti 9.193982295257268 9.016327696378067 6.750966570906553
Ti 12.49066533610732 11.28380469212873 8.661076647601702
Ti 11.391308664765527 7.352242959583257 10.776535592028372
Ti 9.20009999282544 7.4659413117510045 8.889222811968548
Ti 12.87001273444842 9.065874887564217 12.563530263752822
Ti 13.347401490026586 11.388850595717585 11.286746091459085
Ti 10.375536833799616 12.99447127751678 7.833520188118307
Ti 9.831245786697952 10.702445221543378 8.608141159420825
Ti 8.427425746680688 11.568498275347917 6.728925467274916
Ti 11.358010792598963 9.913089363405032 10.75356335818487
Ti 8.905828262764768 7.097005467294876 11.640226094281434
Ti 10.792939925141342 12.599814954686487 10.482424505754883
Ti 7.142011057517533 9.78722225394259 8.32472875593803
Ti 10.192056964760319 8.902973653876503 13.103455078976644
Ti 11.427907413788596 11.27382515457212 12.953478082419986
Ti 6.835610901165394 7.976991003525828 10.364393511598982
Ti 7.521035109563353 9.119757381709189 12.678684144561288
Ti 8.072466947634721 12.362400057166065 9.481114313668654
Ti 8.888698238317478 9.452133612273832 10.53969523588404
Ti 8.882251223522816 11.514921444356727 12.151425627356689
Ti 6.586350847630131 10.604271403824113 10.796300919953744
