28
Energy = -182.66198079 eV
Ti 12.723226424906851 10.877488936529998 8.370317610804788
Ti 14.352313846817848 9.759797886529102 10.46371955301714
Ti 12.178435718207124 8.600822305287803 9.850744520767917
Ti 10.147568288507514 12.012487930600505 7.818537310393315
Ti 10.187387636816513 9.466616257156144 8.497474763556875
Ti 11.865061449203216 13.40156432780506 9.143459903729777
Ti 14.04866112031221 12.488213467189171 10.280149848122585
Ti 12.449129649097266 8.362147300879675 12.432308189795437
Ti 15.62856302552611 11.37015939923279 12.123622701827257
Ti 14.82620484726657 9.14522064598923 13.200307204330663
Ti 11.415953549434965 11.14289876333889 10.53866236049408
Ti 13.014505619692274 10.987667569411183 12.461550356322812
Ti 7.819374909539187 10.70936880870787 7.859427315471723
Ti 12.028365054408889 13.748825596168164 11.823438656881184
Ti 9.672433090089974 13.895190922357662 10.47480492961858
Ti 8.966953311815688 11.345053505184467 10.099746297286154
Ti 12.715473705370899 9.688197362787704 14.749225583905154
Ti 14.563709145128275 11.436388224348462 14.554404759558228
Ti 9.909400657048224 8.815531074840374 11.2927057818813
Ti 14.178692114176068 13.354104350840398 12.884407896064124
Ti 10.538025284625194 10.023742126171559 13.579027745256044
Ti 9.749195796097178 12.34375454231121 12.702846245995199
Ti 7.632964315635035 13.180647641545448 8.802296569062495
Ti 7.773137801486259 8.990187794905303 9.814084737506311
Ti 11.99845764931096 12.347791078218982 14.401914366237305
Ti 6.3464260374365296 11.16055870794203 10.018235338243048
Ti 7.452971129354265 12.955642400884786 11.50386187740759
Ti 7.772439277577027 10.344961527723997 12.21374803135104
