21
Energy = -133.77820481 eV
Ti 10.427663209439052 12.404554104132679 13.03577470324136
Ti 10.972762446629778 12.90784026137251 10.557075160129688
Ti 11.014946211887407 12.82776976593235 8.204344997655724
Ti 8.15830325364568 11.496453576266841 11.393869340917604
Ti 12.717390832833864 11.619702643500718 11.942060319718205
Ti 9.125027720087438 10.455169155160318 13.79995078649148
Ti 9.426504065836887 11.596725937222343 6.399294774505025
Ti 11.761923944387947 10.19449820853092 13.690425573263449
Ti 10.383269515509888 10.2605790919396 11.4020190365329
Ti 12.587205464684539 10.968146021798482 9.462886973895888
Ti 10.448491807084721 8.16625309542487 13.074587077065082
Ti 8.102527915188574 8.87859822935223 12.261848596951076
Ti 7.532955867799926 10.120865440575061 7.557867110048228
Ti 12.468271163181953 8.828063653485085 11.309188721898341
Ti 9.713041087664383 10.528980198448508 8.832900432831446
Ti 11.748435060653486 10.690141345651732 7.051362630158959
Ti 7.576932779820923 9.08246889469832 10.050246616037953
Ti 9.944147166101043 7.618513612901395 10.653784615490398
Ti 9.778998002826699 9.12332897459104 6.511203580684065
Ti 11.51899847421845 8.508788362533767 8.70128503971501
Ti 8.798517757637782 7.928873173601949 8.314337659889418
