29
Energy = -189.48971671 eV
Ti 14.140708973368756 9.966436298728466 8.616778470959495
Ti 14.079600898420292 10.819833949262428 10.860234058950336
Ti 13.769622901261705 12.077096707851059 13.05023336501718
Ti 12.78168818610414 9.464315887232445 12.955516739290765
Ti 12.935133256572263 8.2641295393329 10.367819736669347
Ti 12.62950944263232 8.232368262934568 7.676399786975389
Ti 12.05377589073828 11.52504935917477 14.566603993562028
Ti 12.582825374521104 10.672437289138577 6.773872075404979
Ti 12.878750931354555 12.400517267556873 8.726752343360948
Ti 13.176027461966237 13.382394870300022 10.990497623363032
Ti 10.508615132303138 9.308586955004793 6.854603602457381
Ti 11.466309883228849 10.194449574866477 9.300223567261925
Ti 11.45390207805089 11.408375890746528 11.907851304421737
Ti 10.486814409556109 7.708225420395123 9.089465002754109
Ti 10.544117443866456 8.165356112592836 11.73327708736908
Ti 11.509359172578773 13.82520752261254 12.833133050566062
Ti 8.297588005597913 7.964667256303505 10.256405638300482
Ti 10.68473215435216 13.343856764322586 9.963216052335001
Ti 9.13218481006316 10.520533585015272 10.962861186437085
Ti 9.86861109878554 12.422806885981501 14.149310854993967
Ti 10.32617483046045 11.90728157724369 7.629312055581314
Ti 8.582623555505332 9.76856544994063 8.225920160175885
Ti 10.17631258369887 9.721527360078248 13.89583372955555
Ti 7.706625136947415 8.983179797538279 12.486504222262377
Ti 8.802933255541006 13.24802651526484 11.879240924609988
Ti 8.084344607586392 12.266036301825006 9.378592970566801
Ti 6.7346183132677 9.897507335560446 9.965049020954275
Ti 6.7063012006304525 11.58324324856414 11.6194911273964
Ti 8.046418984561607 11.23867857466673 13.576116592275245
