21
Energy = -133.83610481 eV
Ti 12.016571186021615 11.869396760515242 9.39056703968552
Ti 11.850171045403199 8.940801473530398 9.04790621168927
Ti 12.33856104790713 9.997390149950487 11.282950113433442
Ti 10.159972125875672 13.462007357474217 10.55280675489451
Ti 9.805382436048644 12.711040097743048 8.185950556972474
Ti 10.53328638542602 10.492268559635935 7.423324907801409
Ti 11.318059498282466 12.034746439887218 12.077096993193194
Ti 12.824246848109226 6.520584538031016 8.792774653997222
Ti 11.952100650796343 7.426325567083854 11.195257317860168
Ti 11.331972896513577 7.55166669973671 7.014407234355464
Ti 7.845923399669727 12.891898939788746 9.802499595541637
Ti 9.581035550316754 10.690491301735323 10.201851257226304
Ti 7.890246348901743 10.80786546524351 8.062432189140472
Ti 8.579759053972586 12.080651638969062 12.323421010687534
Ti 10.298026466667665 9.902284020311468 12.910422626154274
Ti 9.091603773237612 8.44579221586573 7.999287799225628
Ti 10.359641665515364 6.54366540869665 9.222261070563164
Ti 9.54927922106658 7.90606145899654 11.244665021644837
Ti 6.757037013506147 10.945044254821314 10.600085491696431
Ti 7.391421784116243 8.670499225410126 9.823020409046762
Ti 7.907204316871122 9.491021140798262 12.228514459415855
