27
Energy = -175.67197161 eV
Ti 6.78863509744368 10.664972055193916 12.104178556920651
Ti 9.205300040581365 9.802215866509245 13.24927604644433
Ti 8.702859695377896 12.423202334186195 12.702520544825912
Ti 7.766476984175665 8.267926818413116 11.33133051246658
Ti 9.885369608250608 7.219355122864312 12.717446448013812
Ti 11.258334840494701 11.434540320750864 12.281950007717787
Ti 7.189499488089904 12.704820690009043 10.452973771252841
Ti 6.72006056098964 10.141850481197695 9.363613999995383
Ti 8.901150252606543 10.930624991751309 10.660551394539105
Ti 10.638731239333264 8.947767593104947 11.005852190197341
Ti 9.896470544846702 13.374174522639318 10.500367614382581
Ti 11.894461901851413 8.930296602104962 13.200108448909113
Ti 7.533189445893245 7.515509722000372 8.854795143503603
Ti 12.44000867764578 12.331733428726382 10.192533202569535
Ti 9.734922984653007 6.527812199818884 10.131003643797794
Ti 8.428421183486781 11.962489092196606 8.095969030853237
Ti 12.201517829933943 7.055333915842417 11.319286916784147
Ti 11.032956354031105 12.988114579595512 8.057421653106545
Ti 9.30856369041179 9.26738224760586 8.572517835871986
Ti 8.201916895956067 9.259891739937158 6.571468045026784
Ti 13.128604873684804 9.684583117073753 10.759263075471464
Ti 9.730012605400121 7.000850697412521 7.450453234392848
Ti 11.0365471646769 10.599027803804567 9.002690691145755
Ti 12.05014717399752 7.969749189105499 8.75151927323194
Ti 10.288162319521511 11.179304996420484 6.409476254901429
Ti 12.870460442733416 10.803456222753262 7.699203230512783
Ti 11.085846133234723 8.931641678283478 6.480857262465953
