20
Energy = -127.70465455 eV
Ti 11.351098766485382 11.123075725147503 7.175591414933172
Ti 8.877338147254196 10.855602731273128 7.811878860776963
Ti 10.70606451882538 8.966022607680896 8.7141168916392
Ti 9.969655963262982 13.269432245760711 8.037894048044022
Ti 10.095781989212604 13.754513891966702 10.837018327045017
Ti 10.612599861360323 11.428828393326647 9.620921344044365
Ti 8.186151696192 12.444753154501182 9.73547958293459
Ti 13.10907853094845 10.324259799594348 9.129373958312659
Ti 8.461188725516552 9.773824024686196 10.386644825503833
Ti 13.915637052658093 10.167450035502817 11.63294542837994
Ti 12.601118059765213 8.315021741974869 10.559488941832338
Ti 11.066482743228402 13.032734767860703 12.98225946834087
Ti 12.856588463646245 12.612198528624504 10.972754999867005
Ti 11.204710603008811 10.517853412528085 11.717683205936831
Ti 11.969279519397592 8.753883435889914 13.231668649941758
Ti 8.768467717259261 11.816544250290574 12.288371773510418
Ti 9.185055626775847 9.213517971069473 12.947505235570729
Ti 10.23717452488867 7.9488124324770535 11.179453226236472
Ti 12.982967268230167 11.463131957623288 13.46451820276072
Ti 10.523483509359336 10.898462179497335 14.25435490166415
