27
Energy = -173.00312192 eV
Ti 13.87218475389208 7.869310042219268 10.973101477566239
Ti 12.388683276320116 8.810288668055888 12.894081939306675
Ti 12.350269514455025 11.611032267266596 12.56643650680976
Ti 14.228065377476838 10.28231929084413 11.597383142680108
Ti 14.244142924152912 9.67053287654404 9.024784712552345
Ti 10.369082343706188 10.466023635361822 13.95974882980468
Ti 11.799626929069094 9.7314194665927 10.447641499917806
Ti 11.244448497790671 7.178532012591823 10.833712248612315
Ti 10.376634853792698 12.995038426975203 13.421215392933306
Ti 9.790818303656023 8.403978916819348 12.479628044599945
Ti 13.086947893022685 12.057930009390576 9.81238144303861
Ti 8.14308242856309 11.867138015933152 13.763988672422533
Ti 12.928552760473917 7.258278599933988 8.822079061143313
Ti 11.088568717523444 13.512418675527245 10.810612912897978
Ti 7.530023991596731 9.716265272056537 12.058083391782308
Ti 9.561716074779657 11.30237225054095 11.465008369632107
Ti 13.123499065000264 8.29934150626163 6.823100676657327
Ti 8.485013085253513 13.801875284992413 11.797083748939245
Ti 10.77473599000792 8.599042001708424 8.134249978807041
Ti 9.020464516903623 8.815277690296872 10.101491598075503
Ti 11.39865221169121 13.257189286577985 8.12118375754926
Ti 6.442108223547298 11.951642335366008 12.020926238635722
Ti 12.37195610386482 10.684247464151047 7.572140154748946
Ti 8.864957399293461 13.478065861445561 9.278895905340235
Ti 10.085491629671292 11.209896911457008 8.688859557365317
Ti 6.364406669579352 13.439898747979923 10.232685638947727
Ti 7.451692835801243 11.14765012535521 9.67880414673956
