25
Energy = -162.25871894 eV
Ti 7.8539134918175115 11.781358898761253 8.153429302424575
Ti 10.622637245013491 11.75284946526593 7.43876993939053
Ti 11.463940785884471 9.136790643403568 8.304348127279862
Ti 9.28549441669452 13.716370527254513 8.844947134088118
Ti 8.997491188606139 9.643363715835516 7.601688594072079
Ti 12.027665617174392 13.435468157519521 9.464308386880715
Ti 7.51768942006181 9.622179596123377 9.910586492779712
Ti 12.9318657376027 11.14553907025473 8.604040673205823
Ti 9.68073435917299 11.205499200560718 9.786561114785224
Ti 9.281690241328613 7.689914931215249 9.099095457212831
Ti 13.581082020602754 9.313589129622619 10.442445430186076
Ti 14.156404369751565 12.00782909308371 10.648991183119948
Ti 8.519062822843484 7.644910103867242 11.51383429049656
Ti 13.68817201956562 10.763449269281525 12.808987224051407
Ti 7.769635673253335 12.50154474650288 10.830611247319522
Ti 10.61434098355993 9.060439305368142 10.974298978663938
Ti 8.518110321850756 10.151709589951281 12.488138942247108
Ti 10.094725207307945 13.913281864498618 11.124311080695891
Ti 12.337853967284405 13.145576569558148 12.509395468633588
Ti 12.59582680033385 8.589389910345796 12.821344637573437
Ti 11.214064984655897 6.907772720097907 11.043478560685879
Ti 11.762454806859221 11.260632026924526 11.122298827390678
Ti 9.632287552257244 12.424981434007151 12.806814629758168
Ti 10.182705697985446 8.069050655464766 13.37380415830906
Ti 11.159442893030556 10.605801999729074 13.772762743247782
