28
Energy = -179.43197831 eV
Ti 12.912636404114885 9.646315954887672 11.748470758600378
Ti 14.78022078335753 14.323890393978857 10.368097161280847
Ti 13.183418710452038 16.164988299287142 13.937601259138862
Ti 15.307269030297068 10.421654977949126 12.731456264075982
Ti 12.111653824417472 13.522957419793812 17.132193667088394
Ti 10.825617783535833 11.400084483212584 10.965656094579025
Ti 14.9603352572464 14.617257827683233 13.0504556991774
Ti 15.058899829245098 10.662981586966806 10.23433625440674
Ti 11.800246147720326 15.68659420328733 15.913021070851514
Ti 10.579459738799985 15.40274129262615 13.559673634443875
Ti 11.096141493318184 10.503657415981847 13.33320319680618
Ti 12.649285503474655 15.312401110113328 11.691905788367448
Ti 11.180084681410893 11.426309730572617 15.716231009650627
Ti 16.299533446386153 12.6435119646057 11.879023165449178
Ti 9.938400684288975 13.858188959132505 15.726523783308352
Ti 14.19583621754256 12.527848084370337 8.56326510864165
Ti 15.279336732276734 12.35884902675637 14.435261528357579
Ti 13.397194415742698 12.297509109688304 11.761098099787691
Ti 14.334128727682359 14.580363504461877 15.782455409898972
Ti 12.395349890934478 13.423613876004444 14.261246550021557
Ti 13.776733333859147 11.98465601636231 16.342492468323478
Ti 16.53723583829351 12.708371915157368 9.322128617937134
Ti 12.108528343455491 13.520629296437251 9.634173337587931
Ti 13.399886479941122 10.401123827324684 14.408392793403333
Ti 9.726160281266823 12.61158806207389 13.508816377974098
Ti 10.03882840652285 15.180994080594527 18.012556542944438
Ti 10.553675463443252 13.894918578727973 11.54331277880555
Ti 12.612804023790108 10.839434247591157 9.389199704849277
