27
Energy = -172.06455973 eV
Ti 13.721570235917186 10.930980020217499 12.066550026793745
Ti 13.640484123873403 7.999783605944547 11.837070304086408
Ti 13.00799903265028 13.718759719667439 11.466994728127293
Ti 11.181942152557747 7.036754210055323 11.871481797673262
Ti 11.421508286693463 11.890627276358314 11.88402071233079
Ti 12.400540361085069 9.499907048331082 10.439254054154242
Ti 12.97534945206612 12.016130545800491 9.492117602141864
Ti 11.583048263701732 9.298823546741712 13.047496208088807
Ti 11.012686746792534 13.771106838614815 9.593651416420625
Ti 11.80834670673847 9.711135077050107 7.899994846068027
Ti 11.651910507313097 7.131582805528267 9.403936241848202
Ti 9.23790837647733 10.729126971625872 12.401940328253202
Ti 8.927696020643175 8.128678247406159 12.723468199482742
Ti 9.050573998721525 6.620354791270824 10.281247509229555
Ti 9.835606259748905 8.925001294121799 10.347458563728479
Ti 7.210721295193798 9.088478590057253 11.002902315496241
Ti 7.064310417203542 11.001734210502681 12.890014635361878
Ti 9.035625401371762 13.183821037652734 11.226594377108272
Ti 11.259221157042871 12.412606831535523 7.46978509512303
Ti 9.678242327853056 8.023192627520833 7.707301629589938
Ti 9.561410957784389 10.57072751786461 6.8225812455979735
Ti 10.03232885621844 11.244906322288317 9.487272160770603
Ti 7.258102577740759 7.508468055506192 8.656804978618123
Ti 7.559692695758582 10.099554308915604 8.411300684222423
Ti 7.259122585128355 11.614741293240991 10.379821017486114
Ti 7.519072734424557 8.51928074008774 6.431714022573364
Ti 8.663000027867742 12.898296596174225 8.31369423152303
