23
Energy = -149.42698985 eV
Ti 13.107974237453217 11.167185563206294 11.569389858858974
Ti 12.719035887126704 9.46444993219611 9.555990663836555
Ti 12.372182975333772 12.235149900024767 9.227254770428518
Ti 12.231993675923121 9.045471828162755 12.139257801290247
Ti 11.572740697014881 7.727885687672992 8.081449592703716
Ti 11.76076245727763 13.150507745715533 11.85181329321507
Ti 11.077281411967634 7.200588643590281 10.702416330055947
Ti 9.87050082848988 8.600694283965481 12.597302267631305
Ti 10.90549268401158 11.016279940278466 13.319455703899468
Ti 11.167184148284727 10.262908702261486 7.449053318466985
Ti 9.630101372324908 9.063000958068576 9.423227103564939
Ti 10.52829447701769 11.062833074424287 10.710450080111121
Ti 9.391583971996514 6.489392265115992 8.761296941828668
Ti 10.153511148320085 13.713286429424006 10.036456620875319
Ti 8.188257274515795 7.481808569428966 10.941495816655037
Ti 9.213569103943074 12.811918465268022 12.301574354457726
Ti 8.21192222588959 10.389205913262293 12.227841783906241
Ti 9.915013626119555 12.330199652406803 8.123919653307743
Ti 6.995229877357692 9.785774691207866 10.063958360679022
Ti 9.418909873163043 8.30099678859737 6.828168089414931
Ti 7.989786288691134 12.150311504558315 10.011854941996724
Ti 7.3845707922299795 8.044803789649345 8.423910975279266
Ti 8.199230410227292 10.556906964030185 7.720829662607043
