24
Energy = -153.10173052 eV
Ti 16.125345970867897 15.915696113314704 9.543457679040731
Ti 14.319711872152874 11.025433817975149 14.50305966746961
Ti 12.989324380010856 13.063961865953667 15.777848385911232
Ti 15.77145894837658 13.533710912565425 10.67404088225182
Ti 10.36284842981029 9.91754706737326 12.036364486945999
Ti 13.831248050423019 14.744909092441933 9.273875326571046
Ti 11.08382903106894 14.689645183622254 14.812933994303771
Ti 10.339593547020593 9.875559827536465 14.55785004249358
Ti 12.277533844328351 10.584119180018172 15.752750294296604
Ti 11.477571260860575 14.99515209229433 12.230848462983367
Ti 9.448591597513992 13.775866067483188 13.267512976416645
Ti 14.770596721894968 13.262906041885952 13.54398366014966
Ti 16.046480468116496 14.062844366958243 8.115960030263267
Ti 10.220676407372572 12.38851890273615 15.602131249884776
Ti 14.433142505510396 15.365991665181259 11.80190740769652
Ti 12.685561788478052 9.370094299394896 13.294154988965596
Ti 14.397191284661247 11.088512783676283 11.949238077044857
Ti 13.285800242756789 15.121451438710627 14.143495169073764
Ti 14.404056684362388 12.173897781339194 9.030480100045459
Ti 8.968631514152605 11.545142429102954 13.286593626628138
Ti 11.819657695331609 12.078913671709513 13.402868016489808
Ti 12.999658438838912 13.172431889406665 11.068990162349888
Ti 10.280794894273695 12.496200194239547 11.049521654068107
Ti 12.251152360035114 10.731399298858506 10.854416890589981
