21
Energy = -133.32803969 eV
Ti 12.55184650751223 12.340660919994894 15.359151498418914
Ti 14.863750703425367 11.090930856126064 14.570620369116515
Ti 12.352363897715547 10.01264388945457 14.547877413645361
Ti 13.838964209868307 9.292776032958189 12.685049629391191
Ti 14.349218419425346 13.780265654210893 14.538982531825031
Ti 11.899056734266265 14.293879386560862 13.800997576164367
Ti 15.930231886720206 12.95807331134148 12.872877173407206
Ti 11.376248719586144 9.830555832852335 12.220770200865523
Ti 10.47744231849485 11.896478428241313 13.801731912416155
Ti 13.290216260179227 12.044824259628829 12.611509798167386
Ti 15.62795961742462 10.651511887983645 11.881987183184973
Ti 13.387846851951629 10.521592336718632 10.310026693574132
Ti 11.030683535834324 12.03376705323875 11.099243944669848
Ti 14.022459455531807 14.658575976718415 11.959316352214678
Ti 8.585732433032 11.52525023289463 11.51560765939504
Ti 11.414107097180889 14.689546242187964 11.247850442275551
Ti 12.90568914675466 13.257717814564433 9.80686614964849
Ti 9.318118466302685 13.859210511555618 12.438062864973018
Ti 15.105714953556404 12.656090002173647 10.484328191759303
Ti 9.36484628185884 13.405285284955495 9.836806139430365
Ti 7.102867158383104 13.584466458902593 11.077337213032878
