27
Energy = -170.47275346 eV
Ti 6.9551232532833955 10.755729324600132 13.437877504095345
Ti 9.419014824251702 10.668344052246862 13.523359385431412
Ti 12.488410734225996 10.561024941342957 13.693595803617091
Ti 14.959770420480956 10.561265641011117 13.14166916214633
Ti 7.917573612595203 11.036056302424706 11.01758945309467
Ti 10.686560898784847 10.913991459785992 11.296135493474583
Ti 13.465963215111998 10.85944081573305 11.129117769842313
Ti 9.136453151993333 11.351913109002968 8.238924263422135
Ti 11.854460613246944 11.19922309237252 8.794900340786146
Ti 8.614770122557404 12.91831933708011 12.49605503364456
Ti 8.490095954995564 8.80531933171922 11.973578004669045
Ti 11.241640679627999 13.016884287460357 13.018650986887499
Ti 11.102768308181467 8.421845066693798 12.439259862637355
Ti 13.726522724872535 12.810284171333663 12.767565205751934
Ti 13.600061657304373 8.550290970096132 12.226219251894147
Ti 9.558364414101334 13.152828852668485 9.980051424408956
Ti 9.4374474651962 9.15197941846889 9.472177799408492
Ti 12.370129308499626 13.332729555399185 10.254170525044504
Ti 12.230245960183293 8.747224897495881 9.671503894184683
Ti 10.979673219069971 13.286626647766441 7.785310241838132
Ti 10.860726949371458 9.490664956853035 7.300320427218773
Ti 10.035061472667072 15.02652383381306 11.725336959898504
Ti 9.788166462656278 6.879392200128585 10.690624440271243
Ti 12.428817352776397 15.26039740270572 11.80036921376858
Ti 12.165896278397536 6.494134267027831 10.686214099780097
Ti 11.050590450480497 15.405486782813197 9.465478000475784
Ti 10.796458422758516 7.01465633009846 8.399878232278883
