20
Energy = -128.63615702 eV
Ti 8.275735187413122 11.500661037520949 8.254173389098407
Ti 10.77481199406377 10.127018370812271 7.602943379547902
Ti 8.379554371062179 8.846048326040753 8.435095288469883
Ti 10.344661156120745 12.717417437725107 8.601701503218338
Ti 12.537614918381434 11.73866054439982 8.786124447655961
Ti 12.828103983688434 9.250776005564619 9.752862149772682
Ti 10.62647891907443 7.865570628495135 9.297500003393823
Ti 11.62718945530612 13.450707063736063 10.819022720185776
Ti 9.797613464308183 10.304980803472526 9.925911762463368
Ti 7.247847373166776 10.328972990552348 10.382908796819263
Ti 11.478369551131843 10.958163683863187 11.353226998267276
Ti 13.899514208134455 11.627774341651943 10.792330046224636
Ti 13.382248915640265 9.643820848403674 12.459129127197208
Ti 10.201603334702371 12.522645543698328 13.05267290446982
Ti 8.617427073539224 8.149154557959045 10.998693088860469
Ti 11.183675201716413 8.263616074560181 11.81206066399523
Ti 8.772914497408857 12.622855212414986 10.818963681344245
Ti 12.766932438167204 12.193332614071707 13.12576560977082
Ti 8.77972871192017 10.405041352605581 12.565635713656825
Ti 11.15883495901912 10.163642276416654 13.844138439552783
