23
Energy = -149.53432164 eV
Ti 11.768220265297378 11.789972919649992 15.6325501247571
Ti 9.32008407472354 11.207076277333629 15.043961412047942
Ti 12.372361630806589 13.432715998990721 8.929068836284973
Ti 10.471420173001842 14.548828877172754 12.598606970973615
Ti 10.313709802907718 13.411110767728111 10.322233893856955
Ti 12.786792343955575 14.44943645961167 11.441663494000208
Ti 8.970318625986165 9.998738088985407 12.931993427933383
Ti 12.642129772669987 11.73063692622042 11.016789150195953
Ti 11.034584712619287 11.058903318556126 9.058156616421128
Ti 11.356475713990617 9.50208264548858 14.202571590201426
Ti 10.9863871231368 11.842973409898052 13.00282392900143
Ti 13.57084693046059 11.115979708582863 14.260130418362845
Ti 10.145380307444096 13.641100452539836 14.841100299675917
Ti 13.733552502904338 11.33247891635392 8.51428953544199
Ti 8.484730360708882 12.669522738341962 12.923584653562692
Ti 13.05710765079726 9.32767333472508 9.873544481240359
Ti 14.64725041344049 12.656400341540794 12.567356924980844
Ti 9.17530914487964 11.150372018966111 10.812378911231416
Ti 13.417477114516522 9.438946056113494 12.395232080701737
Ti 14.678960657675631 13.211111862801351 10.078864369971559
Ti 10.953137723961149 9.23839923735459 11.419408821296308
Ti 12.673965490697055 13.786832499313366 14.02992098000196
Ti 15.140704337309492 10.668701702909601 10.664200759303478
