29
Energy = -185.66282771 eV
Ti 15.153406476547312 11.338554143239596 12.268850336151049
Ti 14.16417878419025 10.25108571643369 9.670153219316688
Ti 13.515108703506806 12.578740364520915 10.380741253122707
Ti 13.36221272726095 8.091038443402713 8.448767684152042
Ti 13.204128113053487 13.451661196964405 12.738398994521747
Ti 12.93887599441761 10.647544639635734 12.151729055742763
Ti 11.490468419861424 10.208724282200318 9.941268749940692
Ti 12.999979592024001 8.183212175265426 11.05079286128507
Ti 11.408176933961693 14.214944521013479 10.1124971784786
Ti 11.942191759340039 12.479240041566335 8.21587215411016
Ti 10.815202603616214 15.04919243285912 12.519903383271217
Ti 12.413478134000334 10.040590870700724 7.386505758565363
Ti 12.137884234952994 11.586780138994085 14.474100356419598
Ti 12.082989367172296 6.365303474963682 9.485765350706306
Ti 11.54530710963198 14.153657616158823 14.634942889415777
Ti 9.635760610110536 13.786438836187799 8.141429943785399
Ti 10.641422410143194 8.175896268587746 8.324915152047199
Ti 10.826920930453836 12.340725296841969 12.184585439055667
Ti 10.282018569350925 12.601274478169847 15.927293861461687
Ti 10.213433668551703 7.534495749914562 10.877289328808075
Ti 10.513702051088787 9.48005931684503 12.522881347003302
Ti 10.000591700596935 10.802511364697088 7.62374611247669
Ti 9.01985386841078 13.454218995249194 13.842718622579525
Ti 8.940817867663558 14.107057039560331 11.123030217625388
Ti 9.40164426124901 12.06713808167045 9.740388171310792
Ti 8.77370314896337 9.458904629778083 10.169191883011566
Ti 8.236660615895433 11.264450213767809 12.09238351142322
Ti 9.290183305624668 10.823518718732494 14.327273202829868
Ti 8.190874093615541 8.610265880459375 12.709953030434463
