26
Energy = -169.79030967 eV
Ti 13.580126570339909 13.329900057362753 8.874725725731004
Ti 12.60313216159523 9.21092634720296 8.628473169789359
Ti 13.80902381089296 13.039463475684869 11.461171938806359
Ti 14.443582498817547 10.860609771093756 9.82893252128537
Ti 12.653352395946543 8.74281840793241 11.15503981772813
Ti 11.76173680419959 14.293066570322358 10.40312465314437
Ti 11.341466052921936 12.783368811708058 12.597383498050556
Ti 12.887222580557879 11.391955993615209 7.607269313871288
Ti 10.527394466256316 7.219350015736479 11.827026915743259
Ti 9.294407766730563 13.334617550049712 10.486698182586764
Ti 12.905371586018855 10.766209641284265 12.707217951468929
Ti 10.827267535309453 13.086428789596612 8.174333769806436
Ti 12.115097750921429 11.564076931177704 10.202570581834841
Ti 10.340959302762984 9.943441644857751 12.16456566079194
Ti 8.827930254077312 12.301968663635142 12.804914644136703
Ti 10.350696554700228 8.17651650389795 9.368359349743011
Ti 9.844236053391308 10.771974823878098 9.922825957197352
Ti 10.412021013222482 10.379238872176865 7.433605713632962
Ti 8.346430696073833 12.04961010896102 8.355853576635448
Ti 10.236779258184566 10.677172482120996 14.51718278358814
Ti 11.797020289035382 8.496722132674641 13.730334525472593
Ti 7.854880830045911 10.121216814521986 13.22759349719432
Ti 8.122140398008291 9.433828534138053 8.644784194303966
Ti 7.413498714830062 11.107394842283233 10.77428588530724
Ti 9.201338465326364 8.198348172988338 13.795732533235082
Ti 8.207761095565983 8.41675161158793 11.12908443680396
