24
Energy = -150.36562486 eV
Ti 11.544955502704994 12.522802138162358 8.166459539403794
Ti 9.351439194023852 12.889970973902285 9.414959987910526
Ti 14.029976141742376 12.482460241671983 9.324821626412703
Ti 12.830941041404868 10.302754565855063 8.697589181593669
Ti 9.175385375114798 12.570870804121101 6.814351644737725
Ti 11.929333953018649 13.165897787856863 10.698972172174129
Ti 9.307893174226903 12.75653426662146 12.179958727088822
Ti 10.11915887145578 10.327765358253332 7.79476147812761
Ti 15.118239333315277 10.277637458718697 9.800007130973501
Ti 13.60750798176035 11.207731501244462 11.602458141977538
Ti 11.565387668922224 11.938742090279591 13.033018809575044
Ti 7.694871648568018 11.318112555002838 8.151803111703678
Ti 10.712274702528298 10.630521366026192 10.694568171558304
Ti 9.223545127441337 12.424714536551761 14.78236920990609
Ti 7.955903575001212 11.006525710725526 10.912337871958146
Ti 13.27259771864262 8.621875203181284 10.783559249853706
Ti 11.136622423742732 8.136868275506533 9.480845304186863
Ti 7.376005165139017 11.641877365860886 13.575856421323367
Ti 8.57705780207608 8.922556890361319 9.181912819035984
Ti 12.063065734978373 9.372789249731358 12.811478553297883
Ti 9.633331234890054 10.262945867699294 13.360013501796038
Ti 8.706577073914895 8.662149420848142 11.67092627669386
Ti 10.997380795128596 7.192542676247081 11.917447620091776
Ti 9.27556169190778 6.550582469044526 10.358876217066667
