25
Energy = -162.85707651 eV
Ti 9.68860299566623 9.274668892501467 13.148466587634438
Ti 11.200650725061887 11.573282864875436 12.58949828018618
Ti 8.591288871895879 11.564835524228716 11.98308698778392
Ti 7.1757639118915195 9.475941543463529 12.261100580095018
Ti 8.068241334224634 7.24125383114028 12.24469810457099
Ti 10.59348335305696 7.042899903021452 11.96854302213953
Ti 9.99853258060132 13.469019511447915 11.092824670932814
Ti 12.037840216382033 9.036840123469714 11.660581031188375
Ti 13.437660249206562 11.05826469997117 11.281973340251733
Ti 12.413337720845256 13.356636156684562 10.967126778618638
Ti 9.261237021868707 9.073789502854776 10.464136727640975
Ti 6.845824066309036 10.692026344753979 10.177604209664995
Ti 13.49055425839444 12.263686630086823 9.039936964998182
Ti 10.996027381064149 11.1918960797469 9.796655935370985
Ti 6.91609489131538 8.067952328544537 9.828803720862782
Ti 13.05212025641025 9.543782891314414 9.11119096530595
Ti 8.980081451739103 6.2672175577536775 10.171352612595102
Ti 11.031301836422811 13.529756919442455 8.5880626920524
Ti 11.301714932678518 7.409236522936273 9.444020905975883
Ti 8.498523341250609 12.456130944820526 9.307943724555459
Ti 12.175487986671001 11.305151619562917 7.278808908171413
Ti 8.067913916898242 9.945423399480992 8.030679243952445
Ti 8.950288591165961 7.559513459768681 8.12037496750259
Ti 9.767093544341671 11.67316489348333 7.192422574112384
Ti 10.757972302515883 9.225265592523662 7.547744201715157
