26
Energy = -166.5369046 eV
Ti 13.09055478108585 14.021124652188048 16.58496241988613
Ti 15.385816817812948 11.086646621012001 13.728417085706386
Ti 9.889746136234676 12.341483490200504 12.7917820998084
Ti 9.04766687248082 13.51403054051695 14.941065671720471
Ti 11.770825973370007 13.142638766922893 14.52525595055189
Ti 10.840126888648594 15.348471215464942 15.76285307461442
Ti 15.491468331764224 13.827123801917265 9.746269932320061
Ti 14.689374566940922 13.576003730376927 14.17666227931034
Ti 14.092935184113596 12.377532852526208 11.53394068682353
Ti 13.728456649186084 9.960141207445952 10.534912928218656
Ti 12.113810923605323 11.441158010326996 16.853687427150167
Ti 16.58216768838061 12.887934976637027 12.088120647973746
Ti 12.897053005423647 15.628520780327108 14.008125334965076
Ti 16.013778166606347 11.327219935005857 9.841128829974002
Ti 12.963977922334552 14.194556004252942 9.718713405873615
Ti 11.757855913337174 14.005638978709605 11.804083338769086
Ti 12.259926358477971 16.480744569456753 11.560754873765939
Ti 10.142156768825462 11.137843896564632 15.110170543331973
Ti 15.989510396822137 10.191819770893915 11.896606518635787
Ti 14.514385627633741 15.106116975747724 11.91954208249499
Ti 12.357071356081544 10.905400979966272 13.07396690074428
Ti 10.206538509318214 15.122043801898014 13.299649187755687
Ti 13.882374758662195 11.58707614546688 15.674818696351386
Ti 11.76861034954969 11.70214195336764 10.378213872697074
Ti 13.808061626088227 11.943319602094041 8.806840112290498
Ti 10.479950750838867 13.127787638981774 16.977061287448013
