26
Energy = -165.90456757 eV
Ti 8.526148476197317 12.935319922525863 15.73161291797175
Ti 12.88440244087919 11.916269259705992 14.281502645318362
Ti 11.282447703248556 10.165841240815265 12.79142040374122
Ti 8.689197567076896 11.69796025215266 13.373894747203224
Ti 14.913146503514556 16.07572618541206 16.555552104747303
Ti 12.103945293805593 14.387902850500911 13.838231269672042
Ti 14.004405098518898 9.938084695464381 13.252140529689724
Ti 12.971061807735609 11.12994849216484 11.212568484985484
Ti 16.82705109616624 14.193467467928947 15.769525442816695
Ti 15.525872888448871 11.483646030444264 11.941087993865969
Ti 10.531905075568751 11.64221024830774 14.932808935588268
Ti 11.099920827363748 13.877888540688172 16.19964910684011
Ti 14.58619925006048 17.75225374393354 14.386154016851316
Ti 16.128340156775664 17.15160586925635 12.53497103369791
Ti 13.961582014931405 13.72193356703627 16.100136483824297
Ti 13.566186984069812 16.26128982667471 12.307824792330837
Ti 10.913229197970391 12.636247507975416 12.147459930161464
Ti 17.069744222922637 13.103168126640583 13.215687929115667
Ti 12.760334379818723 16.246304817879576 15.13021500578273
Ti 9.613187880973959 14.094931834039567 13.950483284321956
Ti 15.954080361714286 14.826778313910252 11.41901604902698
Ti 17.7672845986932 15.331681849364294 13.356361058027302
Ti 15.523379678809581 11.970500356228072 14.674149121791054
Ti 13.832241831037365 13.377664052642064 12.249610361694762
Ti 16.89589277008786 16.857579563624757 15.152649372754917
Ti 15.113795785883573 15.078515334355783 14.038604227043841
