22
Energy = -142.48387887 eV
Ti 10.810414207124667 7.111882281005494 8.621458994303275
Ti 10.800420077993682 9.029922567405611 12.62954887538468
Ti 12.382248770556416 11.447782128795964 12.566753500013894
Ti 9.262510134830714 9.213124474029634 9.516511950323638
Ti 12.862464233452423 12.070798714740073 9.84839061060094
Ti 10.427653968430826 13.22498706631892 9.187868016060232
Ti 8.458340184507794 12.244261100593748 10.892566629329712
Ti 9.871525716311751 9.154720810266141 7.026002615624968
Ti 8.165827159110492 9.646722499926002 12.023329278511882
Ti 12.377537935568288 9.343004062365349 8.580994869706528
Ti 7.262029048014605 9.29794258152339 7.744508676267948
Ti 9.305940809218969 7.1472236538354235 11.062514720883051
Ti 11.829772781779166 7.789653231317337 10.636475314953364
Ti 8.44855454465485 7.1030397415169855 8.263301828683437
Ti 8.654679599448993 11.601259596508573 8.113025806047455
Ti 6.876772243725037 10.616890567947483 9.87379742795381
Ti 13.156526249653728 9.64508756280873 11.163897220410979
Ti 11.2037778572813 11.368497832983206 7.738708896014043
Ti 9.831986889328956 11.458464579713358 13.016835885977054
Ti 10.790357002386353 10.860341955232046 10.546807855633334
Ti 10.95855708750366 13.297565519407815 11.557376145785172
Ti 6.947153526573923 8.10237030206021 10.145674702642234
