24
Energy = -153.46598595 eV
Ti 11.363081088260973 12.737218194065962 8.640554236639217
Ti 13.653078172691744 13.188797651693662 9.03457526858737
Ti 11.581764954251328 8.380708459797416 7.768061883797654
Ti 12.888872997849228 10.675344258789687 8.002549463490608
Ti 10.152254345189826 10.786250751043701 7.502785044018598
Ti 10.876093735568206 10.049232660290578 9.865381908440183
Ti 9.145069832622745 12.847044927027001 9.659746823178153
Ti 11.938011725910572 13.37509676170953 11.162192504186605
Ti 13.51116907224002 11.32838640317404 10.486213079742999
Ti 9.754121998813398 6.496653726115001 8.454553832550259
Ti 13.138583430852863 8.825972328967936 10.062708787732396
Ti 8.931455727505693 8.728138805207045 8.146887561384775
Ti 11.287999204743903 7.180102149534381 10.163578841011258
Ti 7.584996546503569 12.183329460292338 11.668900138237134
Ti 12.605475569267343 10.565547442013443 12.624447659039902
Ti 8.014430373958993 10.441007730786293 9.811698188318617
Ti 8.8509445296989 8.00827910712714 10.664846665828486
Ti 10.93516484003113 8.517554303474547 12.316284830932325
Ti 10.12105163728682 11.466145733471247 11.837334683641567
Ti 9.46198520907752 13.957266979855094 12.191628815306707
Ti 11.305328259415058 12.748298490422307 13.767917476401927
Ti 8.726469082116658 12.11749192512197 13.967939376059949
Ti 10.49787004912464 10.270338498785703 14.162042084808155
Ti 8.290170306040961 9.731310553179569 12.647164388828177
