21
Energy = -133.2327902 eV
Ti 11.739516710539402 9.068348555873413 9.795187895858522
Ti 11.346582518216827 10.339058098327444 14.036571180126105
Ti 9.08130195772417 10.985656436443792 12.48387376810668
Ti 12.121927928265297 11.76961620695311 11.769438121455227
Ti 10.518212304663296 12.97734866705976 13.813862422893303
Ti 10.330757189686619 8.947456198552086 12.047564205899446
Ti 14.207727251958698 10.456291825662122 13.149321759656353
Ti 8.168120769282321 11.889893210957284 9.963675321180329
Ti 11.045881179456405 14.65605536336358 11.689110059688357
Ti 12.892135119317668 11.646996211625794 9.07659840467586
Ti 9.187823335389684 13.310623694791524 11.606343195747648
Ti 10.332838166967584 11.02529437961412 9.406650076320567
Ti 14.043429657827499 9.706587226838616 10.578113473828834
Ti 13.344509321164132 13.96708282694497 10.496492355457063
Ti 12.608111364351227 8.704242274148148 12.329376216561657
Ti 12.92914355648403 12.279533030457445 14.500944921086642
Ti 14.855959045558846 11.83756615753053 10.77031112996849
Ti 10.850562955060735 13.449474608064433 9.499255791926782
Ti 12.762039494446162 14.395898206875604 13.172919613063563
Ti 8.773491990555733 9.348993284288278 10.234092174403859
Ti 14.654603909497238 13.026101801383273 12.777459713055405
