28
Energy = -179.3719807 eV
Ti 11.753191600729494 10.912063107875188 6.800416254483787
Ti 10.769355185879192 13.401821251936585 8.354627199681785
Ti 12.710122803829385 14.466442444251937 9.188334485813675
Ti 9.95265774623474 11.081587325125172 8.377190486367132
Ti 13.197990762814019 11.794141960933782 8.727592650599549
Ti 10.226434042696784 8.686821560967648 7.8698901903115
Ti 12.533426669572313 9.257247146319827 9.048143566816254
Ti 8.978143016689806 12.295212479520634 10.213995817759255
Ti 12.940340087667813 14.945607477822914 11.632393848671612
Ti 10.421005529739956 14.807894202024004 10.664703966940268
Ti 8.207368981729628 9.388865869225036 9.515051252220273
Ti 8.403284579461802 6.938197714731949 8.714066043527907
Ti 14.384875797681836 13.059605920808913 10.6718592504949
Ti 11.721215837883776 12.542610834968414 10.92002144883677
Ti 13.734943296856795 10.57104133949379 11.153099173780122
Ti 10.536762177150916 9.990805270988513 10.990938296994932
Ti 10.64749856639784 7.384518002514099 10.092629123641476
Ti 12.63427221823389 8.255658100039799 11.492462245770302
Ti 13.390120795554706 12.679684759106857 13.094257114166792
Ti 9.579142826063373 12.32178136096688 12.67200474203055
Ti 8.279957700546026 7.584389735235621 11.383864319343802
Ti 7.9554784597324835 10.09143176405261 12.166923820261353
Ti 11.21899621823905 14.42054831226933 13.192075973796632
Ti 12.206036978525267 10.136682255751868 13.331808702015573
Ti 10.438711523452197 7.965975622064058 12.847541705716191
Ti 11.251029202473331 12.364119553547503 14.551809960139867
Ti 9.718319093932369 10.150867876881556 14.120375332648939
Ti 7.94757192589977 8.25086127651995 13.948361305393941
