21
Energy = -133.6501994 eV
Ti 11.822733028667223 9.89534918614629 7.471751338702558
Ti 12.752749820292623 8.012959531237069 8.766388742296588
Ti 11.152405917483033 12.004524381776882 9.124093193286644
Ti 13.120529761070614 10.552836222537614 9.719926774847414
Ti 10.17389714259544 7.736020822516631 7.811362034858649
Ti 12.733257483359536 8.5672969512273 11.334633427651418
Ti 12.33463964525184 13.349732727123511 10.66126345952903
Ti 9.452876123123623 10.376942991133014 7.511974529363305
Ti 11.293165710630573 6.72553675742341 10.237035841959283
Ti 10.470902336928104 9.31181636559776 9.910859646738334
Ti 8.923585617393462 7.0666248716771065 10.222012596305612
Ti 10.335307464643497 8.223824269010631 12.34314773216391
Ti 9.734976518080163 14.108953288848577 9.750556023011995
Ti 7.827333942483037 8.979280253636976 8.799223498388974
Ti 11.635462976236344 10.89055284143779 11.948497616067309
Ti 10.206982475222459 12.999085756661792 11.962558429394289
Ti 8.701784944412163 11.495894159479656 9.856850965410471
Ti 7.909165424372725 8.817845046057231 11.455316422941085
Ti 7.806013102589447 13.188083635916339 11.510803112988796
Ti 8.919025941686781 10.803435422625087 12.593495719617044
Ti 6.684265188681195 10.884465083132207 10.999309459681323
