25
Energy = -161.78026069 eV
Ti 12.890011418293302 11.622050460990893 13.49963240621774
Ti 10.348584008094287 10.360155729142937 13.118031361923913
Ti 13.598885894052827 12.69736621680317 11.772929968863814
Ti 10.850715623546398 12.752071385925474 12.041441494207795
Ti 8.370659486609776 11.895216553124184 12.50242526966039
Ti 8.034622105718329 9.303581806112632 12.112236670956149
Ti 10.75658983827925 8.124595796511672 11.669741408724528
Ti 12.230811548604683 10.486588182252955 11.182251692051533
Ti 8.594228162252042 7.034492833136556 10.980662756761234
Ti 9.678603181338207 10.813935207699338 10.419529802000117
Ti 11.486362476649207 12.798233231160696 9.705772190216559
Ti 6.927547861380538 11.211325933044682 10.60443344433894
Ti 12.377457184922912 8.332504830830851 9.712307705462154
Ti 8.709608703288845 13.149478807520168 9.990498291062124
Ti 12.019427173153668 10.53008469821607 8.317377736894816
Ti 10.646179536485333 6.342887862431025 9.307998952218748
Ti 9.980518751732376 12.153357714780151 7.883627581754102
Ti 9.618383897482364 8.682500328443004 8.97831203769582
Ti 6.9010761326481 8.757986778785924 9.78822923471061
Ti 11.766513742630899 8.013800582221561 7.399861240761909
Ti 7.941699493674431 6.59008370363985 8.635193199568056
Ti 7.730857573091223 11.063593308038485 8.192489395075718
Ti 9.867131406955062 9.884560575741084 6.624613784821794
Ti 9.577866235081418 7.135677460877176 6.817041276781008
Ti 7.518020569521422 8.686232018056499 7.165723102757613
