25
Energy = -156.97645794 eV
Ti 13.526867558619823 9.931229166317395 9.936163775067037
Ti 9.326405855941294 11.10934749700435 9.746879165484735
Ti 11.003530469025463 13.633618020980057 9.582783126939447
Ti 11.386403598471771 10.704843696230013 8.624952529141146
Ti 8.406969386460736 14.041465679378499 10.130924544492496
Ti 13.437775531497802 12.318874987502117 8.997700391198588
Ti 9.321303880313296 8.602770942689949 9.064451144429471
Ti 9.776990201421778 15.948872440201335 9.967661613945392
Ti 11.924901925538103 15.939173924208399 11.035394336801923
Ti 13.672250672467914 14.033681924939781 10.463239642948386
Ti 13.789598503179386 7.591065571343318 11.268439549729305
Ti 11.208436305329487 8.847066253183998 10.776915702860581
Ti 11.811598087988784 11.730749270298487 11.199007473949372
Ti 14.4788721400013 11.744844954678795 11.498679374758305
Ti 12.323958548094161 6.962421761251801 12.630847197423833
Ti 10.098530306852826 14.549752924735676 12.128634227239846
Ti 8.371493279522982 9.226949875756768 11.248108213694673
Ti 9.016311722071444 12.333077685233018 11.953322401492862
Ti 12.72170045892488 9.672450457881501 12.672944808933103
Ti 12.78010227897353 13.91358155245477 12.73659683777667
Ti 10.403807755158116 8.073153174968766 13.3032470162926
Ti 9.880573372211662 10.300675392844488 13.102732288794375
Ti 11.126741138000359 12.301571765540414 13.942511432161563
Ti 13.583188745545502 11.703664204511904 14.118320193226287
Ti 11.757737250469376 9.921145847945711 15.005591983297954
