28
Energy = -182.16504057 eV
Ti 12.475806319273365 13.90538691747289 8.310509872842612
Ti 11.631280223889114 14.561866426162881 10.748220904308486
Ti 10.000830434037512 13.833984029008132 8.6207589126021
Ti 10.899573987378648 11.785168794688015 7.214852687508937
Ti 13.063426733909582 13.644316326928386 12.848125812721973
Ti 13.655641014531309 11.78263641223758 8.019712741958786
Ti 13.864985271940295 12.77748742519335 10.530688269048616
Ti 9.114396571606216 13.706079105798421 10.910194208916064
Ti 10.970010356165842 12.074519385359915 12.12584051076513
Ti 10.577232157226659 14.199188169368485 13.293741806451278
Ti 8.788743082040241 11.476425665664575 9.215416663618143
Ti 12.403749041562426 9.741400427696798 7.814997822968327
Ti 9.957668040537783 9.15644239234319 8.406031712620948
Ti 11.547085623324124 11.85294049918698 9.653928720580318
Ti 8.145305507541858 11.52380137338765 11.718550051118521
Ti 8.29621974205511 8.999532859257732 10.645737485284807
Ti 13.770927913826416 10.020326646736438 10.11206572401384
Ti 10.770556040629375 9.611540601561114 10.999982310940343
Ti 13.448959901507097 10.962863365051517 12.582821154115049
Ti 11.904738649757745 12.154035022882917 14.597306246291403
Ti 12.287971106866584 7.938817378353259 9.344580192083056
Ti 9.27772477822214 11.953297241918303 14.235785605087019
Ti 10.232397429126477 7.158614177706511 10.366437812791297
Ti 8.599991369451981 9.747455779709362 13.25486198433583
Ti 12.503862612231138 7.924641654044501 11.879213389947012
Ti 11.548553594187267 9.661456962926337 13.802422984973791
Ti 9.921873257320078 7.767751811903402 12.845557427140092
Ti 9.978075527011974 9.71214347659898 15.526763094042883
