26
Energy = -168.53886201 eV
Ti 14.340537615717961 12.407357525486265 15.83799166705175
Ti 13.722057697320075 10.173415574929917 14.748009667618726
Ti 15.561051823291008 12.205613674556462 13.757552747505985
Ti 14.819704193060943 9.93925995273587 12.533710130282897
Ti 13.658359372153573 14.343609506342668 14.304548307964852
Ti 11.92154971919696 12.339997983273472 15.528728398122965
Ti 15.492384716106239 11.93077206039883 11.187781725299272
Ti 12.97117961703969 12.078293012517484 12.932227207052176
Ti 11.19526355907806 10.076085042526014 14.527903891052143
Ti 14.7556360312648 14.139558907885307 12.086326345577849
Ti 11.13050284590002 14.314332667149854 14.074206774299403
Ti 12.338356872275446 9.2006438662269 12.371366941204029
Ti 9.906109367963847 12.11285433038094 13.715733570570611
Ti 13.586000051434524 10.243945430851324 10.343897580215149
Ti 12.25395060701059 14.75305878127993 11.778664717892465
Ti 13.53943605832134 13.343674931351355 10.01332048634758
Ti 9.758052672760176 9.7207074460869 12.22888522245847
Ti 11.150247791404237 9.425238481201353 9.718556755069525
Ti 10.93139303483338 11.824497176503433 10.841811172844704
Ti 9.691144678052531 14.13614244294889 11.75929675363885
Ti 11.081454750368088 13.939129173243565 9.238265373488828
Ti 12.478886731030132 11.602163903327643 8.534001292715867
Ti 8.266159513191601 11.893764493805064 11.884198982020111
Ti 8.726633386396195 10.376074514960113 9.925506083889932
Ti 10.1539390457451 11.532000602808962 8.207950870938255
Ti 8.686808502280323 12.979944461035299 9.648978779816703
