23
Energy = -148.39699416 eV
Ti 10.86929820771865 9.290190920837986 11.0948388428883
Ti 10.310679742459605 12.469995681547008 14.095222311091213
Ti 10.630674494889567 11.46299274962282 10.01018829962119
Ti 14.77803236850937 12.905582765333806 10.64013749280502
Ti 10.825407983381396 9.41225829671788 13.746798025418887
Ti 13.273241389356693 10.470065650533234 10.129296412992838
Ti 12.88484014318401 14.860419825090734 9.924588221450097
Ti 9.452460830584716 11.205194859030481 12.168895479169327
Ti 15.206136161952227 13.402509390931025 13.328156477028013
Ti 13.480045448682707 15.642731568206784 13.998297871145963
Ti 14.585525128818805 15.436427829798987 11.709743886496993
Ti 14.351337328397209 11.575149185891782 14.801319488715464
Ti 10.934001893555704 14.923582292684301 13.838777603420086
Ti 13.534428051862324 9.345494089672426 14.259263572230806
Ti 12.635990344797278 13.469934166077397 15.145008499742673
Ti 11.981249782255228 16.127040622310023 11.896759750715875
Ti 12.791261509079304 13.629283455672963 12.349709133121657
Ti 12.3851369734819 12.75692788134466 9.46736781042722
Ti 13.08204615406482 8.702488061081157 12.033929948039537
Ti 10.37671752700721 13.836191915198407 11.269671543946675
Ti 11.960299017953957 10.977351930052627 15.44783734128727
Ti 12.280176708858315 11.178938943087198 12.549357054441607
Ti 14.94526094966486 10.74124206559239 12.340658255657349
