23
Energy = -143.42544693 eV
Ti 9.371862543074096 13.209617022469333 11.752662722983308
Ti 11.447122067168372 12.100239048359406 12.547692304241476
Ti 10.779477766202533 10.980609631108734 10.387131293087668
Ti 13.127462184396132 10.338056063587507 12.08628977552132
Ti 6.952228506733792 12.185792260687448 11.996620546331807
Ti 10.667648567159606 13.413358977516435 9.698998084704375
Ti 11.922637249832974 12.207721862616555 7.9564512341220395
Ti 13.216978340616624 11.461183349864449 9.922193491880236
Ti 8.006032338789156 11.902935124947797 9.777859601209043
Ti 10.728413008756624 9.168109870064468 12.753716004760237
Ti 8.790052463597226 10.649795192824751 12.583148012641674
Ti 12.744895406659722 7.760607315661244 12.500320853509512
Ti 9.32546360996732 11.368491039218545 7.818142537365802
Ti 12.4467540152096 8.51219596337446 10.16696077713163
Ti 11.81040894977186 9.47551105901369 8.032841817580826
Ti 10.90655979199351 10.648190542979675 6.051590116569552
Ti 9.610216005898002 9.404477801227221 10.003018209818865
Ti 6.735635546237425 9.813810505361799 10.986892847225578
Ti 8.327768751565017 7.898979298093623 11.504759758801871
Ti 10.632350778058312 6.840329702621465 11.331055572437759
Ti 7.509516035620735 9.128662584753178 8.687000279046405
Ti 9.385994894056427 8.7679286500083 7.022283514570265
Ti 10.037371120753988 7.205463427355905 8.908068219673623
