29
Energy = -186.73081523 eV
Ti 13.146854298701 10.106968174518903 14.795169682521616
Ti 14.288064091667831 10.082873359740626 12.54143662944265
Ti 12.016585747423852 12.318305503205913 15.413183168741565
Ti 14.994863125719023 11.858534045038665 10.714480396100058
Ti 14.07073106207474 12.389500784150014 13.626197157256302
Ti 9.536284196655659 8.510934522016603 12.493171167563872
Ti 11.996074284058162 8.6357193614391 12.791482874610917
Ti 12.739308609285874 12.363435902612538 10.99703621251056
Ti 11.672575294255962 11.295708482343196 12.97862102117402
Ti 10.428894251050538 10.101810531286231 14.841184532647855
Ti 13.35367189431839 9.621159320834773 10.285907325366967
Ti 9.783710866263903 12.720087824662414 14.315640156542594
Ti 13.007785138831826 11.44907481404879 8.503948674864661
Ti 11.901520537598456 13.949802574530517 13.26916267085884
Ti 11.281526768739708 7.7295574046661315 10.216875245210085
Ti 8.979826025338173 10.94972891110085 12.581791598616324
Ti 10.598293301776955 10.41555740314032 10.27445310096077
Ti 10.024562186109732 13.229399090255537 11.512097913940188
Ti 11.8033238801638 14.740115361947584 10.257357806818176
Ti 8.96341956030554 6.854887355167196 10.5301359825823
Ti 10.752147852977313 12.75240540021236 8.766468120441571
Ti 11.843708533889883 9.182513168044501 8.17568132039833
Ti 8.101674548563082 9.283749122605895 10.429067749861707
Ti 10.66729735054422 11.032033795046114 6.748079080112243
Ti 9.44982623979375 8.1741922399954 8.353819199469832
Ti 8.209076444972961 12.297142391353496 9.918482437672223
Ti 9.307665292235553 14.74997127987399 9.430537409978553
Ti 8.602134495083916 10.557982896173273 8.18823767376944
Ti 8.730145625547149 12.957316156563408 7.345590949572399
