21
Energy = -133.43868304 eV
Ti 7.5399964977727185 8.669879886157375 10.09148069843493
Ti 7.981768890168638 10.81645745717411 11.197227096608456
Ti 7.517340290337712 9.138469001120965 12.927912073535644
Ti 10.661503043200305 12.049471513587289 12.084026615446662
Ti 8.064579444553134 10.967763616358651 8.431168982164294
Ti 8.981639348079955 8.536527866339565 8.053984700163996
Ti 8.973349258171321 12.897270320507694 10.1615723437081
Ti 8.144120091770485 11.854849309970328 13.291373700213564
Ti 10.20796872190287 10.287836606910055 6.973821818937049
Ti 10.127784757414659 12.546963676165584 7.819230422726007
Ti 9.811475911517594 6.884782561538219 9.64887499577576
Ti 9.796366471577501 8.398126359600132 11.576395917945883
Ti 9.883216941149138 9.995278776139784 13.423302608625566
Ti 12.497555543933103 11.213195030506357 8.057835247212637
Ti 11.489460775570603 13.173501835774507 9.705827300023723
Ti 10.577536157607499 10.466255260621816 9.728646751486313
Ti 11.633557598839815 8.394114188018808 8.192371449077003
Ti 12.250909979225955 9.81390502351319 12.117303860796152
Ti 12.116220933233986 7.560365356603296 10.719173726080523
Ti 13.023930441897765 11.681009628082016 10.695025230999883
Ti 13.396540558365492 9.441546465974817 9.80760629675554
