25
Energy = -161.7300253 eV
Ti 8.850298531561956 9.992286988555698 8.45365873951298
Ti 10.723664467377615 11.925909425079222 7.547598450592926
Ti 9.533343510051829 7.617324747259915 9.182142802667853
Ti 8.405468283504442 12.363303728493804 8.969104254499099
Ti 7.618096434927084 8.443310161436042 10.445278471909543
Ti 10.078112968973564 14.167443563147282 8.908846874275266
Ti 11.350351514065277 9.321775835623297 8.269119985197529
Ti 12.583897133319391 13.559002932199066 8.756202363082402
Ti 13.301237220600411 11.282978244970213 8.576808224159484
Ti 11.780805569609093 7.317273986887294 10.185728029081348
Ti 13.428662442291044 12.486694993841542 11.150734275662606
Ti 10.917937587565824 11.945144836070922 10.18090284063915
Ti 12.831683596128638 9.667199165352452 10.405078342242831
Ti 14.460270789299631 9.879651816409973 11.67036115448677
Ti 9.091973427101085 13.537216715154877 11.337486248212238
Ti 7.701874246329324 11.135392474697845 11.024134863905541
Ti 9.586116411616475 7.121349843609644 11.8772100615649
Ti 11.607142609826704 14.462967037603832 10.992866299337965
Ti 12.176006583139323 8.124348195141119 12.566007392177298
Ti 12.216080458963205 10.716029087531998 12.991137040695198
Ti 11.29034070415139 12.925691235859125 12.818276971983078
Ti 10.113324972515992 9.517081452387332 11.100823896436465
Ti 8.00490104738645 9.201899560984677 12.756885398763997
Ti 9.270116749359023 11.442836075569577 13.147962796328732
Ti 10.230452698162875 8.998047853961332 13.837804180413148
