22
Energy = -138.93595352 eV
Ti 11.487153047540271 9.983360219503764 13.081789029484998
Ti 12.846502214507401 11.376583741197532 11.353847484569666
Ti 10.206924386376745 7.872665207246018 11.999390454747534
Ti 11.309173103353467 7.71511105387474 9.345195929955521
Ti 9.073117997728195 9.802589920703664 13.452674817082205
Ti 12.663170697039767 8.625561186749575 11.429232869540975
Ti 10.09383020148028 12.062945586905562 12.242687859672516
Ti 13.238844763986881 9.626105308621321 9.28663944333103
Ti 11.418391739905356 13.47596129566069 10.554099015067825
Ti 7.499925729331557 8.055880009233654 12.28024846582178
Ti 8.59289093882389 7.609869727544809 9.887458332258516
Ti 12.326060763610604 11.969645967873904 8.673087393600296
Ti 9.524486460488351 8.196116032023793 7.37548366620542
Ti 7.99966070422653 10.341935530362266 11.34718204975422
Ti 10.710420625599637 10.231047137333421 10.284955268364145
Ti 7.05043930775297 8.147931629959839 7.819259236162615
Ti 9.116487418068862 12.57365441825067 9.73659373705546
Ti 10.713861113342213 14.010343683575854 8.253630047325228
Ti 11.537788734196146 9.72327606688013 7.506378106513786
Ti 6.302497976487534 8.878225036327036 10.015548977943416
Ti 9.963739889857537 11.681836835881052 7.388107196534069
Ti 8.40551051930804 10.103868646279453 8.742486155743023
