24
Energy = -155.49346324 eV
Ti 8.943141246110478 10.249483413785097 12.37179345748667
Ti 8.118371782544594 8.021329897168561 11.190506609830596
Ti 8.554456794245393 8.293242952744604 8.610082974073116
Ti 12.499935137097639 12.74368947650309 12.455045084971138
Ti 7.7750079541328105 12.49109377843368 11.61287793167791
Ti 11.400814792676758 10.367364449775469 12.821091719836927
Ti 9.674204910167543 6.4974080495643705 9.947331202627495
Ti 11.394350787652265 14.553035636217443 11.118270373006062
Ti 10.42307669992547 11.984608445560085 10.669295605452119
Ti 8.22045651284531 12.761299618333707 9.037531079905412
Ti 10.37484356083332 7.479670274186362 12.432875666062625
Ti 11.110485092693853 7.956262690758094 8.081390517837713
Ti 9.642890155577598 10.678236725568917 8.250647713656688
Ti 13.27405265750396 8.582216575951495 9.429777498599751
Ti 10.688797513192222 13.573950127741536 8.623318950634566
Ti 7.622229075422395 10.356921049720452 10.017287564158378
Ti 12.108264923301396 10.830036556233328 8.664334444803483
Ti 9.079347286227243 14.427046280274132 10.705857588086339
Ti 11.986958951954202 6.635317449037269 10.348939757206406
Ti 13.420037381836124 10.691681334424358 11.0385120474854
Ti 10.64117731772241 9.075341252108775 10.389794259163835
Ti 9.945117335987428 13.103739515336482 12.974409828147447
Ti 12.838682616972164 8.29798648636259 12.016283388570116
Ti 12.941857349535743 13.02759580036858 9.871302572878136
