29
Energy = -189.81818803 eV
Ti 11.387246908367162 6.390808675757696 9.963068281083386
Ti 10.025321427496918 7.169500425882575 12.21416191385927
Ti 12.458209881059375 7.438579325596518 12.207885983430836
Ti 8.511705786874707 7.712653360795165 10.109488555582667
Ti 13.645927143205347 7.981949002791454 10.159834299189228
Ti 9.747089227408583 7.976521900590456 7.927604861997695
Ti 11.134049841792056 9.210555273128632 13.691627108585216
Ti 8.568412676707323 9.1829892399128 12.552608026378506
Ti 11.075761378026632 8.805377843812199 10.144005661598705
Ti 12.452165649895814 8.037471489479119 8.035969267296444
Ti 6.808524136827865 9.154184905472167 8.214640783234934
Ti 13.327297715968514 9.965969615231778 12.099583492197263
Ti 6.7302872936893 9.4846910159592 10.84527350425383
Ti 13.06103016762571 10.580001639301587 9.434250875619748
Ti 10.718474805984483 10.782310961517982 11.618956506097753
Ti 11.20734627156183 10.322133232289076 7.461247451042681
Ti 8.813585506294498 9.979487888275749 6.487982637777343
Ti 8.792558547671353 10.454507123229543 9.168898340842132
Ti 12.515911836903953 12.79435122527025 7.921490385104722
Ti 6.267100956683169 11.491031118086259 9.59852998644782
Ti 7.976243435471601 11.860474746985004 11.618772775855948
Ti 10.764655531385442 12.417402073766914 9.494557978653448
Ti 12.762300374503608 12.546640431441762 11.217481385067098
Ti 9.474490071420973 11.394163536686198 13.801723390364408
Ti 12.02406756733711 11.795089339452785 13.622975407331804
Ti 7.101228641969853 11.671764239036568 7.320408554214451
Ti 9.569119216730703 12.39451681599338 7.144961637969487
Ti 10.365447989325535 13.290424176554817 12.12522289712421
Ti 8.207039499568051 13.207048865460278 9.289387539556303
