24
Energy = -151.05158507 eV
Ti 6.628228870607837 12.37446570864208 8.57822666230346
Ti 6.7059175241461215 10.495141670489884 10.15789979387765
Ti 8.154289004772385 8.424262648070023 10.260949380124824
Ti 9.908701342467682 8.55441974189526 8.163797913425332
Ti 8.317216833915488 10.542492296821584 7.977022498127315
Ti 9.031773010857014 12.942334739100367 8.3251210868394
Ti 8.113633239139407 12.635424575220236 10.780582950734969
Ti 8.072041647086673 10.396156041737353 12.316341248977938
Ti 9.669742815091608 8.2504106524591 12.394768424642464
Ti 11.726876416403892 9.007405904998665 6.316547859112978
Ti 12.029340552123404 7.077237572563074 7.580268145010594
Ti 10.983685328729134 11.224431641670897 7.917326052800705
Ti 10.884574215369737 7.585109137822423 10.261646826664842
Ti 9.93021335428698 10.45295682996885 10.369622608659261
Ti 12.397569722584612 9.324338154765583 8.878767512679808
Ti 10.380610143488509 12.459008667558297 12.445186574151242
Ti 10.252021353130381 10.198813241275252 13.777206099949991
Ti 10.703847518046832 13.275576031418257 10.05373085046077
Ti 12.122555166111015 9.478197856317323 11.700295692087202
Ti 12.559430500517776 11.725528328559065 10.522956873181654
Ti 12.419896813460657 11.415470368949476 13.681559283583688
Ti 12.370434719842956 8.624850967821938 13.712555417091222
Ti 12.930128393939558 13.420683247013516 12.112516483472632
Ti 14.309266772217777 10.753149704906319 12.341783863487587
