23
Energy = -147.98984829 eV
Ti 8.384799143505381 10.883918061404305 6.292494666231891
Ti 11.205036522802834 9.912470667162733 6.834581788893692
Ti 8.721544660518436 9.102504078094988 7.605784344696292
Ti 9.283026435635673 8.370878521438302 12.570463495055968
Ti 7.98594241239018 11.264086981194685 9.225889595929356
Ti 12.924517576534425 9.386463288342279 9.05528824792238
Ti 9.835190248195973 12.184362656368076 7.513223217548536
Ti 12.202046958927122 11.930629267231415 8.179223833409544
Ti 8.609130128293563 8.519281696207901 10.058251426760727
Ti 7.914066750902935 10.390916095580696 11.729759593859555
Ti 9.007313585991051 12.703582718514154 12.545521893358456
Ti 10.17211503779696 12.921122915291047 9.97767697718805
Ti 9.040673396284006 10.440045084999996 14.008881268878472
Ti 10.778205991130513 7.831160036043736 8.421885355761104
Ti 10.543110701008368 10.2413443705194 9.428624936024883
Ti 11.313636090968835 7.904754666530288 10.958389417316276
Ti 10.710024460922073 10.732050115945203 11.956478716019392
Ti 10.947582923278892 11.94149277750944 14.328465759418455
Ti 11.530229945311852 13.32648241096859 12.174791451956095
Ti 12.961873469336584 11.87449063297052 10.501286929697121
Ti 13.235168132597522 9.436760491167096 11.629912280352551
Ti 11.558807995431433 9.23162291417762 13.81933442952091
Ti 13.063984833140777 11.397606953242173 13.111817775105239
