24
Energy = -155.26604072 eV
Ti 12.646499971654293 7.758032533233051 10.45611514232246
Ti 10.932088606914308 9.659426364659621 11.236766568429621
Ti 12.430887035266606 9.11773883746518 12.865850335960799
Ti 13.406139237081495 10.451660304211137 9.89053149579269
Ti 12.040283907701367 8.73734134541793 8.340099708740489
Ti 12.437873979945415 12.941345577277724 8.79789561075483
Ti 9.76843293591251 12.314804018977012 7.6051147505494345
Ti 12.217893771117385 12.268782687800261 11.592926111102402
Ti 12.14804292886615 10.945073560967135 7.2819897711412045
Ti 10.51462347138797 11.020409050097529 13.508693704922608
Ti 10.102748773532431 7.30579660267909 9.266073624842047
Ti 10.726600447434965 7.069956263858848 11.88071282602074
Ti 9.670569709623456 8.688951402601765 13.389325928737323
Ti 7.59281666513207 8.105558549880945 8.44180918316094
Ti 10.897803784168808 11.237509956096236 9.537215079067018
Ti 9.78901455013132 9.37714624435039 7.211608600995249
Ti 8.911944932563593 9.760163264084289 9.759400168223149
Ti 8.1222180999019 7.833031806292869 11.244772184185571
Ti 9.561824060348314 12.526786301942433 11.892854105121272
Ti 10.317326383944767 13.742143208659058 9.907358326186255
Ti 8.010699225568507 10.495835618138385 12.256113802194688
Ti 6.44507647971939 9.84767172419904 10.068714157080544
Ti 7.897363173209901 12.267324617066198 9.911326130030057
Ti 7.531933511740772 10.675644796698608 7.795387694957501
