26
Energy = -166.82887721 eV
Ti 12.987878169295803 14.279585998803142 10.367754376127415
Ti 10.179521237377081 8.453905716501943 9.821539798051504
Ti 10.402318104967843 10.126115895116513 15.969187475158366
Ti 12.812022655768097 13.663228747022547 7.938179936419842
Ti 9.88835617919655 10.49535646582218 8.028359990025637
Ti 12.893582298935796 9.376181681146745 9.499301166006692
Ti 10.709065796371128 13.510888548403583 11.885722691767928
Ti 13.352101427680392 10.256469881962422 11.832215116183606
Ti 10.723233838490911 14.515749101401589 9.302990184566237
Ti 8.93953976157093 12.640360673560586 9.69659060444095
Ti 8.045817295707643 11.444833936542256 12.13298965738064
Ti 14.21820172440485 11.851618938061362 9.555247571362596
Ti 10.464829328072296 12.806907900730193 7.395348739766971
Ti 8.940382253846261 8.610569300089564 12.198751699600946
Ti 10.556434239754568 10.715491887343594 11.745402741887409
Ti 12.692744831739214 11.108751116780176 7.358148485626897
Ti 11.703618170761448 8.702371180668528 7.611144496254006
Ti 13.44182957530135 12.719232736225083 11.962759247674589
Ti 11.644490027252044 11.98694306325068 9.683600084257154
Ti 11.520701064775276 9.483190118587888 13.915470820751665
Ti 8.525367341117532 9.870876129013114 14.312693337199411
Ti 12.061888377585044 11.930323858893797 13.846003531664943
Ti 9.68994308488244 12.01213482220343 14.116825509789539
Ti 8.351572532859189 10.149215902736572 10.056371035136797
Ti 11.612421181535753 8.045234761908805 11.821033674204392
Ti 10.007245280516086 7.7245541847997945 14.514538964208556
