26
Energy = -167.38975737 eV
Ti 14.395363417053154 13.844375386760447 12.30379254222037
Ti 10.109692475452016 9.574929981387625 10.164954419751599
Ti 8.30790619480063 7.541652986210092 10.067000348760802
Ti 11.45107536640813 9.875737876729152 13.642421008971768
Ti 9.75452474959893 8.263670786911982 7.965688553805395
Ti 9.145746307151851 13.359343464386102 12.467509304930575
Ti 11.925930479255182 12.672381943092777 9.030060464232665
Ti 7.693818997544812 9.809087002591783 8.912557785370563
Ti 9.908921413872509 13.680758394526604 10.069639867419935
Ti 12.230295543399148 8.21982875914245 8.861440770074758
Ti 10.385557777274675 12.241068500916512 14.230443960053593
Ti 10.6909756448039 6.889582554268037 10.228310216393524
Ti 11.895161908820269 13.837235358533352 11.941909073106975
Ti 12.946137145584027 15.047904435755822 10.119700660215866
Ti 7.48564074912475 9.387017992209216 11.403407792658644
Ti 10.990689627230099 11.497963395538441 11.560351940312554
Ti 8.842934564180291 10.630721868335138 13.133061689248931
Ti 13.245407918544133 10.219009270255272 9.7875634184267
Ti 11.521975526978094 10.334379663044105 7.736587338531309
Ti 14.044781932476344 12.717794447531455 10.20198518408947
Ti 12.349966116933187 8.423349453320572 11.555545098914058
Ti 12.665342375631651 12.315073418263728 13.95272174698388
Ti 8.042961799108555 11.806492050668508 10.665702008545072
Ti 9.451756666225984 11.70382106082984 8.409355132595042
Ti 9.722031037705401 8.11271742059462 12.399448018966513
Ti 13.740150858697916 11.073653594729594 12.239207603054759
