22
Energy = -138.21891802 eV
Ti 9.850420401647593 10.353203655371574 13.827307724454041
Ti 13.587298941693867 11.257328734684936 11.963890120806564
Ti 9.361133092961579 10.153482314236395 8.890346525671555
Ti 11.143193965971648 8.201485736074728 9.806310897659701
Ti 9.967514622644837 12.9314222464768 14.724361400915322
Ti 10.911012186027063 7.944806677518245 12.543599127850442
Ti 10.996108218390534 12.97053725971549 12.283946412953446
Ti 13.210220991965615 8.731170171349005 11.336611227448417
Ti 13.647956455558745 9.144160366079303 8.492046837630616
Ti 12.578274171121487 9.475745918593946 13.778403244674292
Ti 8.7547374611357 11.615394281419077 10.966614475724372
Ti 11.364832927915502 9.414675179764894 7.330833078569893
Ti 8.895749676121504 14.115174112489935 11.113950077230276
Ti 11.112376633996913 10.348083591994987 11.644673726919713
Ti 8.857550760907966 8.951899295645886 11.390491856934272
Ti 8.251250270921181 12.543418608792665 13.224269899406508
Ti 12.125123883223496 10.789820380229227 9.48642340071809
Ti 13.112355435665876 11.308675488458606 7.187668913564082
Ti 8.45147101366136 12.808754039723157 8.663777931124644
Ti 12.23632441590984 11.777220952157764 14.196222054305299
Ti 10.542366689372692 11.81891898083883 7.238150367942328
Ti 10.759842080757108 13.06730158574334 9.62144702883671
