28
Energy = -183.74550541 eV
Ti 10.140656018693806 10.122667636010302 6.533634678359356
Ti 12.38576077702545 10.098015042404175 7.757705267141612
Ti 10.925092289659894 12.481698407361561 7.58188476252973
Ti 13.342706904441982 12.158622644325373 9.307377228026144
Ti 14.301271033106955 9.628222102203106 9.441687732988292
Ti 10.187960966174165 8.1859418409479 8.404569387637238
Ti 8.320093706012456 11.815231031459161 7.033480124161953
Ti 12.575355667598702 7.8205506445186455 9.284218094815367
Ti 7.920343823194241 9.328866487376558 7.63557297422464
Ti 14.465824397126063 10.887852712630076 11.521661366886585
Ti 9.657735824719591 10.75802973321201 9.098646099190832
Ti 8.732730873242364 13.308927765438925 8.902326429757602
Ti 10.848909058699357 13.153880019979978 10.319890810520118
Ti 12.000398282949336 10.294239504645448 10.589307498489093
Ti 12.827217688921063 12.716381615241367 11.80603652268797
Ti 13.36360995354756 8.43752650620492 11.757109038421877
Ti 7.063146906328804 11.180992804962154 9.380953223344205
Ti 8.290176459503751 12.715225024035 11.412790275740901
Ti 12.556661237160133 10.62641906561673 13.389054099228249
Ti 10.525609810786449 7.655158087923516 10.986330586796253
Ti 9.664928976552824 10.35187392464725 11.814363092583486
Ti 10.509889044951898 12.543814034352057 13.07450867727154
Ti 8.040226617119666 8.55398478270562 10.141509752977875
Ti 11.172507040363964 8.374574810307896 13.246386633678684
Ti 6.96591085548875 10.268216169660946 11.7916237940147
Ti 10.16730770584108 10.239768539066338 14.50750721487951
Ti 8.112355019710895 11.283247187312776 13.695156016229255
Ti 8.504166565971275 8.578625380343729 13.153262122309698
