25
Energy = -159.94153758 eV
Ti 12.09127395357993 11.732989158324457 7.123625121195391
Ti 12.390485674131023 9.183850647318131 7.616975134058144
Ti 10.22572864366993 13.086496887425156 8.279081461473307
Ti 9.851020364770278 10.343520517243398 7.943121552063963
Ti 11.913022194656502 10.724196181266693 9.517504251169187
Ti 14.212093384150593 11.058478037445516 8.865436891638733
Ti 12.642239051470913 13.390974437149774 8.985525256197029
Ti 8.936704332049658 9.684886140727565 10.37416544822451
Ti 10.458780667267343 12.169807637801922 10.963908662828267
Ti 13.35543967303785 8.534192363527763 10.058301697379438
Ti 10.840262554858024 8.214102543182477 9.611304351668075
Ti 8.217395535295106 12.176603121201289 9.852381084323353
Ti 10.922835754815402 14.450280829322375 10.795172841231418
Ti 11.466891107726667 9.937488989472792 11.796735112074337
Ti 9.517432390206611 8.554365430212215 12.860444053060304
Ti 8.466963251609592 11.063867426594948 12.511800806696815
Ti 8.675102323012434 13.667860593046568 12.307075291990838
Ti 14.267395660613627 10.214717701659715 11.560646975708742
Ti 10.997290400318947 13.043669715702439 13.390603133677502
Ti 13.292539350090204 12.634890552223636 11.320083715280045
Ti 12.654286292587507 8.553970433154873 13.126418901944268
Ti 13.07087464972726 11.209292229554228 13.532962947454548
Ti 8.259224355431215 9.821746863765393 14.765166951048002
Ti 10.706739014096673 10.466551367908567 14.374608636981574
Ti 8.819642792275257 12.332863566217778 14.718613092081812
