26
Energy = -167.61359582 eV
Ti 9.818680014359495 12.426557344999063 14.753661703772844
Ti 11.20396001483894 10.13114781342501 14.629268635997764
Ti 12.172631006105494 12.744583955377484 14.168207566276324
Ti 8.52600473471933 10.35604355333964 13.971358929871114
Ti 8.11605545348782 12.608985489523182 12.855596069222859
Ti 13.477134103268563 11.054355452346758 13.124931066453794
Ti 14.626583402139255 8.90280414441474 12.006761043523259
Ti 12.186120783122472 9.003572184660918 12.14436454040909
Ti 9.508251556463547 8.559198414512586 12.773083196706713
Ti 12.98761534738697 13.191224493174852 11.625973935238045
Ti 10.53948142713981 11.31259509942477 12.3971076143123
Ti 10.398767856574734 13.997850566638208 12.613812852148184
Ti 8.081546283488384 10.438494779492835 11.274213920670649
Ti 8.903698048607088 12.951084406167288 10.441883944750908
Ti 11.527904334223514 11.330206132134448 9.834920534067649
Ti 10.594599073204003 8.876943933238394 10.438003553433342
Ti 13.20880850117776 8.590536352684829 9.680006535672643
Ti 9.055840662608919 10.795217535751332 8.735301354109836
Ti 14.224516041215026 11.049617004868331 10.536184626864491
Ti 11.20792122965659 14.21743847241009 10.178194095030076
Ti 12.990006017005516 13.010130980085247 8.622389064558137
Ti 13.420489365861325 10.435531197307968 8.086595865940772
Ti 8.634511628115243 8.250725117000874 9.919729948266621
Ti 10.282907857036909 13.235538895081634 8.190258556058524
Ti 11.005446705699823 9.104984250009798 7.961502764912387
Ti 11.319357803271217 11.444129148082341 7.107462052936779
