27
Energy = -175.35578329 eV
Ti 12.186939224603211 12.575541562246546 12.974369928028562
Ti 12.071074219137486 14.362229324353839 10.850846149513286
Ti 11.602497369999327 9.686570890906312 13.932402723206668
Ti 9.656593778752429 13.614911101761413 11.923202881436412
Ti 13.79029911542445 12.511887852660434 10.7717366329811
Ti 9.844460709981893 11.76797868301172 13.692072427521154
Ti 13.23207843799712 10.156512699509928 11.729674566483945
Ti 10.049024652743906 7.482167675020469 13.214676158562874
Ti 12.20687589612306 7.778574507032595 12.10225729506955
Ti 11.155261065709785 11.994964674487013 10.710873584125634
Ti 12.409182358756327 12.906938708241809 8.385122728919338
Ti 10.077166915928304 14.032879827948255 9.290413785505907
Ti 10.261693494382772 9.633203292721966 11.675013834007101
Ti 8.88774922455107 9.58100380307746 13.995097034856656
Ti 10.00082352395491 12.494280381839934 7.2747398864106065
Ti 8.379684185068818 12.200438730588683 9.453371514708552
Ti 7.940570429544844 11.121353503563144 12.0133625076498
Ti 13.514896817181729 10.658231200488194 9.099716199113209
Ti 12.41228449896129 8.411460725018681 9.668101218742722
Ti 10.028616331062551 7.259120452121165 10.433948479249963
Ti 8.804050876170454 10.253357352319687 7.2855462475719515
Ti 7.903664147060169 8.273191820935834 11.8739232378984
Ti 10.72055765976871 10.500256271607851 9.034323976905446
Ti 8.06917770086666 9.580815499704057 9.729030740893593
Ti 11.634836560646548 10.447909134311491 6.907092223325135
Ti 10.216448920449807 8.155274405514637 7.992445096308665
Ti 7.789614728165247 7.385243314579276 8.821013267969327
