26
Energy = -166.68264222 eV
Ti 12.005690856152937 12.242922250645956 11.077223119437997
Ti 10.300904958344296 10.396148884888582 14.27644765545534
Ti 10.224877427603424 8.573917244181029 12.195470326971316
Ti 16.15122953175342 10.781970453595285 10.902483243161925
Ti 12.481126774301048 9.834883962661891 12.832488096120457
Ti 8.329280909908434 13.673262895546097 11.243416328179173
Ti 10.660599865350504 14.383823613158974 12.220242273675703
Ti 11.677620482474753 12.175276114723976 8.458667674915596
Ti 8.474085578923416 9.397798684900588 10.335922739664458
Ti 11.765739484987577 12.54475063651371 13.817832127955548
Ti 8.084301306323864 9.987537330414915 13.201752735253212
Ti 12.669216709536826 7.862208172758033 11.136458193226856
Ti 13.35861579630212 14.128974374997163 12.177249922002273
Ti 12.333476029769445 14.534709943142909 9.842536043544486
Ti 15.027513067158711 8.970204003104103 12.13025915679677
Ti 10.091226186272554 13.9717662763473 9.562350920754929
Ti 14.243770435949806 11.607402574273856 12.518825801903407
Ti 7.208644940004906 11.614345007988334 11.573973849262424
Ti 14.269840914652706 12.729802944743867 10.001266539854184
Ti 13.85215289558783 10.044011530019567 10.156279475696799
Ti 10.180324337702045 7.515855497098099 9.53439638438621
Ti 9.808017122233508 11.40714648736023 11.822062296232636
Ti 8.780617557909924 12.623379825622033 13.711959984208118
Ti 11.164627304185382 9.761930449594159 9.890150821657395
Ti 9.651548587394812 9.361309315606402 7.9188495312336125
Ti 8.911484982591327 11.695175642855235 9.217149553705188
