28
Energy = -180.14780058 eV
Ti 13.447562834702897 12.852989563164948 10.466762724819322
Ti 11.717119817466397 13.780584842685531 8.374154771827628
Ti 14.160982541507224 12.799970411960926 8.066132512618962
Ti 12.44663954583236 12.751127537069925 13.299270466617655
Ti 10.139917352381122 12.010168306376814 6.952960259834631
Ti 12.536537510769001 11.745318022080122 6.794903358662726
Ti 11.054245347358897 13.362261520311348 11.258607602214807
Ti 13.031178805033635 10.751969317094387 11.580822394822452
Ti 9.075485973344941 13.103183491041827 8.85768338942592
Ti 13.564106205463393 10.265598603108932 8.932802391482378
Ti 8.797545479361434 12.16152563146833 11.140590307828745
Ti 9.891479110480338 13.031193822847285 13.57764013612016
Ti 10.701966688514638 10.769122280147906 12.742912478734462
Ti 11.16883430197156 11.391351116676638 9.452292803811845
Ti 11.44714838444477 9.506617393020322 7.456039904070881
Ti 11.608905578615694 8.895114331100173 10.261804077720281
Ti 6.850679897678657 10.51179399615675 10.59167890131143
Ti 7.8701750852914 10.983416466887949 13.109157242428449
Ti 10.970980156027375 7.814574705098438 12.691942875066243
Ti 8.724799827567841 10.352339390711714 8.671207800948574
Ti 8.996819424403059 8.859921698401951 14.001642352733784
Ti 9.708773000015636 7.9318343158732105 8.39207603499735
Ti 7.4746554367866604 7.812450144261202 9.9851671172983
Ti 12.272253099121711 7.19794378573575 8.763407062345234
Ti 9.149313333888323 9.214494632932093 11.271200451097243
Ti 9.976932963132173 6.606384833528783 10.45113797944331
Ti 8.444684542230162 6.865614384571707 12.429559227004408
Ti 6.774955087009595 8.695256575313214 12.447300085485326
