27
Energy = -175.69773652 eV
Ti 6.643838497170804 10.22000275008208 8.390093019918357
Ti 8.438473115920653 9.432199774382632 7.117785484957043
Ti 7.8243685999030825 7.986858941158827 9.326409798754971
Ti 6.463978665483834 9.84779117676886 10.805773711938317
Ti 6.9779998695737975 12.167956263980782 9.901065345185298
Ti 8.522557643832437 12.083169145454043 7.710999782209493
Ti 10.4040284837627 8.141801805842606 8.225257553338102
Ti 9.163182477950752 10.313138752594446 9.720931118952342
Ti 8.272097408662093 8.76427104062201 12.048973344418409
Ti 10.529810328397781 10.534097188589532 7.092281956498545
Ti 7.983947354610075 11.651338592479675 12.09758396350278
Ti 9.891528733948954 7.406236497319085 10.660824745637592
Ti 9.267701266258904 13.178331101756125 10.23669009960579
Ti 11.275105036469672 12.394524960535946 8.41135881935424
Ti 12.534241427716758 9.865840143308189 8.392852378138034
Ti 12.285826670685347 7.834695407586303 10.197310496882691
Ti 9.627677810260233 10.348745240594003 13.416224692501673
Ti 10.959739311559382 8.3053271068318 12.735898960560919
Ti 11.707398256887448 13.511484172659053 10.490304715573004
Ti 11.733023605865878 10.606087006342278 11.099792755980316
Ti 10.448854102886187 12.693387797677037 12.673257086861824
Ti 14.193287179321285 9.40474657219877 10.245140902265234
Ti 13.736168524613086 12.011450337568396 9.835099082593795
Ti 13.378172898069389 8.629548146628553 12.525451689276805
Ti 12.108250834664041 10.70839911335422 13.779672085425448
Ti 13.02121734850626 12.811147791223936 12.332881950198036
Ti 14.332576400447609 10.872475025889111 12.255136312898932
