24
Energy = -155.85062128 eV
Ti 9.30898346736452 12.559656844167261 10.345834130649889
Ti 10.86354835685688 13.636167323048527 14.977860511676138
Ti 10.617236137448742 10.865410184868082 14.289345221492253
Ti 11.465255280192515 9.182226261851081 12.235988387140644
Ti 11.716536157984889 11.723341458839702 11.23351955380708
Ti 13.495814289041304 13.43259721685334 9.486181595205657
Ti 14.110246517713998 11.193931317770742 9.688997005728309
Ti 10.607173674171099 14.670878310040907 12.290841147310875
Ti 12.74092061535785 12.806264282956088 13.327685730663132
Ti 11.566314367840764 11.766238610143514 8.660473370845592
Ti 14.851454128275309 14.499380213918075 13.547596444726057
Ti 13.027551041468334 9.983154306917525 14.141389912178047
Ti 12.598366294195076 11.687775486945087 15.815073805526323
Ti 14.232166875198129 10.228818788211932 12.029354038248902
Ti 13.287791683535243 14.97554529066943 11.484592157338525
Ti 9.32757315965506 12.724934664556592 13.01953429555933
Ti 15.03663785230093 12.771191399403888 11.64244078258578
Ti 9.183140448711143 10.536397404320944 12.076848242352412
Ti 12.556932411190722 9.44046496882536 9.868187968350195
Ti 10.108607763353035 9.999451506107448 9.95865916175467
Ti 12.4543099944051 15.495770130352634 13.899130710720334
Ti 13.55192409045273 13.914960944971417 15.600703118538993
Ti 14.929501427737275 11.852616859190471 14.32684646934569
Ti 11.234768186509863 14.23387346392609 9.879057197930223
