29
Energy = -189.910174 eV
Ti 12.245918176357259 6.742392037261045 11.155502220282031
Ti 10.465046358007145 7.865896041026597 12.605717079678497
Ti 12.930961353880662 9.140423620414518 12.164253872371225
Ti 9.699383109321536 6.384904326678866 10.544076080379977
Ti 11.542416002331414 10.960909963401317 10.631111602369856
Ti 11.330826338284062 10.795345530856455 13.733750950302403
Ti 13.383047677059585 11.959578316200348 12.544180567292761
Ti 9.381641355947982 10.236565897552103 12.567968266804428
Ti 11.4421760609301 6.496283854965201 8.680609588628421
Ti 8.31131336005659 8.488561282993711 11.060287775380429
Ti 13.403207475594893 8.37166147096763 9.350415838712177
Ti 10.789183082427478 8.686465521392776 9.960783211891775
Ti 11.755016150553656 13.233112101044622 14.25258980832564
Ti 14.149088129476546 10.684941641344487 10.383399703091259
Ti 12.681440674663742 14.479568618703022 12.194952318269218
Ti 9.091826505262198 12.787172317629356 14.021306908100417
Ti 9.086673629521789 7.998081491310557 8.289631306173538
Ti 11.609500366306294 8.52485108368363 7.3208089374111225
Ti 12.96977425361663 13.11738023039569 9.999594812645325
Ti 12.70644011172854 10.795312401500576 8.16792221398404
Ti 10.40451612140427 15.086699749946373 13.20978183343531
Ti 10.42545050287185 12.843642351183261 11.819917793643436
Ti 8.614625036131574 10.69475117183347 9.67061908461891
Ti 7.681295472252956 12.068266568431095 11.773808112106472
Ti 10.649810269715266 15.007131331351998 10.437610616361766
Ti 10.859548539087044 12.826964062230328 8.685958298869723
Ti 8.35417535237447 14.532801026631766 11.987669373445662
Ti 10.120202529950754 10.492398712557813 7.737159712722678
Ti 8.58822803857168 13.37066931019903 9.721344146389761
