23
Energy = -145.87932136 eV
Ti 16.088441120463052 11.07647161111359 12.065820276358068
Ti 8.663727164809627 14.189485055234453 12.252123924144895
Ti 14.018673207575342 9.76483996076382 11.108175825174536
Ti 12.612532857609633 11.53248397109668 11.95511178677533
Ti 9.016892748547393 12.81097195848333 14.535705969458071
Ti 10.855772902526661 15.545409975297966 11.726340719165409
Ti 14.541503451561828 10.105403622442536 13.731176400255997
Ti 15.668552613574695 14.843129549174133 14.148922388691693
Ti 10.30027355412606 13.063830916933089 10.395718944382335
Ti 12.751253057616672 14.301043175265479 10.839715663175236
Ti 12.280754888075041 9.189907977201003 13.097046978428908
Ti 10.265313559749744 10.490109965604105 13.78211651813571
Ti 10.6677470399066 10.151187829125742 11.175494506591777
Ti 16.254674062755846 12.196811459181408 14.455821576183126
Ti 14.306486487180349 12.981402090972367 13.018196982485891
Ti 14.941888758145687 12.756742251815087 10.383698004276518
Ti 12.811894846903797 15.113047792328471 13.570872188954057
Ti 8.819713882357489 11.684720359001359 12.150669110653201
Ti 11.008953841502898 13.18655593247057 12.981587708536962
Ti 14.837400345373954 15.2626830034641 11.726402120206295
Ti 12.521860499953014 11.554865232824953 14.72158935044002
Ti 16.767451342560957 13.52793048493527 12.208048398112428
Ti 10.029752977294104 15.321060800066391 14.136561858995979
