23
Energy = -148.37329043 eV
Ti 13.934869447891751 14.455378436259624 11.462536487753711
Ti 14.258368921195768 13.561990823609005 14.22357566622859
Ti 15.883005777565106 13.43270415882767 12.094718295473548
Ti 13.088178573083509 12.642053044559079 9.373476869685502
Ti 11.81050418169874 14.600505920764046 13.147288361479125
Ti 11.774627742216058 14.7636034743746 10.511299259013322
Ti 15.276077955707274 11.356086232078207 10.66334612502874
Ti 10.490851589913518 13.404351501450247 8.984159339736067
Ti 15.903049988399314 11.433016544573803 13.369964204040063
Ti 13.408908378834212 11.932744478782354 12.419150277661352
Ti 14.576937111131087 9.500911634628459 12.420394063163313
Ti 9.254011320715232 14.154652412894942 11.339582177945303
Ti 8.838202994572843 11.773125686110147 9.902843897995805
Ti 13.871934774100433 10.774700209657938 14.75533442920368
Ti 11.07657942679815 10.922526764805035 8.976598811855967
Ti 11.001149522125099 12.240295873871018 11.455754422064476
Ti 12.951335753552272 10.016662726208704 10.381889128201731
Ti 12.189068257021692 9.449865582374784 12.972845912441949
Ti 9.727781271336664 13.216510917418951 13.80750038470731
Ti 11.91144670098383 12.47424436787542 14.75941655719919
Ti 8.458223819665234 11.679302792356463 12.293796940462581
Ti 10.1724255612701 9.735452652680051 11.250798904490113
Ti 10.169490341825142 10.68023011504985 13.837954033512121
