22
Energy = -138.45127332 eV
Ti 8.858937372263977 9.570830635594602 10.269763314889659
Ti 8.339878207511893 6.756183323692474 11.198827087230798
Ti 13.6111500838848 11.584456500841926 9.549908779579933
Ti 9.382573442803455 10.693461886538143 12.627599310919626
Ti 7.648274906683254 8.656122437791288 12.506291608997389
Ti 11.35404637400452 10.793928444815776 10.901501100042694
Ti 6.932044754138422 10.817949238869645 11.464071007400856
Ti 8.976691349275095 12.318287554415502 10.358090245591367
Ti 13.514938737158824 14.280638510997793 9.345947243320952
Ti 13.920733702445412 11.037086100202874 12.004599900933632
Ti 11.047552556052201 9.445783473593707 8.596675752320492
Ti 14.77199865637741 13.512030658577784 11.021644238645004
Ti 13.076391029511726 8.892482920705532 10.714316516615806
Ti 12.18268147649999 13.115864558437181 11.27802283969274
Ti 7.040494382817748 10.961640803482936 8.896367233708602
Ti 8.448357215520803 9.017110083034488 7.6785435344639055
Ti 11.391596539852257 12.522576110899237 8.811672129748
Ti 9.322273772564522 7.1930954592664476 9.081542249995454
Ti 12.271945926080319 9.465851770707198 13.097127340744581
Ti 9.278319346119822 11.346437381384616 7.897721183591078
Ti 6.737550623067806 8.350200091969594 9.798016757220049
Ti 10.601732090949422 8.271701049075284 11.597215172572206
