22
Energy = -140.52169294 eV
Ti 13.932788378683506 11.049946517002294 9.563658016802536
Ti 15.230077795840126 11.595094969422167 11.404667800439768
Ti 14.996290608482497 10.78326243321518 13.607216553820697
Ti 12.992287337405047 10.053389514639406 12.03882089866619
Ti 11.44435865569408 10.491363194140355 9.942598720761456
Ti 14.923166794471383 13.57150134902203 13.064213793767497
Ti 14.340929070832521 13.768123928464908 10.14121125936056
Ti 12.371865599887856 12.628478570402548 8.514030405147878
Ti 14.818975127101782 12.161627509708161 15.495440634239735
Ti 12.852528497541796 10.242896689834476 15.06679734403064
Ti 12.609924266578128 12.43766551597818 13.928116912170191
Ti 10.088203145070219 12.601296196744265 9.742219401877245
Ti 12.419663352955233 12.615472762162653 11.205998060540441
Ti 12.657189169501526 12.481238699642748 16.643116364443713
Ti 13.762123420057415 14.50841049300029 15.172917876872734
Ti 10.375565827541212 11.381039666081394 12.413878225958578
Ti 11.73125739976571 14.750141495783359 9.8536955755099
Ti 12.32178195145566 14.957408584904849 12.762379075064567
Ti 10.48722059079175 11.818893939967356 15.402568664680341
Ti 9.953822195667822 13.66868080758019 13.789220302808813
Ti 10.00497669331986 14.126871750263602 11.536171883231544
Ti 11.290731002283382 14.334537827488798 15.558727277869252
