20
Energy = -127.03401083 eV
Ti 13.652672905751137 12.21717940966533 11.173682689393392
Ti 13.469275825725921 9.793257469967427 11.595395002127285
Ti 8.961136543659435 9.958922683298477 8.133313163651886
Ti 7.9837185686927254 9.68480986183464 10.661628899227619
Ti 11.364717386864118 8.974995793399238 7.976155532555745
Ti 9.775526044868233 13.564798540172827 11.14009130502414
Ti 11.869412229967512 11.506344208073541 13.064115765821715
Ti 9.755463311880959 12.913694975825791 13.525825199915314
Ti 11.054872345428118 11.43153679162252 7.808588725559066
Ti 9.358453634478154 10.155963669313165 13.083934757161689
Ti 8.896090734399914 12.14707165224048 9.2433471143437
Ti 13.157991388602746 10.47181745257808 9.149873117458498
Ti 11.94958550949888 13.91602718824679 12.145569554182414
Ti 9.54051077869269 7.956922453608573 9.36588457500024
Ti 11.80669670059977 12.90064194675603 9.607254520623009
Ti 12.117655303735644 8.026667867539873 10.302738412384729
Ti 8.043990351581835 11.924706717642069 11.763599804169921
Ti 10.69770796697833 10.393739233589747 10.535802850182094
Ti 11.632296728692726 8.928352464771297 12.826558817956691
Ti 9.72213318050946 7.942457060461626 11.706547633868599
