25
Energy = -159.57357607 eV
Ti 12.921363156092823 11.10486645715668 8.46208597387621
Ti 10.96619384097114 13.02258262151663 7.937732256887338
Ti 12.292589529659363 12.975091444346889 10.248103929708174
Ti 12.758664559170853 10.351047353832143 11.116323572367511
Ti 11.689034181047228 8.814131424078388 8.849446972607652
Ti 12.006156305986842 7.725095084391147 11.341392857867246
Ti 10.412298482177054 10.571357580510853 6.8991043248766415
Ti 13.95313973135246 8.27556129161793 9.668888648328306
Ti 10.085816087408777 9.440543049485568 11.824177467959823
Ti 10.543775886465113 12.05638886572132 12.173479869914274
Ti 10.603881105943374 11.201107621541091 9.707403778792681
Ti 9.672330544537651 13.561865600691062 10.179861217743118
Ti 7.366420669170139 7.61373956295466 8.426138496861256
Ti 6.395557183106752 10.118605983645658 9.108670501538274
Ti 5.8709586206063875 10.359174096602306 12.236272617297042
Ti 7.452115890968867 8.614146882551182 11.176927944279159
Ti 9.776917103852366 7.82435474719937 7.307900307665818
Ti 9.699292235739854 7.060862233275753 10.079819649517034
Ti 7.827747432322142 9.674945700970104 6.775853005578937
Ti 12.184182698613512 6.392200458784288 9.149920901320048
Ti 9.146928121085383 7.317830832303846 12.804564469010922
Ti 8.07390708992637 10.100982321438634 13.38333701886532
Ti 8.855815266956881 9.498133695039 9.085820336810684
Ti 8.051801111785988 11.353662722495068 11.055708085622488
Ti 8.457740104902209 12.036349307699627 8.065692734552622
