27
Energy = -170.54217986 eV
Ti 13.817044758132882 8.79603699940449 9.718366744345733
Ti 13.862181766178553 11.389342614750108 8.36241770141835
Ti 12.336597730073576 10.987371423765705 6.772978061780886
Ti 11.54512706659381 12.542722272822973 9.079538495764497
Ti 13.80761930543144 11.227662845896099 10.96269446745246
Ti 11.437733946075394 13.472067492619061 6.727125886328634
Ti 12.268940559509357 13.319845470625092 11.747141986737736
Ti 12.66433515036111 8.877197922761518 12.080483045664174
Ti 11.532089444802457 9.869568762803759 9.060393381858754
Ti 11.554337664395472 7.3995420071043885 10.059053546833027
Ti 13.503698915042227 6.519792899432308 11.421410986013838
Ti 9.894916131855926 11.380349115122444 7.167929834026194
Ti 12.848663563116327 11.279497943380877 13.395377387486416
Ti 11.286989880002055 6.796425357738513 12.605209846058791
Ti 11.09599193489739 11.031185688767266 11.509433310704667
Ti 9.026316046052154 8.669563697730032 8.775958683023717
Ti 10.44750878022389 12.481980042372031 13.673616098185498
Ti 8.947276400106421 11.14087026022982 9.569300877709198
Ti 9.242414307984768 13.552608123141418 8.417406915722284
Ti 9.473575274328423 13.296372487194283 11.340313868056642
Ti 10.62085337450444 9.723455450594159 13.808546544473872
Ti 9.617324533990233 8.622266518902029 11.34454483304367
Ti 7.109363648314877 9.500102237373566 10.418119404116744
Ti 8.497503975963216 10.932197903936874 12.402775193071417
Ti 7.022844891575682 12.344984827934779 10.738494322517804
Ti 8.385440486521293 11.197862659931962 14.926477074990244
Ti 7.696005593729186 13.109440984909643 13.448059389897166
