21
Energy = -132.93880047 eV
Ti 13.086539198695654 8.919907095893565 12.061464378728646
Ti 12.739165926500371 10.497010121029218 9.645888798633422
Ti 11.902432922670174 11.531867295909374 7.514386908784692
Ti 10.90424532930878 12.621391856672842 9.728105763973032
Ti 11.652044010042315 7.951554559391026 10.065799340772438
Ti 11.772341074085592 9.006059530547125 7.803126508376552
Ti 12.162820527722282 9.881161527434186 13.983881892019484
Ti 11.2093109973211 10.702486065955823 11.743739829265099
Ti 9.667487084861524 12.700730081048919 7.295853618395454
Ti 9.7461911726686 10.118265646879657 9.417179697211207
Ti 9.819291741446298 10.203613368406856 6.603694750158337
Ti 10.621135101680764 8.266327517766573 12.660126950391696
Ti 9.981877616896247 10.52428330787306 13.91415921239498
Ti 9.27191543325143 7.3418899433766525 10.601468272635879
Ti 7.53853614701765 10.071588134406017 7.778614970153941
Ti 9.354822565907359 7.9406735861219415 7.95233568133511
Ti 8.917537666813342 12.02659966174879 11.4752176060087
Ti 8.15373824785222 12.490989846279541 9.066787842582569
Ti 8.374535616075207 9.407014889540935 12.063524508968941
Ti 7.402368804076028 8.363327808906574 9.655399085821557
Ti 7.0599126195822555 10.737313504309123 10.299756519109724
