27
Energy = -175.75597655 eV
Ti 14.267901002202208 11.116685973891485 7.6238811970348195
Ti 13.823392942703224 11.963208255091317 10.238277474195494
Ti 14.199257179597051 9.29691382615734 9.5173454492622
Ti 12.657213870424089 13.110958874120929 7.969693295007707
Ti 11.895834576263344 11.191491838754267 6.343058167343251
Ti 12.897639669080068 8.868393823233767 7.206989380481663
Ti 11.390524691344508 13.573815910176439 10.186678913605855
Ti 12.052247244928342 10.666303148844387 8.857545905047424
Ti 12.76132348984178 9.785038161296095 11.705721496816611
Ti 12.330018928257225 12.337453347726955 12.331001180261994
Ti 11.917685986418713 8.041269298592928 9.523264007263965
Ti 10.053710766109301 12.355284969255674 7.958942130491506
Ti 10.517821774187995 11.153383489622104 10.694573444609581
Ti 10.194759811820688 9.450929830449489 7.5733472583532215
Ti 11.017585035597696 10.653916811009823 13.792945941678731
Ti 9.706993545250057 12.88559717510153 12.600199983350329
Ti 10.87799260335928 8.108112400131905 12.470944078734433
Ti 8.755700830469078 13.144567363701459 10.11243978625019
Ti 9.45992903028143 8.350799489132477 9.987042665608689
Ti 9.022936523602851 9.957400439825639 12.155452121569484
Ti 9.13017603957312 8.7983455864231 14.433890474908733
Ti 8.377311317827475 11.361503585889869 14.251671832051578
Ti 8.183825868208574 10.75065135401866 9.200643507358043
Ti 7.217496241564484 11.731389562818473 11.708144772589538
Ti 8.28533325467578 7.468305304159084 12.272282902021157
Ti 6.937169986636918 9.132772803583352 10.707341934516478
Ti 6.793763686435251 9.471053273652576 13.302226596247708
