28
Energy = -179.00257918 eV
Ti 11.176098121914551 14.328661106691753 15.403052293070262
Ti 12.936899800861493 12.825254943215352 11.437392095273788
Ti 12.682955432323519 10.28858628030971 10.365595999884606
Ti 14.204239449615129 10.509720045289054 12.842552096371689
Ti 11.392517032164342 12.291298345618669 9.101166894006262
Ti 17.60251878397906 15.557495117519398 18.566826578272284
Ti 13.844717245426214 12.183602586903737 8.828313324423792
Ti 10.41891758372208 11.488943638299222 11.16548063702429
Ti 15.118959709280485 15.052395538754531 12.581142950240208
Ti 15.12887957172328 14.009869581925084 10.266148562188214
Ti 15.185908126662595 11.243657189200913 10.615078983446669
Ti 14.73786321428218 12.331663552034982 16.776565301444613
Ti 11.823408206294342 10.623296214867318 13.100484404823877
Ti 10.876207073537133 11.591650803398096 15.249321191018959
Ti 12.279973172650966 12.502423138847133 17.011584731735052
Ti 16.304932673333653 14.574549168098711 17.615397373893433
Ti 13.584685432866925 14.668240768569389 16.629190150174903
Ti 15.929612801400433 12.6750375385308 12.54343771123316
Ti 11.301423618590322 15.276751665037223 13.041279897511883
Ti 10.263923137473503 12.981122004286043 13.215630712966432
Ti 10.654020908032901 14.224326216587345 10.810095626411382
Ti 13.267861288366191 10.41966647853206 15.571539254643797
Ti 13.284951608843595 12.901923040914276 14.37416230071887
Ti 15.681020779723552 14.15408142114393 14.940525763593486
Ti 13.064322620363606 15.685989483850255 11.262334907083135
Ti 13.436587865912994 15.76158303412386 14.342628492626293
Ti 12.740591864505632 14.467173305019061 9.113575691955885
Ti 15.674958970509557 11.39357153304842 14.750029232110215
