28
Energy = -180.30242625 eV
Ti 7.816607477566047 12.834337560536396 16.88523056003626
Ti 11.46829771464626 12.366154763775876 14.99966517514588
Ti 13.37590909656949 13.738871808348344 16.238856138045985
Ti 12.82704330573521 12.341538039104496 12.758889336409402
Ti 13.77377336594177 13.999139376842644 9.200945741000703
Ti 11.019447159019252 15.010640400556834 15.528938770973328
Ti 15.555737016737648 15.512841835687961 10.292725702639004
Ti 10.287900240838033 11.647072353244354 12.65224230920768
Ti 14.819970603486968 13.380104960839537 11.70470781470215
Ti 12.951633682138706 15.390348986545929 11.210187747623714
Ti 14.278467887027267 11.52726104485782 14.85549730353129
Ti 16.377321787516472 11.802864145652022 13.478632007303915
Ti 14.053768873107519 16.132534679894157 15.644085451067909
Ti 11.701053496648772 12.91645359545649 10.441576581654779
Ti 12.08550249125551 10.357314495509142 11.18869740096059
Ti 14.084919970148258 11.440558896312545 9.86561127099925
Ti 13.04326929516029 14.88352227381049 13.830951815556803
Ti 16.20346082297779 13.185627711337851 9.441406698399213
Ti 9.280950591625555 11.075338790462855 15.669908986137822
Ti 16.566089774931065 11.394852658853729 11.071020944270103
Ti 14.56670960318137 10.207161071392802 12.372964982190094
Ti 15.564594306332605 14.031401848926906 14.528017218282608
Ti 10.255409485578518 12.96916766573904 17.16300177148831
Ti 10.695464183239359 14.248176953917072 12.705292481802825
Ti 12.194564598433116 10.066627960263837 13.797285818627248
Ti 17.20439838120552 13.982292373396167 11.956663690692912
Ti 9.037475007741408 13.403643614076428 14.68681049405904
Ti 15.248324878987818 15.898515929908562 12.763862274558988
