29
Energy = -188.89404988 eV
Ti 15.625823269575152 9.006194432489043 12.51787011537717
Ti 10.19478421283419 13.616207715772177 12.896547155665909
Ti 14.930478426874862 10.789804999531544 11.495558456459056
Ti 13.555542626739355 10.263602649175585 14.091563807509312
Ti 11.949088302100357 12.16985209496562 16.881861436907165
Ti 10.135523277363188 13.3997093226687 15.474693743955816
Ti 12.932222685068426 15.774708336155136 10.320531122341185
Ti 11.332104682893608 11.560482672604461 14.25420349901031
Ti 15.679277676756069 14.52199131489789 15.69553571579856
Ti 16.415038659527923 13.019090204135157 10.961437052374146
Ti 15.282187791627287 15.994293114093255 13.85534047813369
Ti 15.25049471270052 15.330369301355413 11.510305194073998
Ti 14.575215294800403 11.813244749614679 16.183331297660395
Ti 12.269827392333893 11.762748137557159 11.973145738586496
Ti 13.873765878196046 13.181124191477622 10.409961821231962
Ti 10.809902625001875 15.971807796827449 11.82493876089735
Ti 12.846409155496536 13.736060664096726 15.004198931482982
Ti 11.499430330470647 14.863824844669734 16.96980008952706
Ti 17.182653897043203 14.234605040337227 13.259486077838776
Ti 17.362118104422247 11.505781832221269 12.724812097096638
Ti 10.954633470687096 15.828686912021514 14.484106127945012
Ti 13.832069588193322 14.005102939787474 17.44584020995021
Ti 17.066976945206374 12.416792235143763 15.177134480381595
Ti 11.255120242253843 13.764848104472101 10.45670534106653
Ti 15.959781314580418 10.287668956648726 14.554002556663246
Ti 13.060181406763391 16.94149347945789 12.908772866294637
Ti 12.746290842825273 14.403733074679135 12.530284387317588
Ti 13.418901594827181 16.22525524177135 15.688658589880198
Ti 14.99457501436515 12.771568597342066 13.307538825062549
