32
Energy = -209.74493844 eV
Ti 12.421621216223423 8.756423876741703 13.185423308019143
Ti 9.644434997675992 12.387878104676892 15.050423815993822
Ti 10.524611198160585 9.877035690078248 14.726626348730056
Ti 9.245886177059475 12.995864872392508 12.510933813558577
Ti 9.896784256380384 14.921354851764473 11.318437325947816
Ti 11.752050969317914 12.252338262607081 13.788709409269199
Ti 15.788711033771333 11.97276436850607 11.339383512676532
Ti 16.53965673224602 13.910143418235158 13.487203972722236
Ti 12.256820772630672 8.741912888577348 15.914735255079345
Ti 14.583858798836376 15.934995706504248 12.69091267691788
Ti 11.797742800046388 11.232019806234424 16.675250712796085
Ti 11.653698689677922 13.810963934231035 15.908957590449907
Ti 10.869169768249115 12.479946665879801 10.442130876370404
Ti 13.022976846759333 15.393806956161011 14.469154630922104
Ti 15.641266364227347 14.341596242592983 11.049403707164341
Ti 14.411293001470872 13.008540996866001 13.463538783326403
Ti 13.828223700712698 15.752241452277207 10.223731459975275
Ti 13.810710039623194 10.637751365888123 14.639005717811704
Ti 14.342292603930161 8.048811352083781 14.90200402607703
Ti 12.460039705821641 14.146280177734345 11.992290802932011
Ti 16.774789963643148 11.264625157152146 13.427164199698066
Ti 15.04308702757435 9.331920018241759 12.623759928478487
Ti 13.012678521494466 11.061386319766624 11.704593419504027
Ti 16.061643782066707 11.979264700076303 15.759093011669
Ti 13.931713308979376 12.874851616262106 16.375266813976687
Ti 16.287192986553542 9.497771334029508 15.092044245878801
Ti 10.397539557045292 15.014233091758753 13.888348679527239
Ti 14.404091456482206 10.05118204643217 16.9939104237464
Ti 10.109259105448633 10.675687455886656 12.4373859945255
Ti 11.616902157789946 14.917691619011666 9.6207646997021
Ti 13.592692459832055 12.996271882450692 9.852183418307925
Ti 11.92082552592612 16.577000548283596 11.990664263173416
