36
Energy = -238.39618294 eV
Ti 10.430358905453037 7.425060364769389 8.104248862393462
Ti 9.184279321167251 9.577851057011603 9.181239401731585
Ti 10.05320184214858 10.211399553659856 11.588980742284066
Ti 12.146567314085136 11.949048176106928 7.126046760954751
Ti 7.380753679196459 11.020317085297194 10.88198204989394
Ti 12.970027988483322 11.502175699901544 11.37941566422357
Ti 10.27233885483804 7.56565853114311 10.808061720739266
Ti 10.747342860161865 13.838171362005392 8.147386537944062
Ti 8.598529390713598 12.981439928731252 9.391276978287348
Ti 14.784573735560755 10.234135409096515 13.009055336212258
Ti 10.47407067043193 10.853521358578684 15.81808898603718
Ti 11.857939443568917 14.283696624441703 13.566294035562104
Ti 12.576672153151872 8.828051985750742 12.488239382199216
Ti 8.377483305773653 8.924398016202762 6.921294853908656
Ti 11.172145874805274 13.895584062446407 10.923909192488239
Ti 10.969614723540667 11.661267016095394 9.46948661023189
Ti 13.221671020296519 13.26240817821011 9.274238497429812
Ti 9.51349567578115 11.66397561486382 6.9756970006893
Ti 12.953105160960408 10.223351160436934 14.856636520682484
Ti 8.184227710498227 7.111854345419255 9.077409514225554
Ti 11.30680185933367 11.649881423893877 13.393049256939353
Ti 14.012142671255909 10.910505885215427 8.826097950333956
Ti 10.51941741293855 9.045109805662337 13.922863217079028
Ti 11.113804981739102 9.546287961704909 7.009412217676636
Ti 14.530344878632958 9.424761027680232 10.682755328537672
Ti 14.137824900661343 12.652550636187712 13.817010117656569
Ti 9.72911240224853 13.15213043562958 14.860081042249034
Ti 15.33974474084822 12.099365850549574 11.157064936158346
Ti 13.654776121478216 14.173214132007843 11.74377097195294
Ti 12.217537320384933 12.747244741995184 15.62625420124266
Ti 9.127577463255047 12.884323568361175 12.13145205596693
Ti 7.9756774787868245 8.548147399655464 11.438785785666488
Ti 8.672760014650807 10.915421430757355 13.736213669641835
Ti 6.598707330558181 9.067625553561628 9.138301551674685
Ti 12.081605773894696 9.09652907592869 9.530951707316769
Ti 7.261767013697221 11.221537536021145 8.144949336769088
