33
Energy = -215.65088947 eV
Ti 13.662427489972087 10.068066027708168 18.076735162235007
Ti 10.829785255424934 12.546087684985912 13.93602451596929
Ti 14.031184419552188 11.06331909698114 9.962509641262347
Ti 12.413614673101353 8.871165109630827 16.619796825634683
Ti 14.463856782395153 12.753556035552075 16.674845011367815
Ti 9.72629757150293 10.655053949076303 15.407915865740602
Ti 9.842201656107871 14.998075695159432 14.453210575255685
Ti 13.513622273703648 13.813381649035529 10.096906295047487
Ti 16.584547796087207 10.758453508050579 13.448393183898316
Ti 12.182332952560953 14.274988211608717 15.908916993299314
Ti 16.46583991128603 10.593234123494822 10.902975368090434
Ti 12.156022053956722 11.488308247608451 16.329875659148144
Ti 10.753108305963671 12.7341134609647 10.830925932286394
Ti 14.505295734433176 10.207879956797573 15.571650746393166
Ti 9.895402428040542 13.094906466148286 16.40962874133754
Ti 12.635394135442983 13.811375125816513 12.708574878050197
Ti 14.090113831191227 15.73104575853287 11.954683422812074
Ti 9.423745016424814 10.936650382661243 12.594701452650554
Ti 15.11010430310655 12.681842222915945 12.040499941079535
Ti 16.42923460353727 14.936950107489308 13.07830442744595
Ti 8.284129305915421 12.644350729260744 14.455051561568876
Ti 8.921456109973626 13.622313911292315 12.2623469473656
Ti 16.523644103088643 12.818069670503291 14.658667702486003
Ti 13.891540522560616 12.02538964385202 14.21649353019818
Ti 12.282377176961072 16.073936237048862 14.04856399604128
Ti 11.94850145129666 9.975429086748072 14.072297883696166
Ti 15.96307355838542 12.663853942416285 9.502420014183244
Ti 14.540551369810444 14.756282032071718 14.730455415343847
Ti 14.426078116942017 9.780501937676485 12.429168575782068
Ti 12.328002666759735 11.210215052949826 11.800920351610593
Ti 10.879033512892534 15.309104485618958 11.8513471256164
Ti 17.623937943355465 12.861081164639542 11.82180739167982
Ti 16.083213593526942 14.79910675140923 10.58364504847016
