32
Energy = -210.64388078 eV
Ti 8.628384141965437 9.333544928636657 12.931879577098265
Ti 10.544754224949193 7.58526314674387 11.796729951603421
Ti 7.9952584417508366 11.734879796017191 13.23489035359587
Ti 7.362474597904823 10.861644760520942 10.83804437271163
Ti 9.974361235518383 11.297024027804616 14.944475852110289
Ti 8.41318286911317 8.410612381067262 10.526110442000766
Ti 7.5703333647582 13.417947669338961 11.497766847094796
Ti 10.713609200509973 8.669104856690893 14.279927012438906
Ti 10.954527779738056 10.884787705427934 12.771258072031362
Ti 8.135250525404924 12.860270032188769 8.956907340563864
Ti 10.900138195166292 9.76958956741981 10.308803196804522
Ti 8.4919746022897 10.101145211899695 8.663303404449675
Ti 9.714240847882918 13.5972849532018 13.221480889782834
Ti 9.411449267701045 14.712158934616498 10.58339977005728
Ti 12.458189909432267 10.376627241694871 14.875095006112145
Ti 9.79496758798258 12.090487363730887 10.6097160762085
Ti 12.887253045631079 8.70395297789728 12.7598353310017
Ti 12.261328778102841 12.879045835183456 14.049611792962523
Ti 12.663305875240408 7.769161109293316 10.274386881912708
Ti 10.418446312382255 10.956990809579523 7.8237586784369535
Ti 11.74634765352869 14.2108562031721 11.67761441551908
Ti 10.415466729276542 8.025204947503049 8.84325911581112
Ti 12.809401497693317 11.723263553081116 10.845444096357571
Ti 10.919503437579188 13.894142270050093 8.846366595506586
Ti 12.427658681990518 12.21687957395234 8.076468493727923
Ti 14.254810119472877 11.03960406096889 13.145658350110796
Ti 12.904186181296103 9.56030657523561 8.385078579838066
Ti 14.494076609565951 9.606651294229273 10.67955871539836
Ti 14.114604626176545 13.628481486092852 12.373448483494013
Ti 13.847971371040886 13.862361971898183 9.737706339209241
Ti 14.667951147632019 11.512677646674897 8.778761117059421
Ti 15.47802717125644 12.082625997632311 11.034093661892113
