39
Energy = -256.26380473 eV
Ti 13.047745645472869 12.702445572063143 15.855229674663212
Ti 14.531604326843768 12.127684780301838 13.779771130567003
Ti 13.044943181607628 7.833174820361133 13.663095008371327
Ti 13.014748567556659 10.117361758071356 14.813640947574376
Ti 13.112586996163436 7.207103552980649 11.188763292402566
Ti 14.65953338672785 9.491408674732268 9.590729496865576
Ti 15.182296655553007 11.693470621774772 8.29828661761434
Ti 15.473855800207685 11.75899231843907 10.931356037759047
Ti 14.04401709086189 9.916605459192237 12.156807396072937
Ti 12.05528620562981 14.206513235379827 13.961852954697706
Ti 10.855895561322175 11.587109500885852 15.517273140329939
Ti 10.623038443905676 8.864895490363109 14.329269319061567
Ti 11.034438692811554 6.6990015573817345 12.841518858791012
Ti 10.653309378369833 6.928353993606971 10.436809368452582
Ti 13.805732394914912 13.684466506931514 11.851781853004724
Ti 12.040282427715336 11.697739422141877 12.930834915596835
Ti 12.14763624959877 8.728651549377426 9.108193282827816
Ti 11.470606955305286 9.208027298419877 11.76996811007208
Ti 14.585750210485378 13.775642065062685 9.473503939471103
Ti 9.317227812577876 10.872160596766408 13.056428043803194
Ti 9.400619718615884 9.015831951835242 9.54951866024679
Ti 10.656434906119344 13.664211917877827 11.872294464393367
Ti 13.357571243181576 10.304534138715958 7.447213919388986
Ti 9.861418792661247 11.565041754198807 10.500145369872756
Ti 10.774582643773007 14.23136050232044 16.039032701631562
Ti 12.129952779516183 14.380654717229191 9.855779525337649
Ti 12.819936516055893 11.5971940655525 9.889551248987496
Ti 8.983333788113864 8.238362175311716 12.102640367498132
Ti 9.206254219230253 13.05736618533217 14.389134666475982
Ti 8.120000444112643 10.998691759959586 8.377391298898825
Ti 12.928601104101709 12.959127803919468 7.562346214656102
Ti 9.56835313339049 15.33570594344154 13.547853535294594
Ti 10.862972918853929 10.841349007256929 7.852439902351773
Ti 7.515138945679496 10.53381621482789 10.96275747766418
Ti 8.021987336824623 13.25007457383346 12.063024126169614
Ti 10.320993152716374 13.212289815365283 8.52817553742518
Ti 7.204372823127551 12.863740662478154 9.684444569852538
Ti 8.12186526370503 13.602449737569074 7.566644879380178
Ti 8.951345702489155 14.761045070496557 10.165548437639668
