37
Energy = -243.44985065 eV
Ti 14.502130999695765 11.580106814337045 8.611414014490434
Ti 12.573513087368363 13.329352801427127 10.33952722261348
Ti 15.167116494452028 13.00057724780828 11.342866426680176
Ti 13.407852756503939 14.626523471913346 12.598258889436222
Ti 15.09697208791401 13.27724386341899 14.031236230281236
Ti 15.74877841316552 11.10914336569653 13.101090204296122
Ti 10.42653607449808 14.937969611344153 10.850910999512525
Ti 12.70870709586167 13.52376713995345 14.961461590834434
Ti 10.944412279477692 13.628847276793955 13.050836131524576
Ti 14.728650730721577 10.320418908936986 10.86269341878558
Ti 14.050004042805746 8.951664724154822 8.697347049602959
Ti 12.550227524918771 12.591103957044202 7.567944430838032
Ti 10.331167677465148 13.217361748650548 8.547267968453898
Ti 8.326354314463234 14.398412493172328 9.653444129786578
Ti 12.130560091570906 10.760864550210442 9.60791459154372
Ti 13.980769321127593 11.067527890718297 15.094114197365702
Ti 13.147546618218504 11.913573459482786 12.70188653993217
Ti 9.919874247038384 12.276805870747165 10.983736751638485
Ti 8.24056205361285 14.144809505198852 12.339182797458117
Ti 14.037904244223933 9.083954139074379 13.196799057662252
Ti 7.906027090520033 12.095018096857359 8.661766673653498
Ti 11.000108989805884 11.517899043791685 14.831106786365712
Ti 10.468714641761288 10.822814772583683 7.4265102151034625
Ti 12.862352616021154 10.112572399938605 6.993102798486013
Ti 12.877234926254987 8.145314948602593 10.831312193114103
Ti 9.586434706438462 13.852438458399675 15.084279847643424
Ti 11.164437567004663 10.079771639465442 12.274542874723403
Ti 6.188307244629305 13.609997143794907 10.315716562985793
Ti 8.72692958167138 11.65606174238796 13.53261738965845
Ti 9.263418235273752 9.977697502054971 9.672251759574682
Ti 12.083321469906798 9.256255945795965 14.89968196186061
Ti 11.365534420534326 8.450669921482675 8.58884349518484
Ti 7.260216681720433 11.847278746381088 11.32523867577252
Ti 11.841755142741796 7.539037599520768 13.184974528266645
Ti 9.650025683250046 8.808472805409654 13.95551589149106
Ti 10.208122457332978 7.812801426576868 11.267777234564495
Ti 8.394516568956615 9.554700767602766 11.88407958993073
