39
Energy = -256.62488448 eV
Ti 11.417918176481322 16.154758062166227 13.211688349857717
Ti 14.45505010857444 14.390196210254583 11.707788551133614
Ti 11.90169741297047 13.751114440337556 12.03793736995832
Ti 8.696585355306318 15.562641091820995 14.111863640420411
Ti 10.822528353223522 14.356040465057438 14.909431106321625
Ti 9.601729370397774 14.58627008840134 12.146081342481738
Ti 13.273192377851997 14.311966073105031 14.261896040869395
Ti 13.507957213255315 12.356981268199856 10.214088441250503
Ti 10.893123389047563 13.683899487293049 9.27197209894738
Ti 15.45394260291563 13.154770204484203 13.957221699130047
Ti 7.167668968432695 13.37698788210095 12.652488973072627
Ti 13.466806021729981 11.58856439934461 12.794163015358876
Ti 8.57285324540013 13.000356536744905 15.00626460287837
Ti 8.373367846546367 13.336538906618728 10.346811065738112
Ti 11.465054200091592 11.910563087901673 14.650526715912585
Ti 16.253213297156915 12.371272394020787 11.937085272505067
Ti 13.996138867162877 11.830852408519268 15.529244247919472
Ti 9.159209505226295 11.571877800689993 8.661373828025832
Ti 15.919208239284208 12.844163516336318 9.552296801554961
Ti 9.483572628447341 10.255759109260255 14.940690503103013
Ti 13.692195267841939 13.76837619850668 8.390012205675754
Ti 7.123445932221442 11.092237871891749 13.883630324943125
Ti 9.391780568517266 11.828528139550878 12.820215577936166
Ti 15.579809396877852 10.409727270029302 13.673346067125596
Ti 15.538380301855755 10.308331627547295 10.70426754827977
Ti 12.66295380930292 10.003658680685614 10.053947709872974
Ti 14.537481547541283 10.90284095968173 8.186845711595447
Ti 10.702793143135898 11.63573614661547 10.683592794387911
Ti 11.955531459415003 11.602274570273382 7.796530678750149
Ti 13.01956737374736 9.68436244039276 14.649483929970396
Ti 7.396595452302199 11.024893403292285 11.086655370568769
Ti 8.486748877897641 9.209024464734481 12.881690019374915
Ti 13.743564388814663 8.800913272046726 12.168219200986327
Ti 11.229055773975777 9.64715854744619 12.74793633099677
Ti 14.37791117189813 8.221426640056432 9.500101479910136
Ti 10.451319631169758 9.327958688276585 8.308530842646359
Ti 12.711030301098997 8.855609455375618 7.710567783402893
Ti 9.505962578638814 9.321957541241106 10.572734640588783
Ti 11.745732972732275 7.692087778185731 10.013455245036115
