31
Energy = -204.02894379 eV
Ti 11.843559047855791 8.25614597627866 13.216849461312043
Ti 10.039551139764395 9.84440866188093 14.328575046925152
Ti 12.551494692974133 7.33200792735686 10.958239199807428
Ti 9.176466662687815 7.638873058346943 13.596204296238199
Ti 11.906037121701777 11.026234753476546 13.036878568581143
Ti 10.202906397642426 6.682030389718079 11.358598939253518
Ti 11.621365900076954 6.938768373696292 8.544923924638569
Ti 13.561152797654245 9.673886911920585 11.354203661479449
Ti 10.071965930271544 9.411534722795198 11.642145020186302
Ti 13.908134467105306 8.190472022407286 9.203387896034785
Ti 9.081494605781689 11.99669168279543 13.268917170212516
Ti 7.694287940810036 9.785523031107092 12.97979461519211
Ti 7.869820764163184 7.7281929988380575 11.442097358198604
Ti 11.593123060043029 9.68148132636627 9.25529188652936
Ti 12.617252813099249 12.116908074380847 10.764809767405884
Ti 9.185232084742477 8.006760594243842 9.180957844202478
Ti 12.927738130106988 8.658886603167703 6.970300383120243
Ti 11.217258912983596 13.488711425593085 12.484129169765778
Ti 13.860847323957037 10.732225418016107 8.496517312162604
Ti 10.423571202486634 8.59438311490292 6.964818306272362
Ti 7.5851754453192894 10.08171381732557 10.299176514988764
Ti 9.703759483121194 12.143549380197339 10.439039043163707
Ti 8.938889444306902 14.25162683422495 12.046519702972095
Ti 11.92519690922837 12.53369322598178 8.597160304105607
Ti 11.631914526581658 10.878578642150362 6.753222596093376
Ti 7.120437548717935 12.460377537218037 11.404992651453636
Ti 9.181607325660785 10.591737705399831 8.004632429660047
Ti 10.72766955389769 14.52876426185282 10.057980010594674
Ti 7.344480752528031 12.228416558782822 8.8171180058604
Ti 9.558695241305776 13.253968216103146 7.909474454807859
Ti 8.059270191816765 14.393804171866726 9.753401877174001
