33
Energy = -216.49193652 eV
Ti 10.131283859820059 11.308002072953457 6.5700881490813705
Ti 12.674474537586015 10.927828534717976 6.993970168525742
Ti 9.738331554538025 8.205964494889404 14.120196926611568
Ti 13.584097880591395 10.345785999734495 13.34091605444423
Ti 8.857446941009654 11.031536443004482 10.885143599371089
Ti 8.970435110859444 12.725284255869862 8.504041639155743
Ti 9.915433559088179 15.187592262795297 9.201200357884202
Ti 11.187361502372259 10.228849016877207 14.908720365993897
Ti 10.247879851012586 12.631519803030654 15.166897510208296
Ti 10.870397243009272 8.86141812583969 7.310897483997957
Ti 10.126245889117557 15.365335281266123 11.790628316583767
Ti 11.544969097638345 13.19917638548252 7.690336444432931
Ti 10.855303824513374 10.78976651737533 9.029095412686818
Ti 13.736386390065357 12.206996916336252 9.025587901661996
Ti 8.258846339852491 8.541221194310511 11.978684218327032
Ti 11.280393393501948 13.401969162448422 10.321043975005937
Ti 10.699611371116069 9.421321961923818 12.033677709603007
Ti 8.44993578935549 13.773089342242177 10.804780141774305
Ti 12.323597390010493 8.106090469314948 13.781854464413735
Ti 8.89011157170977 13.765863406578115 13.383796912677399
Ti 13.73858722839155 9.449711246504688 8.826088292796998
Ti 9.524065358351702 8.299053731965468 9.67370596929509
Ti 14.949615764943108 10.632173228267144 10.98381007515023
Ti 8.475481535047933 10.048320341798888 8.1974155023461
Ti 12.532862393401526 10.769715552567762 10.861320140120396
Ti 8.758548379000455 10.69935957400345 13.650146923817916
Ti 13.502828782249157 12.929722783385538 12.030312033101632
Ti 10.66284221846346 6.944898518629879 11.93027443215066
Ti 11.530210648521546 14.454429956160379 13.75456218470719
Ti 10.87222348076763 12.175841055667098 12.654521132442735
Ti 13.478824486521207 8.283012757364787 11.422413378122222
Ti 11.843501709625297 7.824710344658002 9.591619110279924
Ti 12.77777215842272 12.404889075298776 14.628889098379295
