30
Energy = -196.37639111 eV
Ti 11.413721500771462 11.716853729248673 7.890563326393368
Ti 12.266550911277688 14.0542557667145 8.480289995036415
Ti 8.985203565553649 10.84533158211122 8.838977056072144
Ti 13.940779542632093 12.252354537277137 8.72063143891129
Ti 11.001515000544991 9.228689205220414 7.669553770315609
Ti 13.289376978876403 9.825631441942482 8.786789401077325
Ti 9.19479856942791 8.188821181891782 8.893398370081682
Ti 11.426585489307595 15.157087768423164 10.391138637437292
Ti 7.935699935648431 9.445905112387596 10.850754944024896
Ti 11.923803292817915 12.382804353080102 10.634893544332499
Ti 9.689171349284065 13.401710595521742 9.30924965558344
Ti 11.724961059679856 7.321744891418654 9.465416366697319
Ti 7.651723395780134 12.237708828702283 11.014397060843228
Ti 13.702088488556454 8.528858134090969 10.960014500531868
Ti 13.91547046135816 13.989622847784924 10.700008074626133
Ti 14.343173855233227 11.042818633249126 11.10802127017673
Ti 9.603352564120089 7.26388886264349 11.126413925770109
Ti 11.00503029394518 9.56861286098301 10.386483957310245
Ti 13.951165799023455 9.515985080775659 13.436303962699386
Ti 9.479219042113698 14.225011374572729 11.899922964844228
Ti 7.580698229991774 10.48015985686875 13.197232928800023
Ti 9.776807903849768 11.437771167560207 12.045800178343434
Ti 11.892806065492465 7.5216147407647 12.269180282529748
Ti 13.541838895178289 12.432123990143284 13.100153902685298
Ti 8.33222800676581 12.751161819196627 13.755377751437477
Ti 12.069897984328927 10.25950981379818 12.686656516409654
Ti 12.112112981314974 14.489730046183807 12.591713102406885
Ti 9.904190128704975 10.698071861433677 14.587535087002845
Ti 9.3985668058 8.670323465803738 13.086435878311857
Ti 10.879573267616998 12.997947815203537 14.048803514304465
