33
Energy = -213.74057845 eV
Ti 9.314385324235133 9.750559438710383 7.275713993871186
Ti 6.706031394340879 10.742281872815388 7.288087618250515
Ti 8.616450562829206 12.209933379940205 7.063228193650472
Ti 11.978879646416472 9.16522786349957 7.786462743786861
Ti 11.260801795737137 11.723402299555763 7.209922460910978
Ti 14.429917834604106 8.919226346863413 8.508171397758474
Ti 13.828718910652498 11.142992539038103 7.735981839625273
Ti 10.068718156989473 8.425065488288078 9.66336178473963
Ti 7.62616104660116 9.680343929967066 9.398455267423191
Ti 12.745549670730313 7.824411213358251 10.104275079099281
Ti 7.4819112031172414 12.325707895119093 9.41575421897981
Ti 10.028437773349767 11.166069269667382 9.47353174762756
Ti 9.663090798692423 13.779130456397153 8.914759864311463
Ti 12.762812067260455 10.668179882270513 10.069395099136354
Ti 12.333326058509616 13.191661633297786 9.157732658834265
Ti 8.4504091243071 8.239676998247605 11.894485011090842
Ti 14.862940279137796 9.336790418030752 10.859792491861219
Ti 13.077728854007294 8.547074880892255 12.703939535808649
Ti 11.14816042871213 12.417318684381625 11.614552130248583
Ti 11.086890434674878 14.981044857786195 10.609858049189388
Ti 10.873091274209576 7.0226685834714 11.988452584058686
Ti 10.84744631353777 9.734414512574439 11.949960758652026
Ti 9.019501433413481 9.638357185561656 14.070683779777255
Ti 8.80589572143676 13.798378943364956 11.540802497377571
Ti 8.376108728874406 11.002090982393293 11.713446170557482
Ti 8.915676769734166 6.877079020623784 13.979046320655144
Ti 12.23674993559648 12.973763809408213 14.081893150022166
Ti 13.183056937703924 13.908058585209892 11.801971205584884
Ti 13.484692512813794 11.178717098859108 12.638293801105894
Ti 11.485540697602609 10.594048242142764 14.425247086750417
Ti 11.028681767447459 7.99067828349709 14.359804779903438
Ti 10.852738106854108 14.708998929719545 13.03660007842021
Ti 9.560304598623178 12.481192688065251 13.821831668499218
