33
Energy = -217.56458748 eV
Ti 13.862606690570471 11.914340931512356 9.83637265945433
Ti 12.834978794260733 10.322013146307071 7.795266520637402
Ti 14.704790511260663 13.330264455268725 11.91398848857024
Ti 12.015899608273624 13.003568710085391 8.222116737384681
Ti 12.12828790110234 9.878096597864332 10.696345138649455
Ti 10.485996665860492 9.135425409787114 7.1112896670377665
Ti 10.6725238889169 11.485639245273923 6.556635094057862
Ti 12.876795857031961 14.646216994870015 10.57222174207452
Ti 14.290296011313652 10.764062271474666 12.186908955609498
Ti 13.134997867713075 14.757873222494084 13.278746531994178
Ti 9.26036352769201 12.998618950398079 7.936049735447207
Ti 10.503062317708515 11.028395962900998 9.217979604395858
Ti 13.693320676069275 12.438362318867297 14.187696068026082
Ti 13.996719761889905 8.758396295945998 10.203804587164909
Ti 10.280953969732336 13.778752549071001 10.147928652485461
Ti 12.090858025369645 12.497477992221691 11.931509068451517
Ti 10.882462348121896 14.93612341217182 12.36417630917216
Ti 9.689262213693135 10.065594279430394 11.819543681915066
Ti 11.833566098048554 10.59912482748697 14.024243506083389
Ti 8.043143559965198 12.012361574140112 10.136819540582131
Ti 13.006000081854646 8.566001113673662 12.839830242953816
Ti 8.37666642402424 10.495739442289274 7.790991306076108
Ti 9.389076353597034 8.322780618571754 9.303560592614437
Ti 11.955827670325744 7.963793876926755 8.670842002819562
Ti 10.422269125020755 8.250828931051338 13.594362735863195
Ti 11.19876787529932 13.264691811781773 14.40145431383524
Ti 11.460703281297397 7.319671858357078 11.1257043906297
Ti 9.286723984568033 12.830968134503419 12.558930462744966
Ti 9.25187632452867 10.735699340876671 14.357545289162363
Ti 7.309309579331622 11.183179925323534 12.578789921085447
Ti 7.3470446766635495 9.401649873401428 10.650482765187194
Ti 7.775784993315413 8.829977717949417 13.288641035937214
Ti 8.854146944774168 7.401210610072772 11.606638172209006
