33
Energy = -217.51106466 eV
Ti 13.856061758531869 11.58002584263964 13.829139432546436
Ti 14.056632857782054 12.528718450923794 11.350961890352085
Ti 11.813165227573176 12.854214334477609 13.158291562511154
Ti 12.01593531555073 14.128981316825298 10.895336089720264
Ti 14.782101653589999 9.80405447273065 11.91783439674415
Ti 13.763876776090273 9.153673529458699 14.41305431863163
Ti 12.970384021654759 12.883427546666065 8.690098785351516
Ti 11.491495345516979 10.616520964253658 14.858161710780866
Ti 14.364414525726792 10.723770101953646 9.488911643160257
Ti 11.832816305214275 11.449296614250331 10.28244200615867
Ti 9.563806904009486 13.535293054880649 11.750860810910458
Ti 12.226718128323578 9.876380161360338 12.411259401582324
Ti 9.450728751034905 12.053906885413927 14.00991042206292
Ti 13.402747768599943 7.501248218979885 12.481032128827994
Ti 10.19168077009023 13.68858061432285 9.15275509895172
Ti 11.478510804876723 7.985437811034248 14.200288900079169
Ti 7.55516688469307 12.915787627088896 10.019509688809368
Ti 13.110376110657342 8.445755218862832 10.112007568994764
Ti 9.853308828234436 10.875213198439415 11.661806080248374
Ti 8.42235698027393 13.081071857875967 7.430352255251811
Ti 12.456410081312573 10.154801762718652 7.937212137717448
Ti 10.804057203293807 11.920777519101378 7.013481133812806
Ti 9.267653082897658 9.367364760811984 13.77706511367252
Ti 9.143808287317194 11.000518246872335 8.976868803407001
Ti 10.495240381188431 8.846165233633135 9.590973662812564
Ti 10.78584565354235 7.59141505351744 11.74803068677767
Ti 7.555495363731603 11.206603909848827 12.43397830353541
Ti 6.719661977941506 10.296473524269647 10.236413547378223
Ti 6.640305406286728 11.301151352623119 8.035006252907415
Ti 8.288279905811182 8.69881847262313 11.277482506850316
Ti 10.164644257552622 9.174405527224357 7.045028615636235
Ti 8.451511432597167 10.73083631947935 6.355373727831625
Ti 7.820560027479846 8.825069273815464 8.254830094962038
