35
Energy = -228.41187549 eV
Ti 12.16776487939165 15.994300244541416 17.921433748134728
Ti 12.756529802606083 10.178315207789193 14.910640304188618
Ti 14.572727945352776 10.747827631752143 13.243392158805166
Ti 11.665578991606951 11.104724995472447 12.631105011844824
Ti 11.353185623796874 11.97452318785835 10.095639038072221
Ti 12.457759954715039 15.776814899838097 12.619531413445559
Ti 13.246174257451905 13.387073003635054 11.438268448500953
Ti 12.370742211867208 13.878547554552235 8.74055941414857
Ti 11.040861972565416 14.106076601198613 15.961173413507677
Ti 9.748323762255144 15.308621104729758 17.91967781504436
Ti 14.538559496023696 17.425198517912598 13.884175606399738
Ti 16.34681887810076 13.997837546566327 16.169222225587028
Ti 14.985097018812395 14.799346866062548 14.001661804075786
Ti 16.948496809950687 14.18168215768107 11.746382980370978
Ti 16.51870429653619 12.371820430819376 13.81382380711305
Ti 12.554082912991046 15.969786611929377 15.1969340040182
Ti 10.602236530299605 11.603523057279746 15.00844954907704
Ti 14.761958234160865 16.341767766270976 16.398566505083334
Ti 10.831176687653224 13.564724371146562 12.97122387847307
Ti 14.888963649642895 11.597935054904926 15.788149006847037
Ti 10.868655710169264 14.628963266150478 10.686852936586606
Ti 15.667748068753577 12.08901735726168 11.108233370119718
Ti 16.875792545774598 16.582223401573508 12.752421248537658
Ti 11.610015370536516 13.734630819561037 18.647089499808068
Ti 12.961311295998913 12.879480625164526 14.404669276709589
Ti 9.613407293876408 12.69099039742239 17.429828287674205
Ti 16.771786736852903 16.546828827035107 15.227486340817263
Ti 12.254839214089802 11.770948605491702 16.975496508012842
Ti 13.938964939368008 11.964141209145087 9.106559833577872
Ti 12.908588909360093 15.96583669587981 9.935846103281953
Ti 14.85772162760746 15.805867307499007 11.434352399881229
Ti 15.014363453350093 14.226396558328224 9.37117347750996
Ti 13.425742545988932 10.530345484437083 10.994864258350704
Ti 13.735375554631943 13.991311590773192 16.905671065946194
Ti 17.82095483431253 14.556919645267168 14.097766324898336
