35
Energy = -232.00484114 eV
Ti 7.650985723175124 12.122137013130217 11.454988126661187
Ti 11.996450848862306 14.397845755512384 11.85652328974441
Ti 10.891823329524922 13.562262460602637 13.978994315952564
Ti 13.540166951214092 10.390748340591957 8.079461728877114
Ti 8.891268802304781 6.886774783155829 9.487371514679195
Ti 6.36739235141024 9.778303452852883 11.273108277310019
Ti 7.490091601280386 7.676073598789174 11.440049045121706
Ti 10.516772020386679 11.418433029452132 9.01151612299339
Ti 8.75862809074043 9.671313373034176 13.006398366842076
Ti 12.912701847412162 12.403048116051728 10.23716694746523
Ti 9.24240179170659 14.374423741872931 12.007144060778954
Ti 10.469255913890773 12.273100028192227 11.615986275214038
Ti 11.566805827385098 9.117648456445192 9.550710190315671
Ti 8.809573287676413 9.680862911119505 10.25701339911036
Ti 8.543002336304209 10.634468780103704 7.3034225126079395
Ti 13.862421231253638 8.007346060642698 9.231951710152632
Ti 11.50776623018536 6.626734283571764 9.140913147872173
Ti 8.525597334427415 13.193776778340517 9.341219879289829
Ti 11.046991725485968 8.269668358326602 13.997810422555377
Ti 12.736738652876523 7.7722127159892604 11.743099292041876
Ti 10.1626489075198 7.364101067528008 11.660678684555405
Ti 6.994468040354995 8.548182549747937 8.845954486060476
Ti 13.002721041031526 12.21383026647422 13.08428609271524
Ti 12.40417029847601 12.673978916209483 7.5530322368883835
Ti 11.043840876910739 10.957920150308368 14.538116501501058
Ti 12.347334116357287 8.16336647334257 7.176514642054376
Ti 11.28092514913459 9.965449757859126 12.078503709826526
Ti 9.693567464635386 8.332873214462609 7.540793749535601
Ti 8.756300334230838 12.264005567197461 13.734245194954195
Ti 13.806158221119613 10.0872597743731 10.966301080541943
Ti 11.255963077806111 10.462259036903548 6.568641032213803
Ti 9.928342222576221 12.869064863690879 6.978278609231292
Ti 6.800203156667862 11.170257407880724 9.15636712365508
Ti 13.248050160401762 9.635100329953742 13.6727897786347
Ti 10.9215613020276 14.008258853044746 9.403738718799623
