39
Energy = -257.38259664 eV
Ti 15.638533548556605 13.56613851165826 12.780360981313015
Ti 13.907745282355178 13.080357630324206 14.72767277684183
Ti 15.151557947573878 11.021151934003392 13.69361054716284
Ti 13.414431077249619 14.897104350389379 12.914967365737288
Ti 16.035849975964837 9.538773098696375 11.922903326801197
Ti 10.178203314479733 15.835918784818846 13.708139278040502
Ti 11.473236332313675 13.46652998140801 13.847594978523764
Ti 15.858612986127696 11.837322247233471 10.884182641815796
Ti 12.54339806219697 10.785669001940068 14.376113438911167
Ti 13.789787553849324 8.678295617060298 13.315225542439759
Ti 14.446896957829336 14.150428565760926 10.557760678674898
Ti 13.317356179035716 12.2394499791705 12.09706984257072
Ti 11.5127412344444 15.671511718440483 11.298722996408408
Ti 14.939933528636866 7.562974195353497 11.23418688968547
Ti 11.249888503607387 12.27854969824706 16.078416697558463
Ti 15.567639489321367 9.475462016487771 9.293816897672826
Ti 13.365750086647276 9.740614814185397 10.752364749186595
Ti 8.976905981873555 13.73457408877163 14.825037649557853
Ti 8.998862323650252 16.261639209641253 11.404896193638736
Ti 9.747902617553953 11.330229318362198 13.886158747184343
Ti 13.687273528183228 7.494931891097602 9.126717521197317
Ti 9.586344911186728 13.67387161538481 11.996352501726347
Ti 7.612580778543108 15.202019820378045 13.183585013342748
Ti 13.388093718899913 9.660805421611261 7.945244107744694
Ti 10.934240394660273 8.78395055422781 13.410684581576128
Ti 14.06322489520983 11.937591630356765 9.066834110819155
Ti 10.733143950995498 10.673540604914123 11.383043389196757
Ti 11.853512393998239 13.330980457576654 10.138912964777385
Ti 9.841477188229765 14.838824446702366 9.47348044203159
Ti 12.345105143317722 7.310169186634756 11.527107136388562
Ti 7.307161076431316 12.652876557716162 13.205786324602384
Ti 11.296499840189535 8.535202874703025 9.003864944097032
Ti 11.458618124006632 11.178919200242682 8.679181941184325
Ti 8.548330134816084 9.456026114869868 12.384930375616067
Ti 9.03909655210765 12.47832351467776 9.237562162285089
Ti 7.408725671073155 14.123025511510342 10.702760813736829
Ti 9.938582470481787 7.944695196492671 11.089029691753714
Ti 8.984483340297265 9.885521963425015 9.57942981856354
Ti 7.646561002023191 11.474316773443805 11.054578037552957
