30
Energy = -196.83972387 eV
Ti 10.000645821585277 9.725968771711731 8.151824072408612
Ti 10.300415826680691 12.162048977870588 7.514315764679887
Ti 12.652904382640243 10.871226704773388 7.8422802144593975
Ti 12.341501772027511 13.542355231201418 7.935168387601559
Ti 14.352058376164292 9.817205178189448 9.494754288663945
Ti 12.29110857807267 8.037392725178943 8.967192275352627
Ti 9.968457981808635 14.357972376717946 9.081757754879023
Ti 9.64016081116368 7.736693689770347 9.805579036937775
Ti 8.37601800861401 11.819971028111214 9.230803896914557
Ti 7.679900926099759 9.286124382760377 9.531036592183094
Ti 13.933204515137973 12.478516834824235 9.840051227138028
Ti 11.169373569177194 12.41116503674038 10.056035085074878
Ti 11.878001395668985 9.861310495408718 10.326204066553622
Ti 12.45609080975952 14.81270330351535 10.06256828595506
Ti 8.034502057674516 8.379695660252318 12.05440284192727
Ti 11.081327370927383 7.590026134070772 11.760376061916517
Ti 13.087251980874013 13.588984823525028 12.357873527987618
Ti 13.716019261807038 8.211264026909296 11.287685946741977
Ti 10.692481026676127 14.609800845555483 11.765308729436814
Ti 11.271949143125129 11.541223544017306 12.534090941585342
Ti 7.0256346206590585 10.903315207643448 11.444211163573682
Ti 9.49769752645284 10.14977240120743 11.272824934774826
Ti 14.101092353201597 10.870245753709415 11.984346569920056
Ti 8.877996434725755 12.889143748494748 11.741225970353975
Ti 12.581816636908146 9.21499064011483 13.486008911456507
Ti 10.024576133540892 8.861552501097677 13.822339964035006
Ti 13.130193376399324 11.781077875366217 14.322140073101522
Ti 10.801017079207035 13.277809703731975 14.14150420104654
Ti 8.677548760178604 11.088036050535232 13.715738958680191
Ti 10.99348706446344 10.756839948416907 15.104783856081799
