37
Energy = -243.58786978 eV
Ti 16.222217445700657 9.162202999337607 12.386890979439825
Ti 17.29982648562632 11.236466669745695 13.257696160415138
Ti 13.633390845499504 9.53702825764857 11.56788829532903
Ti 15.3693126525785 11.496561656094043 11.601895704078338
Ti 12.172815496477215 9.014848020082496 9.413729702870638
Ti 14.66539017867419 10.473895932632429 9.173507824739792
Ti 12.631245257393505 10.897937106407076 7.613791364999765
Ti 12.94631000171591 8.53301034747913 13.98882562837833
Ti 14.83695758971826 10.573302275407025 14.111277476824931
Ti 15.677277648705807 13.29263447898148 13.613946945249799
Ti 12.143625698370872 10.964925060355373 13.338662007476104
Ti 13.415016558755008 13.01859814229455 12.683273656201798
Ti 14.696309817935562 13.853687061550971 10.602294067573835
Ti 11.079644924005722 8.613912950020975 12.059297671597559
Ti 12.697083937340196 11.792204768037964 10.214021629910626
Ti 13.729826635626392 13.095085665847833 8.227462870882132
Ti 10.303513099137128 10.405002836955475 8.242812815449682
Ti 12.666688897677929 10.178762499420483 15.84458235300122
Ti 13.765563977550997 12.467829094742289 15.507779235843108
Ti 11.043574829404015 12.904247131293896 8.187677930112939
Ti 10.345935484782501 9.650217879866366 14.486475113271139
Ti 10.371455939705296 11.247525827104175 11.105006257011874
Ti 9.498946338446734 8.879530918897457 10.014953369211078
Ti 12.180048199607631 14.503997570740935 9.996484218069437
Ti 10.877411971724875 13.763763157772853 12.633821980435966
Ti 11.068608309835199 12.290561008064673 15.48712668743473
Ti 8.233730970083501 11.160631952689032 9.636687495296504
Ti 8.504762461806092 9.856873086386575 12.183780734071544
Ti 10.593226783596954 16.257098230796657 13.648542193031682
Ti 12.813682516465317 15.67238738672126 12.2911906376322
Ti 12.454983016088772 14.634058362024753 14.761648724356673
Ti 9.347222022096577 13.79802754194742 10.154796774655232
Ti 8.942782038632746 12.029914050417085 13.975622446125099
Ti 7.836025256459071 12.380174349403365 11.731615334774629
Ti 10.33472906656436 15.996367869894957 11.192678073316648
Ti 9.744113399360755 14.421121165757452 15.072715499669647
Ti 8.507253190689116 14.735066890255547 12.75199289316448
