33
Energy = -217.89856312 eV
Ti 12.990824318207697 8.003882669875887 10.097176372239176
Ti 11.331536446169745 8.223937667405664 7.926960397137272
Ti 13.850440115595783 9.07470581053702 8.039673825921922
Ti 10.773722148110544 8.304546244667515 10.929081078379289
Ti 13.215512488992598 8.897403437808691 12.551975539760265
Ti 8.462643799454263 8.3909005175597 11.77112978499742
Ti 8.765866729581802 8.325952599559747 8.848169743473033
Ti 14.806691099790067 9.885999649992264 10.401530188110256
Ti 10.70496605639256 8.72485083528195 13.758556376297939
Ti 12.301979943047808 10.449271540526231 6.62639214308613
Ti 11.6836698057892 10.421485457560927 9.131031900343405
Ti 14.001016071194181 11.706289554155255 8.343117778458204
Ti 9.72592349000073 10.439822697847374 7.178996655079821
Ti 8.179474965564319 9.561832389520461 14.146105338260902
Ti 7.345437092989632 10.454384292972843 7.929935655267351
Ti 6.601443601901894 9.255342893338943 10.050821541072196
Ti 12.5112597253097 11.100389378964653 11.351560873225731
Ti 6.931149224197659 10.721056221282202 12.190375241026551
Ti 14.626033459277632 11.108318422537774 12.827801318961399
Ti 9.90917162730941 10.837428056289454 12.466628656392682
Ti 11.369423921771034 12.625315773059203 7.768479494020901
Ti 14.816763785618427 12.518957558687733 10.75609818564884
Ti 8.984569086681173 10.64988022569381 10.01650627416961
Ti 12.78099077108873 13.535918314317371 9.781173941542763
Ti 10.0533194228524 10.989853388870696 15.12080959296828
Ti 8.681366233503438 12.748800366879838 8.51293978771047
Ti 12.334921766046314 11.052639990853612 14.115498813750659
Ti 6.55374844345032 11.87014761522427 9.897310082848191
Ti 10.592176364665578 13.174068889162204 10.61846903644538
Ti 12.984884077871678 13.29955518369026 12.511981456453968
Ti 8.07537086576024 12.178700825255575 14.029888039596804
Ti 10.479676441867257 13.14821724880038 13.53193063547281
Ti 8.31644300322492 13.06256067509844 11.514310645158343
