34
Energy = -219.7781514 eV
Ti 13.335668592312517 15.442275634383941 11.795826929804228
Ti 12.216292351879204 15.558624993381741 14.193698111277808
Ti 14.356209752972052 13.796108438006787 10.754839288441168
Ti 10.741089310875202 15.65119033093073 11.865548969132135
Ti 12.145406487338883 15.070348793104124 9.535068050666109
Ti 12.485505668619062 13.558270099277097 15.76808319193073
Ti 12.943938642022648 13.126307086738722 13.32879761936435
Ti 15.563639607392165 11.110911613222289 9.41660362531591
Ti 10.350908632371468 13.831922837465761 14.124127198972625
Ti 14.628061118669741 11.279507322135805 12.049434169280037
Ti 9.578214082021326 14.600725401694026 9.655092929903875
Ti 13.685126539089511 10.856534946561197 14.690762112723746
Ti 10.863247447693949 12.664604506807308 8.357158019610951
Ti 8.691857340762981 13.876088961832101 11.913732923665613
Ti 13.303672341007834 11.809935171182149 9.539402081818395
Ti 11.308069520368115 13.143594806767757 11.072033611359567
Ti 11.149112419665489 11.352521186064326 15.048957603257437
Ti 13.577704399124814 9.321489477430653 8.19883151552004
Ti 8.838173190255576 11.964756937373615 10.071680328165794
Ti 13.968439238938627 9.193100517214216 10.601033633481524
Ti 12.090976110451104 10.521714966240848 12.599289454678772
Ti 7.225879890014152 10.668872111778857 11.894888267082516
Ti 9.544390292630743 11.618725919782975 12.74956365079251
Ti 11.436412241301806 10.404139174758514 9.889793591077243
Ti 7.036741566919193 9.861468271526821 9.821685118733233
Ti 11.800271434221413 10.288330774992957 7.232552883891466
Ti 9.380778770952121 10.206402462876806 8.196322193217624
Ti 11.0949246018967 8.205404846112069 8.886916616432984
Ti 11.915647557413962 8.682884358649993 14.545366428833455
Ti 14.07471163821608 8.773136042493396 13.166143321059272
Ti 9.382568349050969 9.310276909523136 11.000733857578476
Ti 11.882307427816553 7.916268678334515 11.809018531482197
Ti 9.610209706276788 9.349922678221434 13.666165257941994
Ti 9.919562018190765 7.116995314167599 12.694005273365502
