35
Energy = -228.93204642 eV
Ti 14.875775200277944 10.810303453861671 10.656720199447875
Ti 13.79416799025038 8.47493797812586 10.702877110906142
Ti 14.0388962638718 9.99475820955679 13.001318035551162
Ti 12.739036876337437 7.648341124062789 12.994024661830679
Ti 13.967068133417218 10.087387689914284 8.290911347778843
Ti 13.92083752248227 12.824999108417858 9.447799232022803
Ti 12.119319711115267 8.026718009109354 8.676394466284561
Ti 12.428141184533713 11.775313944246093 14.423366158014094
Ti 13.823493675953529 12.635772310674465 12.212843104876368
Ti 12.357177256012548 9.138146147237414 14.895886946492663
Ti 12.21488291436633 10.590959221674968 9.864883932978865
Ti 11.152816163274228 7.510887514473629 11.128734356001711
Ti 12.448267082971858 14.781488193598577 11.01308536477051
Ti 11.318625919053593 10.050848662071768 12.54664541055093
Ti 12.486867000555538 12.04227230914752 7.400319125346944
Ti 10.973531673745592 9.856909729273118 7.393841714851194
Ti 10.154072194473219 8.04153361940365 13.796870700850036
Ti 9.42468043108561 8.213519140081303 9.173310237323294
Ti 10.242085637876698 10.360060278118151 15.069779182692027
Ti 9.811826297642016 7.656456111044237 6.751764055881029
Ti 8.689998876863083 8.07951024280913 11.634666632960165
Ti 11.955543346104589 14.088565826931688 13.414493989689168
Ti 11.09266323135844 12.602704887525938 11.345088480289796
Ti 11.648524404267041 13.865514705385335 8.777829244827219
Ti 9.871778639343592 12.575750941316985 13.977794129091667
Ti 9.530072711107135 10.650016641738592 10.221666144323656
Ti 8.459491337146114 10.102513330752467 13.109107994073366
Ti 9.851905370924603 12.220785011481382 7.843689196330754
Ti 8.270603168577546 10.040883314050301 7.916838704082024
Ti 7.137538372438284 9.961655666973495 10.580929675359172
Ti 9.738498379715383 14.689282215630538 12.190094626181962
Ti 9.179023097144857 14.034476332556519 9.744614712911732
Ti 8.209659200092638 12.43881540291392 11.833346407443335
Ti 7.488647714172004 12.243244269928143 9.1804431660392
Ti 6.8807200203103625 14.174795242988946 11.096295200146962
