38
Energy = -252.08141469 eV
Ti 10.480334293744045 12.937064752231972 14.459638454502134
Ti 13.217700521081754 12.2191312674717 14.733504805778091
Ti 10.22433401738158 14.881763540712834 12.00361261476802
Ti 11.342635577047265 10.837237977938928 15.919596592624897
Ti 12.218385885806246 13.32872464656757 12.65935451338401
Ti 8.083738839240244 14.924095249453519 10.604465071538026
Ti 10.232631983074183 15.609612334774521 9.391095996539677
Ti 8.07125447248148 13.227057796042285 12.74170582233619
Ti 9.054653291833288 10.769876390296751 14.424501734096712
Ti 14.585619321091528 13.373238134040696 11.593837941808566
Ti 14.256909161757916 10.849699875150474 12.51111570145849
Ti 12.42629357669825 14.66468651015612 10.448895774756872
Ti 13.379058856257728 9.644852570086648 14.866558324619135
Ti 9.838868484202715 11.555168166659818 11.96544550983741
Ti 11.619154458709907 10.673040109764145 13.201092707706781
Ti 10.973476300375035 8.55697240037001 14.636089527118921
Ti 10.006053058869664 13.025049139671353 9.890270573615659
Ti 8.517855119700704 14.173826186521557 8.124168664832995
Ti 12.597842700709457 11.80442681036062 10.367718636043076
Ti 14.276841177408782 13.521163081404556 8.974028740365913
Ti 12.885272015052715 8.243990253542664 12.64850153917724
Ti 7.278986975882675 12.595548999253394 10.049157066370086
Ti 9.307037764170447 8.88349952583145 12.599035959434081
Ti 15.314171898273981 11.476724132797411 10.085809162602168
Ti 7.373474816662411 10.711956276817833 12.101728117351884
Ti 11.788691024033774 13.277465169648542 8.06110455988099
Ti 8.54509107775599 11.729336697547408 7.839573818184177
Ti 13.69664116287663 11.110440731022262 8.039226689572539
Ti 11.143867363049985 8.950068262069093 10.479659951540278
Ti 13.97340362425678 9.275619038156686 10.088944353911115
Ti 8.724182054577145 10.196816121391343 9.855333993975735
Ti 10.7851623066529 6.6813100958152685 11.917507459848437
Ti 11.062192442461694 10.712843517040932 8.284127666001012
Ti 8.754282523397436 7.547558385606108 10.367546382950792
Ti 12.94632908741198 6.868831905621386 10.418923598389812
Ti 12.416852016202638 8.237760998342774 8.189268544854064
Ti 9.748046423579774 8.466257779991523 8.12607035886095
Ti 10.80211217647185 6.406723020069958 9.281220919605799
