30
Energy = -196.88653149 eV
Ti 7.301051241022568 9.412407486829395 9.237759959618604
Ti 8.911697354151165 7.865330381931656 7.632721116358722
Ti 9.276311610540365 10.266032443932325 7.453418024461795
Ti 7.998700888408769 6.94707826787488 9.875192410194762
Ti 8.068642359307303 8.629692798152027 11.984629865793144
Ti 8.596545879512128 11.897371105228329 9.296267051013022
Ti 10.774852742448804 13.899190714260882 9.515629597565919
Ti 9.14082885735084 13.180183709538719 11.696032846057424
Ti 9.799752582732019 8.995281527832601 9.851455452509008
Ti 11.502155182615581 8.663214818051385 7.894373625734668
Ti 10.486228385051573 6.4763483871066025 9.0763552270962
Ti 11.205363735785363 11.470656514995097 8.680219281117513
Ti 7.635877123894677 11.02565608630418 11.362305967744113
Ti 9.92211552020127 6.734112655874377 11.529597114541266
Ti 10.700466118682307 15.075418810535378 11.910346684365791
Ti 9.011157722631143 10.942779626237561 13.5782305517281
Ti 12.810278712540754 15.2585237126026 10.534944286328136
Ti 12.168749568191584 7.845840078119985 10.602385147034877
Ti 10.491140835576426 10.905878231512103 11.453669133865889
Ti 12.280467980939273 12.773133925337431 11.518305936039205
Ti 13.529996464034726 13.029363435462079 9.234866367310067
Ti 12.845456392592117 10.252773829858961 9.851448056963145
Ti 10.694276568405813 8.66652595378288 12.855783959993833
Ti 10.869267373088764 13.224938907969717 13.861599178438624
Ti 12.907643993686426 14.855075225953637 13.158518630095463
Ti 13.157114311620697 9.893789221358098 12.519633767607285
Ti 11.563675018291793 10.824998437965768 14.111033708118667
Ti 14.683923320968754 13.868115848403617 11.560082077291302
Ti 14.690083410323902 11.459140654781148 11.219434334275961
Ti 13.703904853816336 12.388873310619822 13.671486749150127
