39
Energy = -258.4711433 eV
Ti 11.994935074594908 8.234712945262508 14.257387025185604
Ti 11.025045542217102 8.100644277030593 11.698264947590935
Ti 13.496702942812446 7.918146087009028 12.369403999022436
Ti 8.731734439901539 9.437637311902447 11.185735589022775
Ti 10.80688372900238 9.737280475122153 9.313705535664525
Ti 13.138865647975477 9.210357107903361 10.061252988210247
Ti 15.188655715848816 9.612332920001114 11.83643705324203
Ti 14.07325954907347 9.821266055049064 14.369990555666098
Ti 8.717593851138204 11.462676765976733 9.472379321774634
Ti 14.102668797529267 11.93789541190129 10.489321730593092
Ti 9.5448996500876 8.815950831107811 13.779664570025027
Ti 7.193561970383 11.724994873898623 11.589574586260314
Ti 9.6927136593283 11.414459558014128 12.798949803101417
Ti 13.242142105087792 11.39195913349543 8.085620122151736
Ti 12.346763461680876 10.379379267484289 12.501162727347282
Ti 15.433749927233379 9.942968661411761 9.191687493771425
Ti 7.377176731601296 10.15937473602546 13.411593990345462
Ti 16.690892333377302 11.434539784292966 11.063525388846472
Ti 10.666916977071917 11.877830479372628 7.756337606117079
Ti 7.790074690018927 12.818283114206801 13.94809253382331
Ti 11.242597876855166 12.208774343503533 10.359744697036128
Ti 11.353279621445278 10.461608969015764 15.260142163814132
Ti 16.012682611097514 12.273789587672578 8.61922058414317
Ti 8.780049892028646 10.800588558724005 15.36965043253448
Ti 14.694414353706131 12.22049940602171 13.00541986435334
Ti 14.523560945892793 14.051893144740177 8.765817770460192
Ti 11.88297147163625 13.260402340164793 12.953594852487738
Ti 9.569762720432946 13.853616568009338 8.874643838740147
Ti 12.102296504974847 13.954843717740284 8.460564390906166
Ti 8.609442406138266 13.720050794826843 11.341059985314462
Ti 10.211883540184418 12.939744975282542 15.339969182498088
Ti 15.963196900507853 13.806032162237601 10.922147647076144
Ti 10.820390435008827 15.018923703175858 10.923758358166882
Ti 9.733577175377468 14.882899397379758 13.495117873133587
Ti 13.079594625090742 12.45173550445709 15.239761017079053
Ti 13.433706786007946 14.572743743730184 11.151984231293369
Ti 12.131630413185837 16.014965642212097 12.992734905987954
Ti 14.073752842911157 14.560715988190973 13.866024250633759
Ti 11.836962421506211 14.833331857654322 15.195045366943337
