33
Energy = -217.52676928 eV
Ti 14.358542520968115 10.368523519485953 11.590126916724758
Ti 12.787540951321601 12.709634942926384 12.54376475117764
Ti 12.767470479721387 12.125353514453625 9.897017029796581
Ti 13.419761335415446 9.736955364276863 8.868642245935316
Ti 13.345403925069334 10.602751594818065 13.9843184436266
Ti 12.118224224835911 11.686519022107904 7.29265063315264
Ti 11.297574359234396 13.938575983636902 8.53317549784854
Ti 13.096831171259673 8.282269799701742 13.15594915145607
Ti 9.729584561124934 13.009097875284096 6.773643344097753
Ti 11.984137043428957 9.18577752394173 6.603223965456438
Ti 12.73543512234595 7.74915110856865 10.612971530838314
Ti 11.501211465909698 11.926579574296602 14.713971532451849
Ti 11.943699813615304 10.117077539100581 11.614038637246143
Ti 10.533177024631424 13.55319815922832 11.028033361590557
Ti 10.104523921520089 11.61555222579108 9.055083936902752
Ti 12.224151443964548 7.286895494927638 8.155759505317482
Ti 9.62440518801388 10.35566374386372 6.524120136915974
Ti 10.315779321605866 13.662022347927302 13.610776232068858
Ti 9.926219010023111 7.762548127298924 7.065164490333275
Ti 10.824301457386047 9.228661465879846 9.207490551455988
Ti 8.657546750633982 13.784196912897011 9.116929132047495
Ti 11.031129111593387 9.399698204310594 14.560857361045672
Ti 9.85760214863393 11.214165289109909 12.384060376586678
Ti 8.139771383233818 13.234561383682129 12.4610163925167
Ti 9.914260166255879 6.933659821102496 9.617004699528108
Ti 7.7399090174247505 11.716165590687694 7.727371528083253
Ti 10.626939515802345 7.786005309098473 12.299860750787786
Ti 8.901748956023022 11.497718877345218 14.733899777628574
Ti 8.167926615676652 9.111056677781024 8.47964199013239
Ti 7.748069801997211 11.555596688723307 10.382396005855883
Ti 8.709528359723455 8.999971065815588 13.607350472980212
Ti 8.60595184898681 9.04767586347298 11.008647428577525
Ti 7.232537171156476 10.787614576995791 12.761937378374034
