35
Energy = -230.28444892 eV
Ti 14.749856038677148 9.28716501628021 12.771240570019696
Ti 13.705884263484224 11.411996615348507 14.160006163425969
Ti 11.934319161720158 13.69310480282349 14.659417720468433
Ti 15.433869766596043 11.653942258157922 12.078735598758502
Ti 14.872799544142477 9.810686025433377 10.125312020806248
Ti 13.754279728095145 13.645831328597229 12.44224855999168
Ti 9.525856688664883 14.797203804618126 13.654122512517835
Ti 12.109689885318687 8.84277224596616 13.32032029163145
Ti 10.911625517778718 10.789116977037423 14.592320304137466
Ti 11.723560560904764 15.482035490880774 12.63900808470949
Ti 9.34240900638522 12.760284935141994 14.94164809875276
Ti 13.27894654548627 7.785113021401579 11.050319690169479
Ti 9.408144869831041 8.550400380739315 13.764618104158396
Ti 13.006319748950672 10.915381818893124 11.763903837237281
Ti 11.15058290681411 12.926247687885464 12.474911816405658
Ti 13.578262159759129 8.270094927044482 8.446331014378954
Ti 13.96689762868622 12.659123491740175 9.890812761211851
Ti 11.151958308042408 12.362239181554855 9.952644931450658
Ti 8.237643913504186 10.636335834108475 14.245520940613186
Ti 10.042738799867989 10.291673733812146 11.897120953228148
Ti 12.336838387540174 13.39107643510097 7.830763615407398
Ti 13.224177789769339 10.928888704144347 7.838420755988464
Ti 11.815646489208941 9.704638807445473 9.805870543208652
Ti 11.326402217376462 7.217998571614359 9.09116082240728
Ti 10.447825493544451 7.739857216105156 11.401213280025962
Ti 6.991610826539316 13.123938047325503 13.709566078252958
Ti 12.169460105690264 14.804917363766188 10.12429490526176
Ti 11.40006092297763 9.02819177474341 7.283904982500659
Ti 8.589920591952728 12.483007681456337 12.194912411650535
Ti 9.677915867783467 14.821297689093768 11.023757961541072
Ti 9.947797082963305 13.97877777208908 8.507182628503914
Ti 8.639741700112692 11.649729489168955 9.669360884759593
Ti 10.441222217057437 11.411103100591841 7.584501073638124
Ti 7.622878612306725 9.843215954529178 11.800959625838114
Ti 9.33964244841697 9.181339716127951 9.142489009071822
