34
Energy = -222.86898662 eV
Ti 13.467899502808066 9.592284817084709 14.586772938560125
Ti 13.304254857172586 12.319476095175407 10.353210557613583
Ti 17.649014213036203 9.49855605254213 14.049137391610287
Ti 13.76188948361774 13.768015635547066 12.540708628174828
Ti 15.22647966942231 10.587471615301528 10.872906031000726
Ti 11.375110638214375 13.426878864915643 16.177795004476067
Ti 12.41423688758358 17.59612583043851 13.883341681813546
Ti 14.260930234721751 16.192347231989665 14.313500374120922
Ti 13.113153211326193 10.287004907161307 12.196399662391073
Ti 9.598046864585285 14.269416348440046 11.720367389948013
Ti 17.441071474443252 10.986912795268507 12.03015274394436
Ti 16.479493221355455 14.263054496482756 14.78649593605796
Ti 13.709117208691742 11.403237812629122 16.243604024997072
Ti 17.805271359324706 11.909549058895333 14.809219655770336
Ti 17.621418953102303 13.41648578420301 12.71561710573498
Ti 8.700893882338944 15.532503478138985 13.542763888164979
Ti 15.914865980023086 12.482285189893034 16.47064827691035
Ti 12.190432654044885 12.021264047726936 14.11974267084877
Ti 11.445349633366693 14.926298833587788 13.77667887495232
Ti 15.401600703564343 9.07027603109837 12.959133226405942
Ti 14.324038170088468 14.815553718411197 10.202984501665819
Ti 15.882100557755628 15.36677096231072 12.338178080168758
Ti 11.786766396556507 14.761005337894588 10.561102757933083
Ti 12.091079467004029 16.116150174450077 16.172996849760143
Ti 15.991478814781964 13.027869796899243 10.781276446669022
Ti 15.319513978646652 11.684697412296606 13.718654392417669
Ti 10.562781688169816 16.824499581935534 12.005776664189872
Ti 13.344582342495745 16.601051076100628 11.757959101125001
Ti 15.837249078862351 9.937813975227185 15.727140496031533
Ti 13.814735090080486 13.936912799535149 15.365173767181307
Ti 9.484736742029009 13.038061861584437 14.172917514952106
Ti 10.180995332797755 17.281503443514573 14.678967922330271
Ti 11.100148823875486 12.455612794225877 11.884136567729042
Ti 9.604658934508414 15.128091770274278 15.867479538616017
