36
Energy = -237.44104232 eV
Ti 16.213095300425028 13.495894801305804 11.727730613702779
Ti 12.012141205993842 12.409070907745905 14.141744813808787
Ti 11.645847448795646 10.377478025140322 15.894822214654884
Ti 9.900093644845887 14.794318623025694 9.596157303537867
Ti 14.490133754451243 11.836333927693387 13.222007866848251
Ti 14.824627252852451 14.489293026379373 13.947777243349146
Ti 8.408226669238209 13.552250717445638 13.349301754851082
Ti 13.421384125194855 12.876174828369477 11.087030569804417
Ti 10.376614440914114 9.234931619198228 10.8322701058199
Ti 12.910329520423888 9.733464301262593 9.851673394331135
Ti 8.321602774379972 13.394388594794867 10.784893361966716
Ti 10.667426023360557 13.431716294093693 11.810121895773605
Ti 13.253298606911107 9.378307635950621 14.331204405690864
Ti 14.04129361398185 11.946104623750438 15.823246221000606
Ti 16.61906038414854 12.575431497469616 14.374476532595905
Ti 12.466486996353883 14.668541105968727 12.863367246864204
Ti 12.76671523384305 16.654461259966745 13.755870974452856
Ti 15.03845686980109 13.754462949290016 9.298938019708968
Ti 12.568389033385158 14.655187800770452 9.305056670449238
Ti 10.715986748521434 11.770748611984704 9.756392635501806
Ti 14.356248144239883 15.581351796488418 11.163991922986172
Ti 16.85456421994907 10.990431758124997 12.304474467745125
Ti 10.464422788446633 9.313718219806969 13.64367509010034
Ti 10.427474588141646 14.643587349005426 14.688416160675262
Ti 12.930282900003027 14.62414505973183 15.691722445930909
Ti 9.076680848532861 11.1757556502626 12.136287775851898
Ti 15.828829725369546 10.052762445457654 14.479115206197768
Ti 11.967397209261113 10.792541953337953 12.028999007049956
Ti 9.302118670245825 15.624297184766466 12.098873025108292
Ti 14.731851027108734 9.334408344620726 12.002459440903257
Ti 12.365221148921071 8.213211888028228 12.116397000510755
Ti 11.599420566007277 16.273990591595375 10.94841734253408
Ti 11.3337694553723 12.813973913133633 16.543918574115924
Ti 13.118067835066539 12.089366467471203 8.585491563854783
Ti 9.559266125357434 11.653157264892313 14.78981303828933
Ti 15.325769284632733 11.231416730170222 10.120264037034426
