33
Energy = -216.53184623 eV
Ti 12.541568264292504 16.349186367109226 8.707169756498633
Ti 14.417041963810822 14.778437010235631 10.3089032054079
Ti 9.435269039462266 14.209280488406147 10.957435105883263
Ti 13.075523872790484 16.93933944545914 10.901672094017343
Ti 11.986293552278719 11.71647299074784 12.264383199048297
Ti 13.207654075344538 12.26897795787212 9.665470197939372
Ti 16.5152292953602 12.341302697276369 14.416270404751241
Ti 9.76715888558235 15.309597589139033 13.361967273543662
Ti 11.604730457109097 14.296503663048364 9.442243293999327
Ti 14.781576814193139 11.565021687911829 16.347104939614674
Ti 13.304022478961258 12.336587825370184 14.477177487659427
Ti 14.54573230481864 13.12140354239703 12.44129379414663
Ti 10.705021050970702 10.651104969379736 14.559790059865584
Ti 11.942539172013362 14.44059595038198 12.166408689201672
Ti 15.826851894921342 12.514174427722226 10.166126634704225
Ti 16.710361183229153 11.419844656184098 12.188582225283906
Ti 15.227012952184428 14.246820570239823 15.159761902841526
Ti 15.07483328761757 10.15115556908386 13.842498311658472
Ti 14.352251017593229 15.836150979425394 12.838622639874277
Ti 12.041256996192233 11.534487045703933 16.688734767576772
Ti 9.406213087838234 12.520465439181878 12.898368134703276
Ti 10.27209212101137 11.899772008664344 10.251731897245605
Ti 13.144033882192549 13.712828245840669 16.770757574886577
Ti 12.039299186632414 9.976459139084177 10.29609502519008
Ti 10.091011333179804 9.98379011733328 12.047825332935837
Ti 11.824342172742872 16.97583897402085 13.10536414098096
Ti 14.455920573548386 10.393671496556626 11.166414940075054
Ti 12.746274654013147 15.133881830431994 14.690186040663722
Ti 13.047846750566508 9.70852937611012 15.403423324200942
Ti 10.777059257678015 13.312761644491948 15.068715196953114
Ti 12.550579510838247 9.21481847560055 12.875111486597216
Ti 10.513295532007211 16.441340724610146 10.93962634453014
Ti 16.70586093758577 14.100693533754768 12.244740910128192
