32
Energy = -209.47161169 eV
Ti 15.397377021173211 19.04213530438854 14.723273084152114
Ti 12.701645315422605 10.92491154829404 10.071339812999845
Ti 14.330914908760665 13.754032677496612 14.353616738561223
Ti 15.994623070904304 17.932601474439785 17.10832557337349
Ti 13.81219777184967 9.515257628777377 11.866273143314013
Ti 15.080867361935598 17.0365997565994 12.874224826950028
Ti 16.698213118429774 15.024935846208537 13.969036690595495
Ti 12.334191617053435 14.851365716461183 11.452110300537047
Ti 16.58058015840643 12.774226540824312 15.496073095086762
Ti 17.099054055350855 17.242916733314452 14.846628077065127
Ti 13.054148491345398 18.403498933455197 14.05526481350923
Ti 13.066749234325464 12.173118689492043 12.536430504990852
Ti 13.292130273309333 13.269693252093704 9.957389988212771
Ti 13.90742445951598 16.318941490418762 17.884990209274335
Ti 15.413531058474524 10.552733859766677 13.513813591884025
Ti 15.01723177322333 14.368550006793674 11.643227259682803
Ti 14.516966776850458 13.640663278415314 17.02385945113158
Ti 14.46379660641218 11.303836934627366 15.759000673060411
Ti 12.141339219420644 12.277277113514165 15.616599175166948
Ti 13.643062895207121 18.76183977403071 16.639459038059194
Ti 11.875801955579236 17.106104957741717 16.078802292266598
Ti 12.295577211571628 14.753317487086216 16.248832493114218
Ti 15.181981867149952 11.579395418566483 10.90184114229013
Ti 12.752071754262902 9.990466365786304 14.244277534191097
Ti 10.838091878093916 12.60047698691667 11.162504759309257
Ti 16.55562290052085 15.382105153272223 16.756832655643276
Ti 14.510424354944117 16.480801781694364 15.408161010141203
Ti 16.47295218898162 12.715352169047726 12.889343299355126
Ti 10.565398193283459 11.57431912970761 13.754796604618829
Ti 11.311452720455998 10.074995219001554 11.983704932258213
Ti 12.628085464622146 15.830976920630835 13.669157299045699
Ti 10.961986588765303 13.969931175238354 13.62525545666044
