37
Energy = -244.93707376 eV
Ti 8.068606587915697 10.933702396195823 10.090121429392939
Ti 8.368954875409445 10.559021553199228 13.40052973540926
Ti 9.259654182117192 9.288344657351965 8.35418559487449
Ti 9.657477722575152 9.076256476490778 11.007837411383308
Ti 8.13433674328654 12.020813588893887 15.658993575028115
Ti 8.893182484746857 11.711316813352989 7.620711655640826
Ti 9.529389994884623 9.796761830201806 15.749896057302754
Ti 8.469212200822097 13.391818122025489 13.360986444166292
Ti 8.862840364986154 13.289544223230983 9.713940768948289
Ti 11.856324908383263 7.688914941161062 11.46580928777252
Ti 11.680318733979556 8.546645119334729 8.994039055747166
Ti 11.063465134677026 9.41828216245712 13.488334561488221
Ti 9.995518040720102 11.935233705950035 11.79393083869768
Ti 10.362558586939546 11.960802460374541 17.05584365617976
Ti 10.686631625412085 11.21161416078534 9.471733091805536
Ti 11.320626493039118 10.737166424854708 7.0298515886616935
Ti 10.534044118445332 11.87218327922158 14.43877022648129
Ti 9.728715383877319 14.087558947354786 15.689298821558616
Ti 12.50074480087131 12.878374854882258 12.658974561261262
Ti 12.091752304212434 10.285285608970304 15.950617493663497
Ti 10.905367243298372 13.443585357238458 7.79696418123683
Ti 10.971570281991351 14.363330340134668 10.502713430086065
Ti 10.917413742942381 14.555834408827247 13.513813590706672
Ti 13.622107419048481 8.580172702312446 13.07231298686446
Ti 13.023969065838454 12.575379306165996 9.97950534231171
Ti 12.600508216745334 10.28915721882303 11.383651307168853
Ti 12.360116893499262 13.23396462047942 15.562848194420075
Ti 13.51233804116789 9.944032491668713 8.205868014065514
Ti 14.204947331688476 8.502717179312143 10.358733941179961
Ti 13.534698635541123 11.078555084575454 14.071764927800588
Ti 12.910691704363186 14.86787148780504 8.691924702485874
Ti 13.571020039149982 14.88850929497528 11.227449271133986
Ti 13.557120920722163 12.496427542265158 7.469983427447161
Ti 15.252597435642468 10.287474039928906 12.05220620574124
Ti 15.25097849278007 11.109772442314501 9.516976884518733
Ti 15.07401929666911 12.790035279957099 11.77656037441008
Ti 15.192772070717353 13.830131996033185 9.34890948206418
