39
Energy = -257.97625829 eV
Ti 12.842127235560271 9.55260861658441 16.05575038264687
Ti 14.86753390848505 10.660985046186552 14.920271540760494
Ti 16.69313008328684 10.772933476137249 12.55846339385783
Ti 14.642900260993297 12.773936980749554 13.539159462207175
Ti 12.748372150355141 12.14987506415728 15.564114943817367
Ti 12.830373848224987 14.74248767385155 13.858617096371232
Ti 10.94493121795546 12.778713205056368 13.764530701872577
Ti 14.520413496158321 10.291721577011863 12.144205362421305
Ti 14.090708655254325 8.339997813618115 14.026912989957854
Ti 11.551907141817528 8.009743198767199 14.535763366738376
Ti 15.501516930129771 12.758564545732987 11.060629827991004
Ti 15.324320543430426 10.867511647499075 9.55875223534505
Ti 12.382512780398974 10.37719557839472 13.511877020195879
Ti 9.944072233187988 15.393133987521987 13.116076064558406
Ti 10.367057737307357 10.416010249639228 15.130696701272905
Ti 14.385304505638997 14.961791166292954 11.420914065617135
Ti 12.090289182374852 15.980642539823924 11.85583301158729
Ti 14.295254893225293 8.725631139770561 9.849778810244109
Ti 12.750382393649215 13.09550665271409 11.58603448801005
Ti 10.012936873982108 16.284836385588783 10.582325618723063
Ti 10.179469698575932 13.625283836960705 11.017506530441313
Ti 12.286027214547842 8.221124434525827 11.819831186500092
Ti 7.9207296090186174 14.714163580931807 10.958730908048492
Ti 8.153153553387243 10.740190498958016 13.469148403193886
Ti 12.149875580215745 15.057876112315407 9.428665458672146
Ti 9.63628485144116 8.735315323546615 13.007652312177765
Ti 12.53822460677251 10.706790033985227 10.369720913671468
Ti 8.454520406407008 13.407292985376095 13.416776576111902
Ti 13.923127062243397 13.031629448939704 8.930590663862333
Ti 10.080998861960678 11.07132040712447 11.658950073598582
Ti 13.130589431718832 10.500882109074073 7.9507189324613785
Ti 9.511363355130335 14.69154084748275 8.695322226577986
Ti 11.980542094839162 8.391058306992042 9.053815533804233
Ti 11.254615393279623 12.670736683223394 8.60602977935913
Ti 10.016479392937395 8.409977593245616 10.4976065470901
Ti 7.338774864066772 12.255434965666034 11.575959845263323
Ti 10.156845246209285 10.36595089577253 8.808673499608794
Ti 8.375302705651293 12.430321936382558 9.258184065640567
Ti 8.005799385094454 9.915253877964185 10.79484558619852
