32
Energy = -208.9002118 eV
Ti 9.521682936081053 9.06792090233362 13.699606777123389
Ti 8.941129610776706 7.308100667297126 12.196999484813345
Ti 13.489345375298429 9.046378104763086 10.953116968225563
Ti 11.8629332158758 8.471003870466145 12.980856140762985
Ti 11.827127609268027 7.054513963023447 10.206999272813068
Ti 13.742209856954531 10.167538661311497 13.488463550631108
Ti 10.05736872402887 8.2468602524148 8.228591353926513
Ti 11.11832478054073 11.028667452891682 14.29865385155617
Ti 14.280430329037209 10.999096051763068 9.217788180227895
Ti 8.417881459171596 11.169190895356412 14.213232383531848
Ti 7.314645739756381 9.754908440154175 12.322626577208467
Ti 14.629981920655913 11.602987896594207 11.937866816619692
Ti 12.746273884312338 8.803466230249196 8.242108304301876
Ti 10.308296185414447 9.090158423624391 10.79431802970388
Ti 12.040476892554464 11.055495449834458 11.732204066362739
Ti 9.477336564460186 6.580965201320344 10.076647173438003
Ti 9.62433926011412 13.191322164002111 13.79229383522302
Ti 7.861525246996132 8.682443755071523 9.818532018930544
Ti 13.50240066546784 13.25989740997054 10.573571952498142
Ti 11.53515748638622 11.033594884426513 9.104264163607496
Ti 9.384458953186112 11.512608124043572 11.525531575369032
Ti 12.064054769681603 13.294969969175579 12.780356164191984
Ti 10.788754974042664 10.074719319287682 6.678282847080955
Ti 7.349619687712985 12.696310687903809 12.299596391435532
Ti 8.813024730909412 10.82053958050324 8.304265424647506
Ti 12.975187086367892 11.103102261424253 6.858621116768403
Ti 7.0164558654011655 11.136789923323072 10.141039339132183
Ti 13.016574150091552 13.187659927480038 8.179888820528236
Ti 11.003191108534553 13.63153639332081 9.858228437408302
Ti 9.518043225992349 14.33759981126728 11.69556297309077
Ti 10.648037498789678 12.628274913825818 7.2467633429328195
Ti 8.352496180423651 13.195582407327034 9.629663108199892
