35
Energy = -232.17086722 eV
Ti 8.698525509932304 13.97611259865982 12.37911506120486
Ti 11.208771115894542 13.806217795389458 11.807857403928383
Ti 9.068415274475083 13.90283556176088 9.814480273570126
Ti 6.601234661764368 12.834032800002396 11.080121849130661
Ti 7.528209496337724 12.240610825718202 13.592700866015013
Ti 11.486812821784536 14.207330605321427 9.09530565733007
Ti 10.2678041309329 11.957409238864873 13.58471740357851
Ti 13.426484109038007 13.277161566613115 10.446562084576637
Ti 7.614001238300313 12.219084124679469 8.546704160622573
Ti 12.839179785731144 11.691841191882057 12.553270060901076
Ti 8.623213203753549 11.467891753730234 11.324617556551317
Ti 10.029739219531605 12.463347720914014 7.637042854718158
Ti 6.361088908215683 10.411341663723086 12.30902863509833
Ti 8.692554861451121 9.858488582605027 13.713325606795888
Ti 11.241866763224408 11.770623015698982 10.156455965667883
Ti 12.752696194693431 12.122865444170827 8.038917702698543
Ti 6.598395009266976 10.253389797463274 9.587977064663404
Ti 14.172540851657228 10.85523014771977 10.257473176089945
Ti 7.761221383970483 8.48564216706017 11.458303312693054
Ti 13.604736977458405 9.242574641102884 12.159453495176802
Ti 10.77439877666903 9.676156994257102 11.859847318058334
Ti 11.550415317489104 9.266944478755603 13.98947191628703
Ti 7.773421282236822 7.892268455050381 8.913777964459566
Ti 8.28295446672815 9.94455768816098 7.1515262017021115
Ti 13.992616248706295 9.86120931009358 7.866375218118106
Ti 11.28926119930369 10.05984989205444 7.017809347854221
Ti 12.016342654742742 9.050770942210425 9.560285025384403
Ti 9.361312848267517 10.021240816419619 9.189591735979635
Ti 9.70792163945036 7.49297031972404 12.96502995378579
Ti 12.193824920185225 7.264609239063236 11.876087046297375
Ti 14.189083814407136 7.925131132802193 9.759977787813483
Ti 10.18190792886289 7.791511330297349 7.731462607480527
Ti 9.802295137219325 7.032406533123381 10.395093895608515
Ti 12.819477132159847 7.7989329696396 7.386158140135967
Ti 11.989886087518077 6.380019626627823 9.296686621383728
