31
Energy = -201.57137649 eV
Ti 10.413179478650157 11.973850987118093 6.8923974903274
Ti 9.452081376535054 9.558978920870043 7.56435190803781
Ti 11.986519597604048 10.025001709936502 6.99830039317998
Ti 11.444086259588168 8.284246021065199 8.97435419016128
Ti 8.432923204397134 11.95039723701473 8.605143808344874
Ti 8.761647959715182 9.277019320463902 10.25215023906979
Ti 12.881329950401863 12.347428138932505 8.162633543902386
Ti 7.649481653962936 11.57720080895894 11.063200645256943
Ti 10.844803785450946 10.853480756550184 9.261630624405662
Ti 14.775056204826946 12.17277531286398 10.203109769609098
Ti 8.301000095869854 14.057265045202406 10.371082892172451
Ti 13.779157152405354 9.791018381581559 8.82291650820396
Ti 10.59783281162702 7.341947536815152 11.20599199903681
Ti 8.149526333040228 10.452864186019534 13.22314526661538
Ti 10.492357118829913 13.765674295752751 8.707555852595021
Ti 8.189848703082172 13.549124530026067 12.854281417812619
Ti 10.194509271584236 12.463010403339448 11.114157609926517
Ti 12.548729948019657 13.75733555616843 10.36213022480002
Ti 10.661891521414574 9.915810233344548 12.114441913144073
Ti 13.141460787647905 8.220008199818476 11.097599822198811
Ti 10.043885537714596 12.165062268565222 13.824861294869159
Ti 15.216411569755197 9.804673404429419 11.023200374428303
Ti 9.070551557221135 7.984674949580766 12.898724999407156
Ti 12.831046607288124 10.987851142977469 11.04949241169964
Ti 11.850001193159942 8.098740023386277 13.531997957774887
Ti 10.616287686466356 14.65918014768862 12.359088652781589
Ti 10.018997228188013 9.584397617722605 14.755835725458708
Ti 12.627564447251002 12.988381349252032 12.806434956636034
Ti 14.085231437547556 9.949055752648256 13.16916719577163
Ti 12.209638517576767 10.867812881619058 14.37417203183216
Ti 11.21878650788019 14.05319175632789 14.862681592855614
