32
Energy = -211.47750756 eV
Ti 6.904975222163639 11.941717565583529 12.355211069256463
Ti 9.428304993549267 12.178389243957392 13.273458573469604
Ti 8.276799948572192 13.725282324768223 11.372850466432538
Ti 6.94079975548528 12.188553425215774 9.609819089065798
Ti 6.429875346300051 9.920854118696985 10.979914596919931
Ti 8.136463515368957 9.748042335574837 13.11546100329988
Ti 8.916532211192251 11.085547295546023 10.879765892294209
Ti 10.819151508337749 13.823039241873815 11.618259321984812
Ti 12.341121480889901 11.93077921044483 12.934534287927805
Ti 10.761165000510717 9.626940440480736 13.790121226629635
Ti 9.444241284742352 13.451938091043385 9.08698084749839
Ti 8.031464429199902 8.013027790804214 10.776836930442592
Ti 7.497373405628012 9.568850273242884 8.55817556910918
Ti 9.318162474313892 7.489420091099993 12.949440948024291
Ti 11.874034422524167 14.036548057562502 9.105132019204355
Ti 13.365946750373197 13.532219619374073 11.037068611809348
Ti 8.533869224141675 11.683107184172814 7.468669752173475
Ti 10.86311888165017 8.959607758526076 11.19066547901605
Ti 11.75662313564631 7.26301625061219 12.99729382120167
Ti 13.681702051561109 12.077389246520138 8.714698577188333
Ti 14.331279308824282 11.286956023169804 11.205323981747377
Ti 13.203699877297392 9.399517775022415 12.512578546923518
Ti 10.22461691171168 10.006921546542335 8.82735761672167
Ti 9.170219233816848 7.491229179564945 8.544696342892964
Ti 11.154431291572388 12.167133983117035 7.341506716741131
Ti 12.986591504222405 7.264197656837462 10.818699199597335
Ti 11.724777892925895 11.59619141483208 10.344484305056485
Ti 10.417156332135631 6.453397421943317 10.723674320581123
Ti 9.944417117459407 9.436768067861527 6.762976948138801
Ti 13.627166993297214 9.372593110309227 9.632769385367743
Ti 11.744645870090434 7.703194431487605 8.495394283404805
Ti 12.560133563651828 9.988490763368617 7.387041209035626
