33
Energy = -214.8623339 eV
Ti 17.38003661729104 12.107337931712353 13.07913701790392
Ti 16.270116102770405 10.533876405825701 14.723149092303974
Ti 16.225384503426593 12.844845875352226 11.114489566137653
Ti 15.573462141490394 10.273478243087169 12.11383764106977
Ti 16.269656472441607 14.618615038399167 13.154038296930679
Ti 16.62285871749217 13.1115573862368 15.265695747056622
Ti 14.251453158161299 14.430235838115934 11.297629323326998
Ti 14.510037798837132 11.898246797818551 16.130698092460705
Ti 13.796019855565593 11.974536029174018 10.738826202933867
Ti 12.150074106483434 13.380163283844377 9.097830478888577
Ti 14.669797359679745 12.41067634534073 13.403171596320416
Ti 13.858872866835025 9.904167252875347 14.395544491404536
Ti 12.386947890811406 10.624433149982135 9.08021304694406
Ti 14.405041885439362 14.480193934014803 15.229406301764264
Ti 12.666609836602236 10.20128581950951 12.110940433613102
Ti 13.379217882315974 15.680293371545492 13.321342468248924
Ti 12.024284161099278 13.041238894089837 12.95248472607759
Ti 12.12704483018263 11.486087370018605 15.352367989575443
Ti 10.813044515682792 11.756399225063133 10.920719321930239
Ti 11.793031441378442 14.227832078218153 15.274180933214982
Ti 12.123158302520547 16.637443981998867 15.686418642795667
Ti 10.212891923863364 12.04214323300099 8.27010666396989
Ti 10.08032556349286 9.690523240297328 9.029186146124461
Ti 10.518381248723845 10.204382250805947 13.709352354981341
Ti 9.649279502487934 9.437817128262775 11.484549222608333
Ti 11.607096432167316 14.998637605867419 11.10613854670402
Ti 11.003066261602305 16.315687894584194 13.45681017107064
Ti 9.882977006153123 12.543912695206062 14.693902291617281
Ti 9.62459143062653 15.556715285466227 15.422234397163756
Ti 9.522473934125474 13.844772085863955 10.029658422588613
Ti 8.619517178893634 11.64654135497396 12.560419056213895
Ti 8.353646091203744 11.32235674380359 10.050417098929659
Ti 9.585203031300356 14.342967887647703 12.851817765077518
