36
Energy = -238.34378558 eV
Ti 6.48056266049705 11.53338354397 10.648510184422175
Ti 7.322779248184711 11.441631676136444 13.152916549601795
Ti 6.784939900733734 9.189318903355792 11.840175238763988
Ti 8.758061005688381 13.761920605788676 13.584492533909026
Ti 8.378076771341476 13.357642503243287 10.914124716849793
Ti 6.981198765107542 9.409695502537344 9.346244528173658
Ti 9.17396485115497 11.62288119241792 15.027870201830511
Ti 8.904590379031303 9.331705542580037 13.545971118969158
Ti 8.901548923185121 10.34856068979521 10.891174922565346
Ti 8.250271634364806 11.856251024839372 8.636065863553357
Ti 9.175111684547149 7.850606688503873 10.616698928192628
Ti 10.075071895618391 11.693583765107281 12.66265854976274
Ti 10.671413496710622 14.356994317784418 11.738358065573575
Ti 11.342694883389463 13.072762182752982 14.47706750894431
Ti 10.281702654191065 13.975927846001472 8.890185548408324
Ti 8.982368898098814 9.347329533377541 7.918448465621477
Ti 11.151231467608378 12.032650793583638 9.960794113471103
Ti 11.636077944384322 10.409502338846478 14.512917541945857
Ti 10.575384463202761 11.439011113939213 7.264803609522321
Ti 12.880191679879683 14.049291257741354 12.754953043055007
Ti 10.451489101666702 7.065883430540579 8.381313187847457
Ti 11.204711908228898 9.016209350980699 12.229216869523823
Ti 13.032782661153826 14.042524623360421 10.131927492960488
Ti 12.744228026415835 11.32155900445136 12.009357090773875
Ti 14.064293104460164 11.907635157349747 14.100797539582636
Ti 12.590129135934168 12.895910137828073 7.890545261405969
Ti 11.317089628663368 8.900220659332275 6.779360266771964
Ti 11.288051829037618 9.3477805829722 9.491107220663634
Ti 11.876538458781654 7.035360147274761 10.636011246671982
Ti 13.71953132317028 9.224069504805739 13.342698607224635
Ti 14.888000307280965 13.080991749748232 11.809427661071268
Ti 13.001991844821367 7.686077902453192 8.345924477906303
Ti 14.318562966004162 11.682934865960638 9.61821566918367
Ti 15.338143397599847 10.63823194146177 11.9925962555393
Ti 13.11280599612193 10.375560952519164 7.618711630916819
Ti 13.725619913611682 9.079611776530866 10.61957109869162
