37
Energy = -244.17287968 eV
Ti 10.873723930267857 14.924367183923103 10.347658182871585
Ti 8.651896477516576 14.349199098616957 9.02721564453825
Ti 12.848963308941743 13.692478506555007 11.732014305493047
Ti 10.711434068952313 13.218390225965663 7.844087385753252
Ti 14.917181666991828 12.393676426001221 12.837671050616835
Ti 10.500310283313462 13.756916969483658 12.89164058728645
Ti 12.965452792281441 13.0222843725688 9.131761446200285
Ti 14.552389581024798 11.309471645390918 10.523308984870837
Ti 12.711047691082648 12.495491800812353 14.10342124252384
Ti 8.256927292862853 12.331535666177565 7.630545375938268
Ti 12.49736665690862 11.572542248095235 6.812595715465784
Ti 14.26508054889969 10.676591676056804 8.186410236821292
Ti 10.168043215737114 12.545635906792723 10.533764603316257
Ti 8.455542820241607 14.357722111188496 11.487163828776978
Ti 14.481679271746 9.821969257462575 12.64288624881023
Ti 12.13693743770683 11.04799502232241 11.843337559510402
Ti 14.76261179840498 11.0948676371018 14.935997216039544
Ti 10.044399678049647 10.554887974041566 6.831833338150271
Ti 11.759035789035273 10.50840978735714 9.201375240847145
Ti 7.1493709422382885 12.409315578859216 10.063211501855296
Ti 13.773061829137086 8.783729801153463 9.934139771522815
Ti 7.368745448523969 9.846265685093192 8.19082645134849
Ti 8.254709494643437 11.896732469574838 12.446101246284469
Ti 12.432392925109731 8.9115434423525 7.410075005323864
Ti 10.251420480629188 11.032471438975177 14.004277490913257
Ti 9.064597975240922 10.484254151365018 9.498896024702978
Ti 12.452277677328723 9.78165916829921 14.391289844235413
Ti 9.673853156928079 9.379306985474706 11.79997181500981
Ti 9.783489928952957 8.363105219599007 7.886326119769181
Ti 12.18790977229543 8.268456143837048 12.289928885816007
Ti 11.237651902071349 7.764225669685076 9.838723788125876
Ti 6.967633411354411 9.698226734001958 11.258311657461245
Ti 7.904493729295369 9.747500706930746 13.832505823774595
Ti 8.341346625535067 7.745607498174936 10.027881100589719
Ti 9.983060740698187 8.166326202606259 14.108413111395985
Ti 10.066488536323241 6.68585385831212 11.946284675292548
Ti 7.810873802451023 7.569297379721449 12.622111166118204
