36
Energy = -235.04536816 eV
Ti 12.752180590360505 13.998419657256294 9.579428743138331
Ti 9.921419833595973 10.734917264632049 11.094705906177683
Ti 9.149338614169617 12.076971939851214 8.93454022973527
Ti 14.089296950855184 16.133130763076753 11.356323756594781
Ti 11.110744382736506 10.59847486437416 14.549511216727497
Ti 11.78935832193525 13.75132392647048 13.207253825126
Ti 14.3143608080469 14.699529620280538 13.870140735943878
Ti 11.767576406026231 11.48040581808689 9.301190553019438
Ti 9.328567709462096 12.236046515729663 13.129397833144926
Ti 14.397695961571674 15.947543119369332 16.19907046619975
Ti 16.63006603791427 12.512357522240857 11.135999432539677
Ti 7.985210754984488 12.601026709656853 10.88207321944835
Ti 16.50049728166251 12.69777958207241 13.678790439426876
Ti 14.728770411730784 13.048333332513753 16.056209251293375
Ti 12.440889205784389 16.51201130584121 13.735705952835934
Ti 10.065784170829641 13.078902893101416 15.2723298156949
Ti 10.41885566720737 13.404464844072296 10.83034883291241
Ti 12.930037654815923 9.42159317955602 10.73551438269676
Ti 9.657999824388721 14.889055465908571 13.084703656637275
Ti 15.203615106588162 16.99241715165856 13.658769182191632
Ti 14.183020405300999 13.366738891263566 11.71075332284425
Ti 12.34823061489738 11.341610250707037 11.938362721086886
Ti 15.537089412999169 10.416006109421208 14.739405004884441
Ti 16.62446890965198 15.062328283271022 15.014742910245218
Ti 16.454786812095072 15.045893125020179 12.121677513909251
Ti 13.441356150883149 10.313717381064755 16.23703216323661
Ti 13.40269349617189 9.287085264985913 13.678744823034625
Ti 14.481409269353337 11.596581712874839 9.781418866998093
Ti 11.9864069096009 12.248293757432963 16.657437629488587
Ti 13.769675429378433 14.199638871184874 18.168327542800533
Ti 15.169870071738433 10.460303702663698 12.102089781834186
Ti 12.257142321166139 14.624056948370425 15.84755487421977
Ti 16.076755605777237 14.565605690805606 17.72081440371037
Ti 15.381498843363728 14.300805607038786 9.695188797316197
Ti 11.586965515169563 15.742010069805284 11.318824764539881
Ti 13.398615145751771 11.896869466305702 14.257868056332972
