34
Energy = -224.34081565 eV
Ti 8.216209803249681 12.15178811834463 10.974683816938219
Ti 12.15988309953383 10.492994146499942 11.647518353835775
Ti 9.514494979558323 14.634554061493587 14.202596629567724
Ti 14.600794194009117 16.36612939076654 14.8107114872752
Ti 14.73858678078591 14.586986567210907 10.693229636574657
Ti 10.369283563132077 11.323239978742183 9.93479059229081
Ti 14.930991817982482 9.695766534553291 14.888381487961297
Ti 14.564323608473483 9.659684417845694 12.325629627679739
Ti 13.44871182090769 13.863688410113266 16.03453875496294
Ti 16.3201624699606 11.376704357357442 13.30146499366903
Ti 10.987962146614322 12.898465327338286 15.225261334511528
Ti 15.10550297714716 13.979349591092571 13.690889337780522
Ti 10.09237207851235 13.990751140960041 10.016424259471085
Ti 12.695115439958077 14.057438815916303 12.414845299841625
Ti 13.219106098546321 16.565865966602367 12.43029007749277
Ti 8.422722323526363 12.21337297425762 13.745688095290152
Ti 12.821769644184025 10.859342008630097 16.154241345414025
Ti 12.635462754607508 9.095242468866816 13.939078370358473
Ti 17.141361520977803 13.854815034904153 12.11762754474847
Ti 11.958146067909079 15.466370010454316 14.554510590113914
Ti 9.463588493517152 10.182282027438456 12.085996436063008
Ti 13.367174143461598 11.695455546428413 13.797279431220229
Ti 10.520768446157096 15.835611458148945 12.065564886635265
Ti 15.77025634207659 16.27163167485298 12.304896677613165
Ti 15.326570302965104 12.047801179828515 15.941433776365553
Ti 15.024576329337384 12.133792114926404 11.310070716107987
Ti 17.52677519064072 13.159234091274085 14.736660165895982
Ti 8.339263424171854 14.36010494560988 12.054722789436086
Ti 15.921135212840872 14.571852269207165 16.24392696532952
Ti 12.332658239348495 15.390806714012323 10.146112362975927
Ti 10.75627161732666 10.675917906389461 14.330015872482571
Ti 17.133616324201576 15.621369729756548 14.224066870358355
Ti 12.625679765575873 12.75829640081572 10.00850487629762
Ti 10.479144332355341 12.656713714820155 12.341357207527864
