32
Energy = -208.72309189 eV
Ti 9.398905046575111 10.296878265070244 14.440931934363103
Ti 7.168475858073223 11.97655017534192 11.243814881377993
Ti 7.807356355683264 12.103025877222152 13.733825786788321
Ti 7.837688525296269 9.572918106061213 12.514541613080782
Ti 10.712898656039895 12.579613099790945 14.335200217285077
Ti 9.570537679766145 11.811115337822194 11.911825030314281
Ti 11.740810237481044 9.74628072079987 14.910004399103062
Ti 8.961968134665605 13.497612862995721 9.704473138118994
Ti 11.10831228086065 13.89791725871493 11.475355941263427
Ti 10.377143903910822 15.735958679773075 10.26070339475201
Ti 8.186584304889372 9.798822920784787 9.852062351964285
Ti 10.324060357056412 7.997483969280456 13.40037926391451
Ti 8.892161744894029 7.478818872218416 11.023688169960225
Ti 10.4255938587641 9.48511589904858 11.276638782207483
Ti 8.522194701009868 14.211104709537459 12.125300691739227
Ti 10.337232160139825 8.377299027727618 8.947925532791226
Ti 13.245937017821058 14.799141146324313 10.146601711625578
Ti 12.725053394298126 12.073653726047032 10.25197692221136
Ti 11.504866845246111 7.171398179695054 11.044831687427646
Ti 11.96777093905984 11.060141124278884 12.684749836712141
Ti 13.469439354823344 13.413016008763831 12.656015636602351
Ti 13.886213159049735 11.104048624774768 14.2554193599611
Ti 15.363563308296122 12.979933367267389 10.407947885307669
Ti 11.361661438435029 13.772077364495967 8.548198226728505
Ti 15.645498619780602 12.861927283488814 13.015585642366464
Ti 10.338705846701037 11.17251885170296 9.134869942725285
Ti 13.951904395651097 13.225365533061074 8.185870711224396
Ti 12.78818375028915 9.308763902042807 9.914205181416524
Ti 13.008035409330864 8.622831680269273 12.806849265241613
Ti 14.776863482684044 10.693056359812692 11.769086310593057
Ti 12.486767173088493 11.104665512602198 7.792813168230152
Ti 14.77435122229497 10.860241261472705 9.061459150758424
