31
Energy = -204.06103909 eV
Ti 12.489172581393513 8.748941049198013 13.70864697047807
Ti 9.89459697184728 8.268239528029683 13.172963946800424
Ti 13.162355952833323 11.42121959838994 13.769355784736508
Ti 10.453323097883887 12.871257551471642 13.791768583031509
Ti 10.787052157578069 10.336710772713419 14.824717686537095
Ti 8.66178088647427 10.725585318110863 13.368383265366464
Ti 8.196920204891509 13.123745960418477 12.520890755689134
Ti 13.942254986660053 9.56765955137187 11.673859138360687
Ti 12.314681875548237 13.687532708751776 12.472601144900237
Ti 11.853919493515805 7.6099065918647115 11.432125271169332
Ti 9.18274285475586 7.138074097582503 10.552591335304363
Ti 7.603654919467218 8.75162181425551 11.96641100647637
Ti 10.02810401889857 14.752034964965498 11.38214519780418
Ti 11.462572112620805 10.699258165214191 12.331421434542051
Ti 10.270970512807176 12.367695089633303 10.845617683337505
Ti 8.022738665064793 13.53503296993238 9.993845680277035
Ti 9.7272501446916 9.476248715693727 10.594928935120489
Ti 7.284559547165326 11.171004031247936 10.969250369441177
Ti 13.758303767546114 12.217247524316017 10.969251475600267
Ti 11.721697360127608 10.42856555875431 9.468887524976681
Ti 11.276586214152426 7.600162492299071 8.801392047874572
Ti 14.39245933356162 10.553866391262863 9.145448523482067
Ti 7.458430520064968 9.060313935000215 9.380867276475106
Ti 13.485746975775381 8.227561205777143 9.489488495868736
Ti 12.282735571486187 14.198207536314456 10.043898568597346
Ti 10.220638176741575 13.645805418483192 8.546981153591577
Ti 8.499351491371904 11.383290099986255 8.528316281341846
Ti 12.809856358857832 12.454190841432972 8.190365474902215
Ti 9.672312537536941 9.06816331831391 7.798716729956515
Ti 10.621596764103085 11.45472897068174 7.102386317389447
Ti 12.607822988812222 9.629695678130492 7.336919913482466
