37
Energy = -243.37361312 eV
Ti 11.650424991872564 9.835206346779024 6.157280120727189
Ti 12.863955567209066 12.118749850345315 7.2865624851975666
Ti 12.184585777917482 9.85657997378804 8.490520525078345
Ti 10.41246804831796 11.771218777583623 7.392490796853656
Ti 13.169316161782934 14.446847148549518 9.530154864156614
Ti 10.404823158031446 7.671916378174565 8.910937869402705
Ti 9.387087902366638 9.449577813029798 7.598473818764458
Ti 14.511668602521324 12.239543523511042 9.456200260163605
Ti 11.73988268147885 12.156375716243392 9.820694917597322
Ti 13.627508065786257 10.24156647625266 10.963194898088968
Ti 10.266010315948874 9.943071108310264 10.237325323859043
Ti 8.23643546130304 11.38779943109819 8.869663725687834
Ti 9.748843887372107 7.426499325209136 11.41457535986178
Ti 15.451408371939687 14.19975133666198 10.970828935000176
Ti 13.655600004730386 15.53721573713277 12.019481033621444
Ti 12.186645430541187 7.761745735058258 11.032693367431559
Ti 8.016063223326553 8.862259444761618 9.980148091485141
Ti 8.306387321216205 11.41803716816115 11.391978520530927
Ti 15.732395619573333 11.842941557273504 11.881257010978524
Ti 8.825718137742353 14.12750979640881 12.65772491974195
Ti 13.212882981737081 12.865463784411366 11.887320853382358
Ti 6.9665570672821255 13.470402375245216 10.810761735922496
Ti 13.6667538205032 8.436754251597934 13.071721548408243
Ti 8.821678028139432 9.31516836790392 12.92377130667496
Ti 11.236741949554329 14.842215624458992 11.436320159004485
Ti 11.638434408486507 10.016315832251642 12.656377086987748
Ti 10.581742593354026 12.295589919873565 12.710745206068788
Ti 11.026403805128465 7.831181581807057 13.728228546290367
Ti 14.921871650624679 13.771233477676875 13.607081334016348
Ti 9.431672363835517 13.499002925051226 10.009685240285563
Ti 8.099881210683074 11.823856323474905 13.88036442460656
Ti 14.095326274502025 11.035177592640753 13.693915466182808
Ti 9.884757904789911 13.079587772665173 15.145377302647699
Ti 12.042677760093019 14.419623003573713 13.84383565854211
Ti 12.527641333252685 9.461700505948535 15.182263403224539
Ti 12.196425947511 12.050601365412621 15.113784034607281
Ti 10.070393534148476 10.323339391771826 15.059058262516933
