35
Energy = -230.98129798 eV
Ti 13.527211497384487 12.738727479140087 9.175795902412382
Ti 13.496524539464302 9.728037870068988 8.283380989911041
Ti 12.698456631698727 7.193352630211211 8.865631820710151
Ti 14.859376159910349 12.985393067946132 11.46380855214059
Ti 14.0801604857219 10.787514762557477 10.816038856432638
Ti 14.344259173227126 8.281784150011482 10.356039231013067
Ti 11.295166800915231 14.335186201601678 9.34745129139907
Ti 11.302245486738519 11.507288137542188 8.575114780256635
Ti 12.286391975236896 6.983138685322162 11.559878750309817
Ti 10.945049463791694 8.934383013122702 7.830604897661466
Ti 13.503949160447403 14.978191942069884 10.530705845496245
Ti 12.070457734757841 12.822793110165497 11.627438100991919
Ti 11.823409527543527 9.340593994865323 10.25835621093679
Ti 9.344811019846494 13.420265962952666 8.066961048109775
Ti 8.43072828882599 11.075773836196369 8.142198149129014
Ti 10.342762693284904 7.112845784555517 9.719565652334172
Ti 13.732888040750936 14.565521742779767 13.022811825485967
Ti 11.30570115075125 15.386094280191772 11.945874499531017
Ti 13.826830548407823 8.978411109441533 12.899119726475922
Ti 13.559814984652869 11.865401472947148 13.707015654239527
Ti 11.797159562267405 14.025154441826018 14.177700805269248
Ti 9.690037266507144 7.919219017527981 12.190533977934201
Ti 7.116077429807495 13.11905859542424 9.25059885430036
Ti 7.2895212976325 12.972637607502724 11.800446256560248
Ti 9.113891699552589 9.363516855036973 9.868406159158209
Ti 9.437298530719303 12.087104993086772 10.44316813303081
Ti 8.876205578161292 14.713557284471136 10.517089818327534
Ti 11.33656893288285 10.16114785855519 12.64548930097772
Ti 9.529635751231897 13.581974667262264 12.919637031183035
Ti 7.0386064588934465 10.82200390569288 10.417010743188241
Ti 11.700834356805458 7.738003527425132 13.926018543462394
Ti 12.36634052393159 9.877109771122928 15.054632162053831
Ti 10.709451007919398 11.812800487948468 14.607310664705858
Ti 9.784569012368227 9.283596075466624 14.55286048866212
Ti 8.683450053047117 10.721812308793199 12.64300362883849
