35
Energy = -227.57446908 eV
Ti 13.843401562586523 11.732026133457016 8.32587307990282
Ti 12.194508417732884 11.944075874884108 6.262352680773811
Ti 12.363442232477157 9.535770313862196 7.335256576235544
Ti 10.700346855054997 10.231451557627151 5.403308193799943
Ti 14.012657342267829 9.46386099111665 9.437786725951522
Ti 11.659579733770173 8.229744704999453 9.847890863888077
Ti 15.426804641557641 11.458736782257798 10.59245830373584
Ti 13.272715676860665 8.069804757612825 11.976052372803693
Ti 11.655611049617093 13.468981132622067 8.23731334483467
Ti 9.820003447564858 11.68495798481037 7.307179711389368
Ti 9.91209154142878 9.088566680935534 7.903835678537304
Ti 11.408084090238649 11.010624661233843 9.390217907304026
Ti 10.663717830419824 7.459829778984061 12.36390628922618
Ti 13.14949333396551 10.647248413269695 11.709556961536371
Ti 12.354214238667618 6.848353012351977 14.28537699250614
Ti 15.004057905176689 12.593311527840553 12.315324049170142
Ti 9.176348204353355 8.074416688625702 10.26160605175548
Ti 10.458727025388553 10.081221366505584 12.108151869705845
Ti 12.873050403276295 13.04103195952667 10.607544068897932
Ti 8.620308798624905 10.466073380586394 9.858000879697807
Ti 12.379320556487501 9.389963985144187 14.026364402300315
Ti 9.889069188986385 8.714099533164314 14.428641890983865
Ti 9.529782620399843 13.05102676354554 9.765464452572042
Ti 12.964375058345349 12.249142351164053 14.010511823732166
Ti 8.046196186574326 9.10037783579405 12.282626413547169
Ti 10.651563047840106 12.827469947901191 12.382337871041091
Ti 10.950395367396517 15.052860308561982 10.79905036141187
Ti 10.66366891216875 11.334289641027711 14.986451834317792
Ti 8.374875993515497 10.794307621790592 14.138422971058965
Ti 7.829182435003495 11.896437477416175 11.960867475819418
Ti 12.748751273248295 14.603002936933255 12.808487389981764
Ti 8.539774115205407 14.415817560726108 11.689329687311727
Ti 11.30436988465528 13.904189578610273 14.889810207762956
Ti 8.743242843207318 13.342523570000738 14.166977342904604
Ti 10.216694041818204 15.407045848851958 13.26788340920142
