33
Energy = -218.25090085 eV
Ti 11.222561838883507 14.300961803051994 11.413632995856275
Ti 11.997231094565675 12.610054079855882 13.346679406228212
Ti 11.939362047177385 13.488589197667483 8.944980257306568
Ti 9.418951383286048 12.94936609246669 12.625600675627464
Ti 13.4886981247976 13.38767072189646 11.209934756384312
Ti 9.361061643199168 13.702694015418247 9.697207596313207
Ti 11.53334925245121 11.5907375577075 11.056096223658935
Ti 7.60305460601933 12.309952348704506 8.353160709950478
Ti 7.156283475417888 12.26694885179466 10.80774179594286
Ti 9.91385828395879 12.623647277741682 7.092420675956296
Ti 9.96243013700949 10.603002687348985 13.85555773672894
Ti 13.766805396212932 11.408281199283016 9.47558688250135
Ti 7.551408328676257 11.438756912337489 13.32318540000927
Ti 12.250952400419052 9.462966427469926 13.010595395041443
Ti 10.016072653771664 11.100647684256932 8.921874823186327
Ti 13.935354664537263 11.171226146163407 12.270822244092914
Ti 12.315648240240035 11.457167080509228 7.364172356081651
Ti 7.8247753692511415 8.932393869482937 13.449021487240508
Ti 6.254462354422316 9.941142447759315 11.712699794766328
Ti 8.917698474356825 10.232194413920464 11.316917059301801
Ti 13.868506133699473 8.977518642688281 10.79687747685254
Ti 8.261476252953317 10.372792301099238 6.971915538718333
Ti 11.194953842690522 8.87965587204181 10.160455652703298
Ti 6.975481424377677 9.879956950597444 9.274234092481425
Ti 13.040595537741734 9.071722700167552 8.161033920523456
Ti 12.331340503021199 7.141911573563093 11.964653231766825
Ti 9.995600708353683 7.926826039374561 12.738279322886711
Ti 10.677487007325782 9.589907756378846 6.778222864162257
Ti 7.803989645364379 7.8396022755637995 10.964326018949047
Ti 8.805527534718445 8.180595254338678 8.495412574774294
Ti 12.804606669054255 6.835061660419701 9.582355404424803
Ti 11.03375151126513 7.266545233930299 7.904304109526667
Ti 10.204324688658913 6.487164152877529 10.387702747932693
