36
Energy = -238.4932661 eV
Ti 8.943781476633008 10.976333491233017 14.934587361547417
Ti 8.028357140190428 12.893129529597868 13.39654198875175
Ti 12.273927273771731 11.712465612176388 10.904210283928053
Ti 7.389581985798948 9.339306198305216 9.644847946519086
Ti 10.39037279680537 14.90393905644052 10.25964785091271
Ti 11.717969842873003 10.057548953909828 8.603145218113387
Ti 10.630369252268105 10.638713733020769 12.894633849531093
Ti 9.396619102576075 10.3877708709323 7.343463054782792
Ti 8.462330313097851 13.003299593527926 8.987922089237214
Ti 13.519647643619047 7.627534371967835 11.229612700805763
Ti 14.408257527843139 12.430148073895134 11.291796779134545
Ti 13.669762539111272 11.916000607974398 8.477481805071484
Ti 13.404708964736757 9.8836083817434 12.781741741893612
Ti 7.0660250275256695 12.020658500700405 10.90907935595477
Ti 14.232603572296734 9.693806275310207 9.835423526379724
Ti 9.767019715876197 12.685580308393732 11.370094044633024
Ti 13.756924150751296 9.513313906953337 7.131976200389826
Ti 12.801444496589047 14.051824789776605 9.715610978099862
Ti 9.04492856287702 7.869017708105232 11.560179273554603
Ti 7.881993561929411 14.471559634315353 11.156722778842687
Ti 11.385949299889216 9.07641953033086 10.986680403833883
Ti 11.869485978276105 11.197273579621958 6.3455776068998
Ti 7.798139112210052 10.189767996082523 12.518483217146692
Ti 10.82764841391657 12.629856845090819 8.435524953922782
Ti 9.795563311175494 7.960121340178917 8.759571579375534
Ti 11.165830764433906 6.551768770365875 10.683370237752769
Ti 11.53400349000434 10.152689673376067 15.07019577157189
Ti 11.316395233366242 8.59487959144447 6.539526828714077
Ti 12.704434596701313 7.558794065398118 8.669158790002426
Ti 11.62838860393514 7.772708837581131 13.180448782804671
Ti 13.03046160682956 12.110077137698214 13.768050974542232
Ti 10.662507459061105 12.957822541052769 14.393399296111866
Ti 9.347116190391857 8.656478427344425 14.07517775740146
Ti 9.733735912872467 14.90932262800564 12.854918917931482
Ti 9.28055945344565 10.516705612917853 10.051364333967726
Ti 12.19964805574471 14.156246254655342 12.30632414936159
