39
Energy = -259.27917531 eV
Ti 16.19853321396155 12.272577045084708 12.897309848654382
Ti 16.173714583675856 10.714716699118833 10.886114276045845
Ti 14.610444614747918 10.032139541408284 13.073389735562676
Ti 16.094667970251418 13.24164938735235 10.454471370366587
Ti 12.967515917489388 7.971149637846817 12.297377500080607
Ti 13.953654210656984 12.639745024912836 14.13364262667223
Ti 14.309864712559868 9.20597095355225 10.336246100693561
Ti 14.78781250094991 14.418848384749069 12.35509885168788
Ti 11.37425543433505 8.607266473585335 14.20174570664334
Ti 13.875150201720324 12.043382887173763 11.468428272365934
Ti 14.468247508196036 11.738606689913427 8.909286890023202
Ti 12.024711654039518 7.740332309360296 9.836979276294299
Ti 10.431918233723206 7.137336255829619 12.040304733897273
Ti 8.892360398784584 7.897947693095602 14.167682999007853
Ti 11.88752122155975 10.049162894749056 11.081711886535528
Ti 10.399327689641552 12.958761871488244 14.289463737498723
Ti 12.020988911000305 11.039216835042463 13.6059264277882
Ti 9.435053801794577 10.502474372598742 14.85155035885522
Ti 12.08719593645197 13.905978121933819 12.379423020570274
Ti 9.577488277009225 9.660977512885724 12.345205934231265
Ti 12.12506506528109 10.078340881379837 8.516410104862699
Ti 10.216374307104813 12.22089975638681 11.642948007008428
Ti 9.53341256463296 8.4980441662212 9.783543693673181
Ti 7.1965602053407105 9.689256710753147 13.536758128299205
Ti 11.881569374812365 12.7137525554643 9.266067449607764
Ti 7.7757147342239 7.908804800847119 11.695411732548601
Ti 7.980526006502134 12.207016819290407 13.289715793103353
Ti 13.723737538926134 14.270603853770995 9.927297559505794
Ti 9.35370537625809 14.502651618971235 12.675595037252917
Ti 10.388281787679798 14.63823462925413 10.376334984737571
Ti 9.50087584093762 11.122004386041409 9.171730834579542
Ti 10.902855488504311 11.798158541479765 6.959737806015623
Ti 9.865074600166169 9.354135281163806 7.161698775571945
Ti 7.372792105216651 10.590652271678305 10.971700398792219
Ti 7.915617716638879 13.418624198129697 10.690118281965134
Ti 7.494438880275523 9.512282519574761 8.369141613476652
Ti 9.205229575465923 13.561839514624321 8.257767408103964
Ti 8.35095527113006 11.443539060250565 6.725727336378989
Ti 6.978513416975691 12.02464469165876 8.70266234966366
