36
Energy = -238.39364535 eV
Ti 14.007129825323068 8.879185396522068 13.033932099906377
Ti 14.773167335813385 9.219578801587078 10.68455698627288
Ti 14.623181915321695 11.350767788234906 12.32809084184722
Ti 12.714265301413946 7.624275917767149 11.062766834950823
Ti 11.733577884504722 8.152091528222822 13.775152679823083
Ti 14.413102056179808 11.397653649536196 9.44999735218127
Ti 12.477400102616961 10.826687535766307 14.05942188403386
Ti 14.364900242194205 13.550402205029885 11.070742077895112
Ti 12.430908257945758 13.209330897968652 12.758799000029628
Ti 12.437351066209356 10.389969032393925 11.332487851649384
Ti 12.952815334887035 9.1598081551938 8.771292280870913
Ti 10.625783516736982 6.482919403002557 12.114466003915167
Ti 10.148707529256484 9.886771575140273 14.712165134897056
Ti 11.81129441642878 13.032762594026636 9.958296051713535
Ti 14.086565908881656 13.87226817757948 8.657035292557978
Ti 8.853121936175572 7.722754438011298 13.765209270723016
Ti 10.114442798158437 12.401548916127394 14.107021608042078
Ti 12.620315898789869 15.409875228996306 10.351448452314076
Ti 9.85384894744446 9.09868788915352 11.938913608472403
Ti 10.284320560923472 14.438225220830528 11.901776121924964
Ti 8.452410133986875 6.941735328063023 11.179884446128618
Ti 12.048326720700121 14.561880930926076 7.756622549911005
Ti 7.975251710288469 10.64636013399364 13.631307570828799
Ti 12.467151706920564 11.766754055590445 7.599597046006553
Ti 10.2244638217442 15.182664215078114 9.311523182531209
Ti 10.5908850394486 10.528197324891094 9.408119212604394
Ti 9.869994345950452 11.752488475475499 11.592595766457457
Ti 10.537206234011995 7.671147174960414 9.573996038031325
Ti 7.968346196176349 13.145827083442255 12.604790096080514
Ti 7.081625266312927 8.8058718299328 12.00241407754524
Ti 10.048633626406287 12.790006963787542 7.736384916324156
Ti 10.054999430027806 9.86728161298749 7.429043618809259
Ti 8.220674305920578 8.951906809882674 9.495045470835237
Ti 7.247968829626278 11.119489504304573 10.990596286349943
Ti 8.499011922094223 13.48659019702966 9.98885360290267
Ti 8.066506899441931 11.355891032827714 8.545311708896572
