36
Energy = -238.96853183 eV
Ti 9.071214867230847 8.410987965470294 14.06408282233794
Ti 10.042712041298474 10.904479939242446 14.2080035227612
Ti 7.428953597149093 10.253329974203824 13.082020634251114
Ti 8.827662376299104 12.659037360435123 12.50828583777683
Ti 11.674643273491428 8.575653188012746 14.02919851748686
Ti 10.983057641633375 13.423281051822583 13.94226037009991
Ti 10.213434992687013 6.7562849769351505 12.435194859957825
Ti 12.810086610941608 11.48372602437216 13.948106307575344
Ti 7.852740955848499 7.913703034141908 11.725636471773504
Ti 13.521237312346203 9.48921080836592 12.437023569462097
Ti 6.527478512078774 12.11853379228938 11.206152381812316
Ti 8.632015822427965 10.596753806887431 10.640305454388917
Ti 6.095504514798359 9.685139520087459 10.82030533356544
Ti 11.357733052473288 11.898738868684946 11.876456369301755
Ti 12.571980598553544 7.447225068760556 11.594840307265391
Ti 10.752223776290732 14.558557899184658 11.511252713668146
Ti 10.367933701931793 9.30428796911345 11.940271487757027
Ti 13.102030397597455 13.781066581233102 12.600974523787919
Ti 12.943350436133093 14.029625939311853 9.987174144558741
Ti 6.963549201044846 11.19245266922063 8.754106583401574
Ti 14.028724774576789 11.619273004788981 11.287877143162277
Ti 11.086224834534638 12.180773130828204 9.383900414782492
Ti 13.688041196915108 11.55827839412079 8.673413718840301
Ti 11.957783225172307 9.566884176470735 9.590876260383611
Ti 14.421917503309437 8.864500924539689 10.039022388538472
Ti 7.542444433874616 8.602957339297635 9.049035581506208
Ti 10.565203191353506 14.719270407128075 8.865969208234834
Ti 9.963579887815982 7.643916268144981 9.82288446772892
Ti 9.464051032949627 10.105009798003106 8.11231905096913
Ti 8.54961219426572 13.287784902941931 9.884888403883796
Ti 12.631736562266555 7.0071806222319575 9.036640646107044
Ti 11.704103270459807 10.85133654135325 7.046666679718707
Ti 12.228424007805147 13.488547558779748 7.431283232396704
Ti 13.588428307484444 8.986415946732803 7.5911359920257375
Ti 9.582106322183435 12.754942431787711 7.381574529673324
Ti 11.126035886084424 8.148812428381067 7.358820382365492
