33
Energy = -217.87087438 eV
Ti 8.591350790940652 10.616128406060474 8.136610295679198
Ti 7.239909202668923 9.582240086626594 10.34454574142606
Ti 9.974641204034354 12.764267852060343 7.626847435443808
Ti 8.764260940911 7.577420012899303 11.36357650465292
Ti 9.751361103030193 8.905110203077163 9.375347082708974
Ti 7.204080912763633 8.954171740063872 12.9515238348797
Ti 11.134985034936935 10.077497325315687 7.381127832479131
Ti 11.444775496322437 8.195510201281495 11.819070825299242
Ti 12.009140753414377 8.000289783200948 9.018262691500547
Ti 12.011363689894457 14.151368578707828 8.652547826811501
Ti 8.197729385777262 12.219309663358088 10.117762184543063
Ti 7.02364713326991 11.36475998196698 12.306191082265164
Ti 9.434224926960876 10.17277362962752 11.784325761072665
Ti 10.97278509143642 11.8221611407516 9.543605892382153
Ti 9.508391077531252 8.256926541957021 13.744679663167078
Ti 12.575841520783108 12.116238461421196 7.3085545971051795
Ti 13.84272588666962 9.917266645177838 8.333804420267114
Ti 13.97560521924399 8.168006570517507 10.525231027982022
Ti 8.663533330626164 10.735454513915695 14.302098844523893
Ti 12.514181912696603 10.20853510971936 10.574289420286927
Ti 11.299779589892204 10.152733706966167 14.00447805512654
Ti 14.035648252338474 12.533065413922948 9.416952648249943
Ti 10.111972757709362 14.263873581101885 10.454989620332885
Ti 9.085950530492102 12.904540660887996 12.712781497106784
Ti 15.197983892068265 10.377078682742141 10.57084466769547
Ti 11.806717519238084 12.262059689096368 12.21832264788317
Ti 13.915411978928978 9.756839013540546 12.81033097979991
Ti 11.00259257857845 12.805554984403228 14.681154475590258
Ti 13.36891960703358 11.70195945222913 14.408643966908562
Ti 12.880323153790325 14.4337231308143 11.047397396917109
Ti 10.911143288151079 14.74288137657651 12.87888614075201
Ti 14.55485455275251 12.389517496161702 12.096194847731928
Ti 13.18467492968308 14.067559148699251 13.686895106828178
