34
Energy = -222.52272115 eV
Ti 13.599945345835328 11.620714894037071 6.366295648971621
Ti 11.19551011007235 10.269260203506898 6.924299053308147
Ti 11.600600023438748 12.832765057166696 7.049583647870866
Ti 10.959662173967132 14.099601012597383 9.210818529082806
Ti 9.282233868602214 12.063498445141809 7.902196789879432
Ti 13.515639569939356 10.420829371448065 8.350968133009372
Ti 8.550933701682967 13.171179620207036 10.432610375060388
Ti 8.847443451305871 9.32392010629935 8.28425821420575
Ti 13.541892204063034 13.113859801339219 8.754074495779477
Ti 12.776848469074098 14.080929303863082 11.344993744505965
Ti 11.374849614178217 11.467832293624273 9.459365770593624
Ti 7.172864512407259 11.314858026798381 9.107995500029363
Ti 10.20255064582759 14.985833406012345 11.468707104294582
Ti 11.393590191366242 8.666059762520248 9.152075309418311
Ti 9.16123850530116 10.37758039015061 10.738624658004339
Ti 6.856667438180232 9.10314330396509 10.094922984212035
Ti 13.757520777828963 11.513447180568562 10.983036783473713
Ti 6.935304753414509 11.29756252730095 11.748123006732285
Ti 9.141588331155818 7.704528993879332 10.429592969669327
Ti 10.813381857038236 12.378747734338534 12.025464776660801
Ti 13.834812701993922 8.650348284848056 10.693443952948636
Ti 8.794733332918323 13.54915466742208 13.19779842723317
Ti 11.689757115883591 9.751512431982409 11.722441599335486
Ti 11.332899018773723 14.527661661684037 13.583728648283438
Ti 7.620708785710264 8.829866168220619 12.401370171846697
Ti 11.789710206188905 6.969025375042877 11.296530801141671
Ti 13.067427582604104 12.458889116882721 13.48802366978131
Ti 8.92058433997431 10.804336295012797 13.63662252366387
Ti 9.978017869036576 8.191933630636054 13.055757976297937
Ti 14.131913144331616 9.809058924729339 13.126884430164507
Ti 10.648554889699453 12.49669213483404 14.761105810136199
Ti 14.431107822616061 7.115224783696427 12.302584044611121
Ti 11.641077924469064 10.208695468413593 14.354505418724171
Ti 12.492369080935013 7.874863419458111 13.609345808326973
