39
Energy = -254.82049301 eV
Ti 12.55080565891543 9.691881793978636 15.683210165975481
Ti 10.503345066183178 10.211350988931736 13.693441982510054
Ti 8.42129992161308 10.143066938717821 12.192991849976234
Ti 12.446700029577174 11.187778976188268 18.077057131926164
Ti 10.895144933973777 11.502665231574092 16.062510150599117
Ti 12.796646161819334 8.887452772467114 13.097141760907657
Ti 8.537965239354333 12.184762212286973 13.821764598081923
Ti 10.85471408552384 9.318082665605202 11.078935888939638
Ti 14.897256476108899 10.326830686563538 14.775551507982357
Ti 13.736444375347764 8.504450853378485 10.81225602208949
Ti 15.232998188424114 8.24429518889763 13.06668011091017
Ti 8.258532616387923 10.812258355834812 9.78672910023127
Ti 13.684610332781535 12.304161875551623 16.282801228379142
Ti 12.738970451654465 11.61926363434977 13.695354799354073
Ti 10.24617831869238 12.1739258165568 11.646125437378755
Ti 10.672770890673291 11.20709772448026 9.160738976909158
Ti 7.471324684987535 12.475575189190568 11.495420217831144
Ti 11.61381460328234 13.552324520557057 17.330025963884477
Ti 10.474677816117735 13.595756042448865 14.405560489398635
Ti 12.524097111966269 9.618234805219421 8.58078974736515
Ti 12.09403873925204 11.526199411757727 6.811373720798013
Ti 12.84448570463962 11.082067669573643 10.98932006102587
Ti 15.267961978470236 10.653514275454677 12.318982077748192
Ti 14.268089757222924 10.086988015207517 6.929078236793409
Ti 9.006611561500959 14.483481427471268 12.327520756250374
Ti 9.010451930953261 13.477046617692304 9.629848866698723
Ti 14.936054999482543 13.119089591566588 13.671538693846225
Ti 11.718255157926626 13.408536496448617 9.306620574513415
Ti 12.788593591923897 14.188572075995284 14.904712436395911
Ti 12.52543220995001 14.103144402253555 12.222378659473238
Ti 13.936306573768885 12.150968512885635 8.411377903213136
Ti 15.131540913696522 10.332336594100239 9.615119920371658
Ti 11.187432396366376 16.074277462111784 13.488086834936835
Ti 10.827400178027611 15.545757671606726 10.67789460316271
Ti 14.752153127282634 12.911499228154204 10.900436882687353
Ti 13.433949696304992 15.11285583871026 9.808949496348195
Ti 15.033784758124398 15.26961415963961 11.876607372274918
Ti 13.92129452223115 16.213043223805222 13.906349695748876
Ti 12.937321395111075 16.815971942203788 11.677458210285499
