30
Energy = -193.04506266 eV
Ti 10.148563872811058 13.134537426762098 6.873378945365348
Ti 11.610141039811145 10.339805710619425 7.627443266277336
Ti 10.213559056430789 8.272711525175133 8.98001335437401
Ti 9.312884898630076 11.133729967802962 8.629456252785698
Ti 11.089767566264637 15.119472861486294 8.265045763549185
Ti 14.000198046927109 10.920034949890907 8.95928071328115
Ti 12.959886264956813 8.492798891236353 8.956544587475094
Ti 9.152106511219756 13.771794636019365 9.20027004578347
Ti 11.656387009475607 12.722069654065221 8.789793803270284
Ti 13.858659306409356 13.746106225705388 9.841866064355553
Ti 11.184320805406534 9.990795951821665 10.24527436607892
Ti 12.61145632882799 11.918540296283929 11.143668874954427
Ti 8.466862359073167 9.86114989521806 11.192814556111754
Ti 9.644150661769213 7.529877263974711 11.55456426811869
Ti 9.637702925944145 12.230259333770151 11.31549929060948
Ti 11.286513410089842 14.371009772046904 11.003753426244753
Ti 15.166287234618158 11.772672166063687 11.268371212985922
Ti 8.095069088934801 14.2280730061127 11.927787450720844
Ti 14.02558381113435 9.388252510506069 11.16329823060573
Ti 13.818858645153359 13.66641911833677 12.529757930693853
Ti 10.99089755272045 9.817560538810302 12.881718319040415
Ti 8.631981332112195 8.505209472872025 13.54126925716178
Ti 13.683042423260776 11.018421290525296 13.380853113051623
Ti 11.973656985137037 7.444632886354443 11.06627463743113
Ti 8.862024187283497 11.310762848597639 13.66741437194442
Ti 11.080102863884639 7.464237336657651 13.77307210008068
Ti 11.530642640614412 12.568886509900928 13.405696199052798
Ti 9.668039840648206 14.058438924700873 13.485801248151695
Ti 9.873644215746722 9.38511398637781 15.368281369907583
Ti 11.138450931594022 11.188066859193897 15.333178797425301
