31
Energy = -202.58536169 eV
Ti 12.407264704391281 8.459328751038933 10.028730531920575
Ti 10.782580246428617 9.107635993005665 14.328556567264
Ti 10.15808427527503 10.204878795686248 9.362627258220643
Ti 14.196198536282159 11.02115049018223 10.344545201347993
Ti 14.349403957581533 8.868116647990648 11.88272847456705
Ti 9.946411877583337 7.502792688911737 9.623228426792648
Ti 11.008499567156095 8.789231010741519 7.3528325386446545
Ti 9.21084684915377 10.906609325178232 6.863065150716326
Ti 12.09906353935244 10.119465917723426 12.257498003077252
Ti 7.687842859069982 11.257968283264068 8.896772561032362
Ti 10.020975411711277 13.049237676877535 8.37280264090875
Ti 7.784247411186396 8.854935540331354 10.160148293954839
Ti 8.395634678959077 8.751432599737084 7.84498015006219
Ti 8.121317011257975 10.944943667144518 11.468607436837964
Ti 11.499172770646727 11.402548494318317 6.995357162078701
Ti 8.782599819616777 13.341162096558914 10.731392571125657
Ti 7.80009553340879 13.189537208947636 13.34826682486175
Ti 11.412345747773994 14.511461265950878 10.493254958796792
Ti 12.78316636999377 12.898976315537498 8.733051264393836
Ti 13.06680567745308 10.203680783585519 8.341985262443481
Ti 9.864504940417687 14.440722727812858 12.66723245954481
Ti 11.345740266468292 12.107609978102133 10.824880081553223
Ti 12.10467346119605 7.534303543950198 12.57897258221365
Ti 9.784066392393672 11.534081422847148 13.195825042435818
Ti 9.725183802756648 8.777479066475232 11.922138032284138
Ti 13.749582357191253 13.399282195007128 11.129201666207777
Ti 12.146066221220716 13.463119207996211 13.227387948406344
Ti 12.086805194991 11.31212383625699 14.72339413291629
Ti 9.909950114757736 13.30668275826755 14.91838793455944
Ti 14.211783003354304 11.480192670036137 12.979710270272584
Ti 13.42876079630795 9.108097000889522 14.283580662544793
