38
Energy = -251.62490103 eV
Ti 11.907446553263867 16.035173042960007 11.418028756086718
Ti 9.300483539239856 16.428004502028042 11.65795949295773
Ti 10.471569079274218 15.079856002586821 13.689784007164393
Ti 12.804679155679466 13.973870215955156 12.738176204693094
Ti 10.288930789091483 15.764462935271643 9.356394228914384
Ti 7.848142101912732 14.495510600908112 12.62169613021747
Ti 13.60929967925445 11.949500726316375 14.586779474358313
Ti 12.231998145474922 14.158121758087335 9.271251825337213
Ti 10.194691286796665 13.913057221944104 11.439495856108351
Ti 8.021215382592652 14.751785254414989 10.061778173201686
Ti 11.195867990144531 12.164780185109272 13.580289610249043
Ti 15.352977621616702 12.942630402972483 13.029876457297513
Ti 14.3787406378126 13.711523076902665 10.673390306558694
Ti 13.453805827800899 11.41263202835764 11.916303125252623
Ti 11.465855453390697 11.913751619252821 10.288154073614995
Ti 14.019549893430552 11.54992374229663 9.056780302863794
Ti 15.222334981339287 10.211697505169834 13.30822963181494
Ti 8.925126051003684 12.541250961877632 13.840031803209557
Ti 15.932735361150048 11.593659089285909 10.984506000106844
Ti 7.3962845126042005 10.637360965501486 13.168116504091197
Ti 9.761432989535454 13.144572333111007 8.77394784666147
Ti 8.195815504538537 12.220196831095139 11.093373753409967
Ti 12.348670235597009 9.744122583389617 13.85785995703942
Ti 9.649756344852083 9.86693307636373 14.608482457663785
Ti 9.90476221723681 10.216508844223688 12.033422965098152
Ti 15.115301010061396 9.219672977420517 10.701908320794146
Ti 11.806118776017193 10.703308450029258 7.935792532915482
Ti 12.071556328553466 9.385035682039444 10.397110434478785
Ti 7.517268036259012 9.675316875826484 10.77971949730767
Ti 9.620481769665128 10.130442254813973 9.136681977173522
Ti 13.479108844466259 7.959135405949108 12.419959602876213
Ti 13.848633247509376 9.083764608143804 8.183135371668305
Ti 8.223107196529455 8.270128873585008 12.912022645455066
Ti 10.728321694772331 7.745157321603682 13.082496078723281
Ti 9.360475694662352 7.836893470394374 10.539967279948794
Ti 13.678765290845654 7.281377975995253 9.866104467739289
Ti 11.389393682886833 7.927718079527766 8.43179474147713
Ti 11.594763867149227 6.676629293299952 10.87466487948221
