38
Energy = -251.54146147 eV
Ti 10.155849043515964 13.938138827802304 15.403720346299364
Ti 12.806114600936882 13.45198252977153 14.760275687780467
Ti 11.064597632957263 11.566826025917766 15.949240429469672
Ti 13.644247473619439 10.976448913002951 15.179973768658684
Ti 11.276161992754929 15.39895393682985 13.54973716888883
Ti 8.698958396687233 11.903012836042262 14.340079988094027
Ti 8.789768673307469 14.496679936198715 13.275606818593046
Ti 14.011306936616357 11.956020672429393 12.761856013593471
Ti 11.68267190917307 10.48484293907594 13.44191340437442
Ti 9.629721433227997 9.467914440800277 14.984454456195953
Ti 10.810962089374932 12.899195056263757 13.073193212084965
Ti 12.956678644367896 14.165921583211995 11.959196851153298
Ti 12.076631292084048 9.027211521304082 15.583097456536592
Ti 13.636972093308492 8.881901531484298 13.347982864318357
Ti 10.50263703432213 14.493746056861685 11.000271371434795
Ti 7.3161018509692 10.164042554589686 10.986254876721468
Ti 9.398536184211439 9.875631804066597 12.298482509090105
Ti 8.62706714582347 12.487767417136478 11.537595086828906
Ti 11.018144678788113 7.904276766890932 13.408525661048014
Ti 7.3193240392053625 12.140439175927982 9.218060022276553
Ti 11.852036754180714 12.027370739449545 10.858331415477997
Ti 11.820751009986264 8.801406040703034 11.13327065584968
Ti 9.5890022671678 10.72027576926775 9.563396454577092
Ti 14.213150312450047 10.075896463025485 10.823126696681307
Ti 9.699508240362114 13.252502752151079 8.487779920860055
Ti 9.139677125681636 8.21872865387955 10.086122357129623
Ti 7.402674040842655 9.571549407758148 8.4932067266425
Ti 12.266688845245561 10.413864521192084 8.876831764453756
Ti 14.241840526176704 12.260185435961148 9.558671890906052
Ti 13.630181207123988 8.044139414810969 9.101078525064265
Ti 11.325883071861336 7.697736237864268 8.678081923310721
Ti 12.198567699255317 13.35806532700715 8.504621752874355
Ti 8.489379985994255 11.418393104802002 7.11117442256181
Ti 9.77740183353966 9.12162374678169 7.256445215107754
Ti 14.839640763516424 10.022164042310822 8.177747150893794
Ti 11.006595130287797 11.559928754388574 6.697234702493553
Ti 12.629819236585123 9.12654146449203 6.729450063965152
Ti 13.57823324570657 11.75215803976168 6.9273948089245465
