32
Energy = -211.19425299 eV
Ti 6.639734806417297 9.669729234691152 11.65664080902417
Ti 9.073094535241122 7.047437607588957 8.93841444640763
Ti 6.971058776182245 8.6107174146639 9.187080051059267
Ti 7.459543616087956 7.148663489472166 11.142118752900808
Ti 6.690706129558256 12.347624038029341 11.900266443340236
Ti 7.023357197517062 11.282510733107879 9.410861534374284
Ti 7.892489653092085 11.00153489598095 13.598185705646
Ti 11.67050629467464 7.672429324696601 9.825311727668032
Ti 9.288093766291075 9.01497296545141 10.567544922492715
Ti 8.97972713420475 9.649408684200164 7.846167721202441
Ti 9.894179332885281 6.613724103182922 11.471827965282992
Ti 10.451531724668158 10.846878171259451 13.630914762965617
Ti 8.10477880696172 13.669375897200062 10.317557107414792
Ti 9.07104946548777 11.383283829448317 11.153100881702647
Ti 8.707504407038863 8.505331594668986 13.13447998567008
Ti 9.123790312556052 13.263923327889652 12.848952453422408
Ti 11.412167177945829 8.630931855876728 12.391901021708557
Ti 11.930519042390173 11.12489637155018 11.218121207027187
Ti 10.711561469229995 13.641695827757026 10.515549490587999
Ti 9.492242953940277 12.261729912464277 8.519505309774756
Ti 11.521771326274541 10.34037532111046 8.9317921978254
Ti 10.771895102413914 11.038897646405879 6.500327127161846
Ti 13.680325407047485 8.73198128378066 8.498130706225453
Ti 13.037238131921317 10.447280281711881 13.485808246842371
Ti 11.440679387689258 8.500776334739662 7.143599664863753
Ti 12.178718046265221 13.00101021599479 12.8968570739668
Ti 13.850601627577756 9.22668501365396 11.126724889711197
Ti 13.256277325302433 13.411845799454886 10.47652193491231
Ti 12.224336607473951 12.78083889821921 8.09900939356326
Ti 13.214813870229701 10.566833878189616 6.877224397397661
Ti 14.443633160866192 11.770812994062151 11.897365786318364
Ti 14.266313223806288 11.263148675149367 9.266571354723219
