31
Energy = -204.4756689 eV
Ti 12.91684464747483 9.240121466883071 12.42858739683985
Ti 13.264270900001312 7.61017085863679 10.280545670404239
Ti 11.103399905453346 6.807200017590655 11.866531224862682
Ti 10.727565195203663 9.057522196092192 13.50589661468718
Ti 13.634398569159185 11.705920482702014 11.802439978339288
Ti 11.72436680865038 11.616211510609686 13.747118475046621
Ti 13.56176596159007 10.204292346969034 9.796919472664163
Ti 11.206947335775718 6.558449540876039 9.124634238976304
Ti 10.889723119055187 8.728878692706955 10.601537113886039
Ti 12.35044131070347 8.634288422881935 7.948731154972581
Ti 8.560786079365403 8.20266894410399 12.373865240986044
Ti 10.954225249881828 11.220068255621568 11.434218821823078
Ti 12.003370258075991 13.621340744957122 11.905627158184686
Ti 8.876781898096725 10.819839480153854 13.294171111154016
Ti 8.766473123946943 6.954723893571558 10.045433388903543
Ti 9.745988965695648 13.241064157827557 12.81127503815113
Ti 6.669427014252902 10.322142913625598 12.035276259005949
Ti 12.879626287802001 11.17312190003655 7.4287321776146396
Ti 10.606775338252934 10.96934478647431 8.764334790265853
Ti 8.5448433888567 9.984427531256056 10.083718796118436
Ti 6.554557520078147 8.301638769417385 10.637890958617927
Ti 12.603105820516976 12.84283775628084 9.44687492685778
Ti 9.69074400238201 8.156817676658175 7.662505644023205
Ti 7.873365645114935 12.487902634875805 11.204066975168063
Ti 7.243332879629841 8.430659798628252 8.223471219795321
Ti 10.120344489380791 13.620374047608882 10.01890710194602
Ti 10.824804331314583 10.116145425202953 6.277610210590879
Ti 6.283753142875957 10.7043118199225 9.363027022922086
Ti 10.623199898459248 12.736240440765942 7.272564451997067
Ti 8.16632107166905 12.592379740274565 8.660322186831195
Ti 8.308533271518696 10.61897717702192 7.233248608598023
