39
Energy = -256.09724881 eV
Ti 9.423987460313029 7.353806709574997 13.562364654229759
Ti 7.835912119072012 7.386438920305496 11.67369787410815
Ti 10.535345971793557 9.517049700555892 14.513970646146593
Ti 10.249007632898744 6.5845044860007915 11.178822667233955
Ti 13.028042228946461 9.216848453525959 15.200598697262054
Ti 11.877500563654527 7.345805073287446 13.179954498599345
Ti 7.93097849240572 9.568432727283618 13.178130311429253
Ti 6.183519628218444 9.4459415989751 11.199025519994462
Ti 9.820463647487063 11.63206441093673 12.822950493776908
Ti 10.50131844993581 9.195887276637546 11.763732095117353
Ti 13.070294179030022 9.692390293839598 12.480737593475501
Ti 14.730950418521138 10.47500220810683 14.479678246486374
Ti 8.430132799395233 9.495611327949582 10.160542358248613
Ti 12.299945146844077 11.57086115624061 14.201835191246953
Ti 10.565621593291459 8.250330761912213 8.809676067843577
Ti 7.500777148190922 11.765823049200854 11.665980431933113
Ti 11.476044221016043 14.08030804097914 13.683674294982582
Ti 12.559122164417053 7.8828935692627 10.600261959796503
Ti 7.048473512094854 11.435136973232504 9.099542595243044
Ti 11.974097737083577 10.492734880328243 9.588332799588827
Ti 9.1432440942442 10.429657674947814 7.6145051967983255
Ti 9.66118725593659 11.961813286182348 9.836437471205999
Ti 13.19091066226326 8.62320863130115 8.160247140313066
Ti 14.578600705170254 9.889749781470037 10.011175732046269
Ti 9.497268172615172 14.1180176537577 11.712383887782927
Ti 7.717210138332989 13.837465490416607 9.906109956431628
Ti 12.035184682121153 12.542436781077605 11.522492699802333
Ti 14.66016821819862 11.86347627670329 12.321382743586883
Ti 14.062382151110933 13.612271042855243 14.223834958088307
Ti 11.53280518873312 9.966719797698026 6.919266037686498
Ti 12.999122846991808 15.972101383988145 13.551698129889827
Ti 8.515498473248812 13.027802017239498 7.597156358628948
Ti 11.00724113482734 12.477540525001583 7.303552575896826
Ti 13.702080179319745 11.214499218459961 7.732137329894859
Ti 11.698527822309474 15.339926711326303 11.224664866448386
Ti 10.104797038576226 14.518463779042246 9.02341570886924
Ti 14.508517669905416 12.411452743497566 9.832877195313793
Ti 13.981954903606892 14.374484455094711 11.688490205807245
Ti 12.634532678793564 13.703810262719253 9.047431939680694
