36
Energy = -234.82183948 eV
Ti 11.513609341997578 12.957374579396324 9.872631830712475
Ti 7.268140350188035 12.60093922465068 8.518176865345835
Ti 14.589219688102181 9.01603176224664 10.599563298537923
Ti 11.707870635042962 10.549027054118207 16.674889472518228
Ti 9.567542641911123 10.870435611238491 15.366902166378486
Ti 7.611443092391853 10.67204849838534 9.955225019717362
Ti 12.787653564089894 10.605062952251258 11.705458202531274
Ti 12.009101452112409 8.336048192737449 10.521395837479
Ti 13.226659317687185 8.289688802471133 12.964300552238806
Ti 11.817233899938678 11.188893617065775 14.089730987923392
Ti 9.017614368649177 10.995733228037656 12.750564939641972
Ti 12.835875380632624 15.16564814805872 11.003386710731881
Ti 12.128969013912661 15.075254932931472 8.492871096496268
Ti 15.089143148381641 10.348422271586646 12.943744024285825
Ti 13.57394432277633 14.624787269710513 15.856116072625094
Ti 9.752876794645747 14.000885125537975 8.16740988591044
Ti 12.812282988404181 10.68327556775073 9.176833919756692
Ti 13.652348513710868 12.015666051203619 16.534995049410366
Ti 13.936115364108295 13.14300399620278 11.83137739167043
Ti 10.518170800178961 8.783085171637124 12.633907580002967
Ti 10.321193857792807 15.209247256940529 10.610447731521825
Ti 14.124269848467705 12.758768907071502 14.258744375097827
Ti 13.793940287574399 9.656241972030477 15.207379821278762
Ti 14.672551368047953 10.791259477072279 7.913833909056838
Ti 11.389213443191947 8.664630201729345 15.001167823417388
Ti 15.320655519137851 11.411675521917083 10.444704316923069
Ti 8.832013002089614 12.885713204445265 10.641850079366044
Ti 14.15209437522377 13.31856512244717 9.031380112514332
Ti 14.613978437718547 15.210550881102048 13.45147736244056
Ti 11.097137739736052 12.973532752487749 12.2433216343537
Ti 9.405916154698314 13.192448262264202 14.031903793311308
Ti 12.166468012817601 12.674846757447078 7.376356317440787
Ti 12.09990455419865 14.757112070161185 13.739371162271691
Ti 10.24597429283568 10.452812722720903 10.619153751203951
Ti 11.278651141903042 13.156267536236099 15.928081909317209
Ti 9.569948013121124 11.464740024126055 8.34106972398667
