32
Energy = -210.73211251 eV
Ti 10.843494548268703 11.811247100044815 6.338276131347861
Ti 10.531478735924486 13.919719059008207 7.756254502847325
Ti 8.498637493024004 12.447107336179245 7.007711614837212
Ti 12.809043391841689 12.353438736629382 8.157583744099227
Ti 9.167559474114062 9.77777944547847 7.21077813911628
Ti 11.991767076063892 9.96143536309131 7.244977884421282
Ti 11.328271945871636 13.624888159557544 10.227113185595865
Ti 8.603909045553763 13.648076459382805 9.383851077545396
Ti 10.111050174616437 11.387720419402406 8.932200696663097
Ti 13.95810139791306 9.868503683643924 9.093248519505037
Ti 7.4545581020352865 11.237484124509031 9.015814684742008
Ti 13.911164551571328 12.45846198186928 10.82189687947877
Ti 12.162486027675582 10.50085789358596 10.279267886101335
Ti 8.633359662368088 9.055165101117991 9.985350303351709
Ti 11.229975006294145 8.379128795410155 8.841758846181904
Ti 8.828858850866618 11.912780788857871 11.279838175813635
Ti 9.925679702899329 14.050565236684388 12.497165571829663
Ti 12.58809702336959 14.198770686272773 12.424545347215387
Ti 10.337904180042244 6.934864610202285 10.677449570681931
Ti 10.444498999794797 9.362947260273515 11.858871388024298
Ti 7.856727244689736 9.989290904285228 12.550083724523923
Ti 14.309957244403133 10.096412949681401 11.811885965257119
Ti 12.85318216153768 7.909513976202246 11.140734613435459
Ti 8.640428356420397 7.615696609305304 12.43532234021442
Ti 11.390711443760502 11.823284176546675 12.469816432123482
Ti 9.204906091995683 11.836748485416358 14.073320311355923
Ti 13.659122542781883 11.9598318985412 13.644620900092454
Ti 11.45264893914697 13.358363971248849 14.561852370138634
Ti 11.157089388877436 7.136396104695333 13.123667281149448
Ti 9.752678435047192 9.142844745803725 14.381427008226677
Ti 12.722870980030018 9.224900499805868 13.615033012135921
Ti 11.565777224987027 10.941768881052846 15.084277335733395
