38
Energy = -252.11829871 eV
Ti 10.417772014171064 9.699627551875574 7.383941132186314
Ti 7.714906342479136 10.889929458414883 7.600702055917201
Ti 8.45573516370989 8.357062187729166 8.386205608247433
Ti 12.395237484831757 13.75023916596737 7.096347639550714
Ti 12.788641163039562 11.231884823278026 7.336817714010381
Ti 10.163021901447493 12.250327714010659 6.976164868995895
Ti 13.916255363277125 13.030158974675912 9.20463549155938
Ti 6.453689006215246 9.350846265909352 9.507473886406453
Ti 12.791786610537894 8.675335709520779 8.25834953473927
Ti 10.607458424934899 7.871605206908045 9.694853675173938
Ti 8.828092230396031 10.693669329459167 9.805013638903553
Ti 10.149369541365862 14.81742626130288 7.853575257497657
Ti 8.450363690243377 13.370726309932758 9.218796076264582
Ti 11.221539621873132 12.999422776896765 9.384422972233581
Ti 14.32379446425534 10.411060862267222 9.523402298984369
Ti 12.414489885298396 15.346348867584773 9.08185853997838
Ti 11.733553790366814 10.447480228447146 9.743402425254319
Ti 6.4249934167898415 11.788502117037522 9.902648953979469
Ti 8.203536121920509 8.031227964298019 11.004906440940587
Ti 13.08356151129482 8.483614924915994 10.947815207550224
Ti 10.202139589389803 15.135765253364445 10.554454825144273
Ti 13.185794937834057 11.722314998553404 11.732704068111335
Ti 10.456761437649755 12.695282248182998 11.903145548459625
Ti 14.661580438002398 9.650124123113583 12.825550299143487
Ti 12.5716260075343 14.228898879430934 11.420602990012789
Ti 7.981993615285873 12.616013113291043 11.765286063764089
Ti 9.973188517247529 9.92648676664831 11.767685519332835
Ti 11.66185466373965 12.549277696109211 14.041807382302387
Ti 7.1686110381324895 10.224132185544981 12.019852891406234
Ti 13.409740756272338 7.405037169095961 13.338233612383826
Ti 11.981278564180743 9.807236555643717 13.318722255908227
Ti 13.767676828236596 11.467389727046728 14.497965014400558
Ti 10.812691082480406 7.356799638295695 12.4534165235368
Ti 9.311609698329873 11.349865463234671 14.02932138963822
Ti 13.713520998380751 9.05154987662806 15.285350943268881
Ti 9.415183323686275 8.876613824594427 14.060898404937184
Ti 11.517161893198356 7.751560297786252 15.035367635759087
Ti 11.38062707367535 10.399993694709078 15.749139425820895
