32
Energy = -210.07132435 eV
Ti 8.352234240348155 9.422011485467639 13.466505806949911
Ti 9.543898482005037 7.177127877694317 11.903135776442905
Ti 11.433416428938072 6.373260823845553 10.043974474369517
Ti 7.560850781874062 8.653838484740993 10.855780943362745
Ti 9.358545849682546 7.7709484032646925 9.176015023642153
Ti 11.884676792135556 7.870339086109508 8.14962838664205
Ti 12.263259316939319 6.928612917520141 12.276041616015405
Ti 10.934001966271879 8.404847387165958 13.72655246832144
Ti 7.9205637354788285 10.113849807535352 8.584199545947351
Ti 9.611872279240767 10.067614228183166 11.826162595845
Ti 7.22055971632781 11.160506496188775 11.130880965085062
Ti 10.246983230391743 9.584125245990192 7.416779204200912
Ti 11.433686883373806 9.014354535738669 10.621574940230104
Ti 13.665420470628899 8.02549804651745 10.197547763179953
Ti 9.9877017029115 11.344011839555941 9.650420731609897
Ti 12.785162014111286 10.184887957713983 8.38827550998021
Ti 7.73189384236388 12.652408739566987 8.876698617816654
Ti 9.221478412730551 12.44262096081762 13.156522050793546
Ti 13.242164622359283 9.297642094631197 12.731388941705204
Ti 8.349995338553867 13.46445256152952 11.097994993702752
Ti 9.842632648534389 12.024868787884602 7.3106310469085445
Ti 11.334574607269385 10.925705501603849 13.770478474865719
Ti 11.617555154663163 12.53408041492752 11.466611972418091
Ti 13.729395292992827 10.798531451622338 10.740970086987234
Ti 13.716035985220362 12.265153270666724 13.115052212149623
Ti 10.00177685587078 14.098575639756291 9.179219052616052
Ti 11.511172849616992 13.489700323207515 14.021336377555231
Ti 10.33343558581977 14.82277266359554 11.95298721652078
Ti 12.325465896394446 12.76558199004226 8.619207651545292
Ti 14.162834195263308 13.30209589734032 10.653552572255062
Ti 12.282394814424125 14.870668100774317 10.03133053476482
Ti 12.98843330979598 14.741274649027506 12.43919448792371
