30
Energy = -196.08269499 eV
Ti 10.652936098969258 12.220404819729502 7.44268251183031
Ti 12.20436951633839 10.143726551063521 8.024866132133756
Ti 10.00450698531759 11.376990269086528 9.804654227641432
Ti 7.38727794054754 10.942986375630044 10.188493410141982
Ti 12.667773610078209 12.856310323773434 8.920778036837463
Ti 9.179957820662958 9.654490326044744 8.317128515120281
Ti 14.577332842385463 11.0634069298855 9.136580909689327
Ti 8.273369562749215 12.459070539663157 8.351440857023274
Ti 8.459111028067444 8.679362115606708 10.927554797571226
Ti 12.573351291146164 10.49813915593706 10.700680147282945
Ti 9.096181786052783 6.8667977562098 9.221612148020672
Ti 14.115891551374146 12.592828561104083 11.464600631535921
Ti 11.091172125575138 8.271509815466596 9.75173470694421
Ti 13.838059052717472 8.578574387934308 9.5203899157943
Ti 10.27645501388439 14.174586537672514 9.32390040523984
Ti 11.110094551245977 12.615416665411814 11.686889185558316
Ti 8.325988493420557 13.38482095651735 10.985769045518738
Ti 13.099778886390443 8.186521165788236 12.066835198550775
Ti 14.95985219274601 10.006186880435587 11.513828258474907
Ti 12.534805932199626 14.635387028172193 10.801959058957824
Ti 10.433223005879096 7.329999445696215 12.08299711644005
Ti 10.374317205429241 10.029931851949025 12.071313396870229
Ti 10.320664941528628 15.043512609856235 11.969902205957897
Ti 8.115002553136577 11.244536007165342 12.706203236702422
Ti 13.194102042387263 10.888428530355748 13.405390438068055
Ti 12.22481747411897 13.614917249980515 13.481870272740352
Ti 9.009832006491722 8.923802272538186 13.793693012093788
Ti 9.340996241527224 13.324378931156707 13.53230775125721
Ti 11.636407331311242 8.847051648853954 14.0670074086333
Ti 10.62561637512404 11.249169750117616 14.440182520171213
