34
Energy = -224.33355617 eV
Ti 14.083176045230232 14.545383458614008 11.184598218861506
Ti 12.33964477268996 13.77022161191917 13.117643838127607
Ti 15.087805051994225 12.10355116027428 10.354145317055735
Ti 12.274972088448372 15.109490712607684 9.123327665320666
Ti 9.568046276156954 12.322361788594394 14.426579754355618
Ti 14.694686487151987 9.498703418648493 10.697556479550192
Ti 9.90968977492388 13.009737583482504 11.871210579027457
Ti 11.744578323688142 11.273870548785291 13.43784162762485
Ti 12.348466519398405 12.797984936743717 10.48365930023992
Ti 14.185049689073074 13.64295254415086 8.621019461804568
Ti 11.419891405773672 15.212177783436475 11.368453780966199
Ti 10.226719707274935 9.819288813604322 14.960223985916423
Ti 7.682795740640462 10.555848937046841 14.62579364610625
Ti 14.199810148477102 11.829302190726272 12.594933124368797
Ti 9.294762924076316 10.29541797647864 12.269618361104333
Ti 13.80793101995152 10.942411415956975 8.496092634956625
Ti 7.468022796588857 12.306894570862953 12.835361672792013
Ti 13.517497665688822 9.212767610529822 13.252680658428398
Ti 12.926008064373258 7.55038437377106 11.284734846067886
Ti 9.902116165359738 13.774388277381604 9.391506487269751
Ti 12.691375341695897 8.573727460624086 8.857622891692422
Ti 10.96800021190688 8.143974376112654 12.936530048308404
Ti 6.76061429719692 9.742189396128335 12.19131995581056
Ti 12.28820641605025 10.072642780037217 11.138985651427213
Ti 8.37802677420403 8.302652389168465 13.957786167557751
Ti 7.83339859871842 11.749249868595141 10.36609466756371
Ti 11.597592142785368 12.925003408543684 7.706518615412758
Ti 10.461616593282235 7.8441806592249375 10.246724302827852
Ti 9.139363828701939 11.305027243045833 7.640450841136234
Ti 11.680195040680541 10.473180811452364 7.154951220232418
Ti 8.414088244480636 7.671055028142864 11.701896721388422
Ti 10.416916161618927 11.0100624076385 9.607917228557875
Ti 8.147474734650931 9.369015197280522 9.691475398663552
Ti 10.097136457114292 8.80003112204643 7.956758943145557
