37
Energy = -244.60864531 eV
Ti 13.69725524817031 11.608812299095637 7.203472024469002
Ti 11.88394530641337 13.387877671768464 6.902240393737612
Ti 13.947951874456143 13.949937083801878 8.659352684995516
Ti 14.388862922176337 13.11741000478554 11.250183434365384
Ti 14.840292474564878 11.303170238023823 9.645833803300395
Ti 11.390525361062076 14.944177666992882 8.726179185702959
Ti 11.026434927831957 10.92052919474537 7.077917451614832
Ti 12.434634553749994 14.801228214292475 11.06034753755619
Ti 9.588206400656091 12.99312071141205 8.259961776324861
Ti 12.902525709271487 9.52827814726244 8.513389329596263
Ti 12.208198559026808 12.311993036915153 9.285135078155887
Ti 14.300316851872186 8.91096670121147 10.644098642176253
Ti 14.664036884035024 10.776495365440605 12.52940172293453
Ti 9.578422997296755 14.65614626936652 10.514777534386148
Ti 12.781491002647583 13.0615885423075 13.304787163980862
Ti 8.569058880843231 10.598292465959696 7.936121948417169
Ti 10.68709274898446 14.802930384237055 12.980138067170595
Ti 12.575051312564655 10.856080633893926 11.417085849078088
Ti 11.94556281751849 7.7513768570896175 10.25785222663089
Ti 12.6809523982901 8.640780398837197 12.838809861021833
Ti 8.498085915945499 13.304009230616787 12.94884332738487
Ti 12.573578090496698 10.79139353977083 14.741552397478076
Ti 10.347853960862583 10.157749691266325 9.972140116931849
Ti 10.095256675536382 8.435323351499896 8.089880963572565
Ti 10.650372401694224 12.68659364720504 11.488507822766795
Ti 8.129193381973733 11.991460704970729 10.245343106870521
Ti 10.568721497423423 12.94666725270799 14.854001465562193
Ti 10.366998356643569 10.733946971308896 13.330516577821685
Ti 9.442015400122585 6.979297971884052 10.149319863498482
Ti 10.963955772296206 6.458211443621961 12.457115010574517
Ti 11.071475726907696 8.46466151424396 14.712526310460534
Ti 8.217633463507749 11.620222187435456 14.757508310602327
Ti 7.943777861174064 9.101374870659077 9.7932461890304
Ti 10.207556997153329 10.53296865732633 15.97114757746789
Ti 7.841478640648168 10.652550756278144 12.281328949850508
Ti 9.832235506519536 8.521777179292998 12.145530733255908
Ti 8.542642680968452 9.084250703777753 14.43805712256084
