30
Energy = -196.08520262 eV
Ti 12.882027296887127 7.671329984321239 9.037999518064742
Ti 10.570893980995898 11.429297017412223 9.99896618673857
Ti 10.27345834648677 11.37475082519362 7.1972435194001
Ti 10.49895145800622 9.195565500670865 5.983869350440963
Ti 11.261073534201108 14.027674309345878 10.668325851137263
Ti 12.014376622382118 10.082530236046125 12.809351426067526
Ti 10.932403439886196 12.468747794440846 12.953601475198434
Ti 10.665233263307357 6.130700700848783 9.065870770043452
Ti 9.450251734727438 7.02123044599761 6.734015397398066
Ti 10.262962681688808 8.714569087798907 8.788519877225587
Ti 9.58390583692797 14.309756685116124 12.899732460506883
Ti 8.162530348838532 9.331901648342926 7.238949315097692
Ti 11.913058305413273 7.284367117666472 6.908040415639848
Ti 8.047348627636472 11.55828195463427 8.841453861790216
Ti 12.54724286692292 9.866385363238768 7.4678144249230485
Ti 9.86900152092566 13.52466464502805 8.593703243190966
Ti 8.111110763882504 6.9712743893638045 8.705263625473172
Ti 9.548469601050309 9.989483812249304 11.681960287481747
Ti 12.434614753004313 12.454937622549926 8.67030214262165
Ti 12.94923756036243 9.98181748697247 10.093910707458843
Ti 8.995625109601457 7.3117514700965796 11.127811317049476
Ti 11.522091096878324 7.9285605771725445 11.22636748424978
Ti 7.451375374451756 9.0471245528912 9.972214290830209
Ti 7.041752132079433 11.206305180606252 11.201960270425749
Ti 12.91105913303457 12.238846758818827 11.276026024223071
Ti 8.531610705889 13.30920215140124 10.906764629825446
Ti 9.789939094546675 10.431813108926484 14.351278988966397
Ti 10.138786871688659 8.125508942931951 13.454696102114587
Ti 7.648720568968058 9.213388953031881 13.000556418621425
Ti 8.128351012903758 11.9356953204594 13.280894261370154
