35
Energy = -231.93699271 eV
Ti 7.67962520562546 12.28440894003146 8.131061486523219
Ti 10.156198592935183 12.844062819264304 7.36579909061633
Ti 9.361968929526425 10.258784610033178 7.624281648263968
Ti 10.547809787284764 7.996745229154438 7.122166910334125
Ti 11.91350725243395 10.126820102782727 6.684986462329352
Ti 8.709563323182739 14.387419452499643 8.990112291486035
Ti 7.351271067260006 12.861162993292382 10.700584725118242
Ti 9.004109314963829 7.9661870158543575 9.268317831741003
Ti 7.459735351006899 10.271143094305232 9.895802166840559
Ti 11.333848917190418 14.351501632443131 9.405691990053944
Ti 13.018416692569376 7.847818577906343 7.488451734612547
Ti 9.667983968081002 11.919707009773663 9.810459836431937
Ti 12.36047224420191 12.016388867101004 8.547308968055631
Ti 11.568372224254453 9.401039319033263 9.365156984394197
Ti 11.39323768769295 6.630350119606896 9.122899354633347
Ti 14.009670002569473 10.049052990638511 8.248880269367683
Ti 7.161445086778828 8.017335786436268 11.166739121253173
Ti 13.71000774373583 8.021235891823993 10.065510403091908
Ti 13.7135906807663 13.346209950016084 10.421111178085525
Ti 9.567301707564935 14.357477378445253 11.505708253136799
Ti 9.275814904429044 6.640315541578 11.652826128289126
Ti 6.9838757167243255 10.152769573424944 12.57913181073745
Ti 9.556022061728493 9.408597552334259 11.77095139481167
Ti 11.455917142956677 12.164024073108772 11.301404769898921
Ti 11.746503320856178 7.062154537052704 11.562268698945639
Ti 12.20833431618268 14.741519296252939 11.93321525977113
Ti 13.710795258313366 10.726896322299686 10.777023569426532
Ti 7.960638912742499 7.874927507475358 13.537243305101288
Ti 8.89654657087429 12.030095560963275 12.674210865317791
Ti 12.802319571131747 8.99566700966397 12.438548992557303
Ti 10.979018494604027 13.349734723708295 13.679961488004096
Ti 8.895253191919148 10.073272803613927 14.366045447628128
Ti 13.38878418371972 12.56111082904075 12.92441423572034
Ti 10.622693295342035 8.033574814982858 13.75480428933751
Ti 11.33220049378194 10.733341288988886 13.619772253013723
