47
Energy = -313.4595042 eV
Ti 15.230868300317535 9.64224238306586 10.633175108964085
Ti 12.589226735563212 10.83633966084383 9.345207783941879
Ti 11.953314385505799 10.191622287131505 14.962709215171568
Ti 6.3849819420522556 11.728829969779667 9.905821032058476
Ti 14.050781409051652 12.108502522959185 14.116637320505108
Ti 15.144814522847728 9.765474030185755 13.314398069317186
Ti 11.145438757932471 12.749313106419851 11.37535958216453
Ti 11.403651759420972 8.006497305034168 13.402772094365302
Ti 9.985325017819711 14.721600616236964 13.04192300586225
Ti 16.093647106276286 11.76669390392669 9.576917032793768
Ti 7.521788952110463 10.339948592354139 14.049839426471994
Ti 8.649618507108794 8.161730869820104 12.667425162590686
Ti 8.484930276224198 12.399270376132204 11.642383251539696
Ti 11.444515753445483 13.345139224326221 8.877195684591689
Ti 15.998057133669054 14.187735640840582 10.455915132413141
Ti 7.926557864186073 10.124870725537038 8.67448054112748
Ti 10.70807978773219 8.718627984443652 8.549436284805582
Ti 8.63429271972604 12.858851309177902 8.771266536494593
Ti 12.712444050888339 10.268845956462014 12.253339489927159
Ti 14.45153069325057 13.070604014877164 8.283977884815142
Ti 10.385163259524925 11.120500794037467 7.638822572436443
Ti 9.888371206201246 10.491362560905356 10.304548688271995
Ti 8.222210798668222 12.932143358575354 14.31137485335672
Ti 6.14945903608747 12.453923984492254 12.519027016622125
Ti 13.379193737999918 8.235316971828622 9.179380929822525
Ti 13.845305161828682 12.943434411402485 11.313521079153803
Ti 16.223306487847903 11.861794320123717 12.066052101224102
Ti 13.047781871252235 14.552452977813003 13.580793736321057
Ti 7.075557089469277 9.785517865209641 11.414738848676098
Ti 14.351276084917297 15.721826237964379 11.722557122270198
Ti 7.507544525636945 14.77581982867135 12.535061418664034
Ti 13.484516543067228 15.030312019700478 9.41536434614763
Ti 15.587533875603464 14.04997540113448 13.148312663496805
Ti 11.294688453750208 12.622453974288213 14.01805845602155
Ti 6.7843378004454244 14.04670768610684 10.314417876797759
Ti 12.807019175054123 11.97368292842043 6.857759583968507
Ti 9.559606540110048 11.20684368748133 15.610158423989153
Ti 11.85692500799907 15.44146156693431 11.348104269972666
Ti 13.862549349491562 7.8472422424149615 11.979460725299685
Ti 13.666668870060924 8.261099034427527 14.57170844165951
Ti 8.614358262966153 8.073935378727496 10.10464724480841
Ti 14.760849325914995 10.260939512150925 7.919652765897051
Ti 9.32742364996543 14.839395890348976 10.42364054082999
Ti 9.513974973196273 8.802998700942755 15.11873664008291
Ti 10.066709405207618 10.405655880892287 13.0607681944164
Ti 11.2142471776761 8.120137581942522 11.002486567020727
Ti 12.514173886722872 9.497447216904295 6.946696955952755
