47
Energy = -314.37657189 eV
Ti 14.804727815422504 15.761077273492802 14.196017425106557
Ti 14.230968139396738 13.95709976339342 15.914726484169167
Ti 12.159163081207797 15.0974995671144 14.274087662959717
Ti 16.280347508542825 13.421361131392679 14.083887054966427
Ti 13.202426163208042 11.708911538543491 16.99957887457266
Ti 15.470149925962916 11.665761060973708 15.869127983956242
Ti 11.381112038380724 13.310525252907404 15.87494019128697
Ti 15.950565984541559 15.175429645947252 12.058425034662914
Ti 13.197466114787513 16.0796030380131 11.988342860647485
Ti 9.414724769593635 14.58457262273659 14.076164691318843
Ti 13.99715670045826 13.609220969119622 12.822123402400518
Ti 13.135147707005522 11.731306466194411 14.378663189413038
Ti 10.573692688232674 16.235941388747626 12.442112285448998
Ti 11.628243689460259 13.836148853740063 11.519242215822679
Ti 13.964425829539513 9.60533198808012 15.51280096437593
Ti 15.729952144748957 10.772751441246916 13.405262816571081
Ti 11.01580702955181 10.672814539354613 15.777118793597444
Ti 16.10710512571652 12.6118480911921 11.44871737749096
Ti 8.939690269028562 12.425780293569384 15.465491690201016
Ti 14.094834584673613 14.481432116317507 10.239149377243667
Ti 14.0875507543659 8.858323547976411 12.992462781578963
Ti 11.19986857062319 15.869264810528877 9.99051479851215
Ti 8.975601760833161 14.579184169865382 11.402708762294495
Ti 7.849202529754738 12.606010320300966 13.137241833123833
Ti 13.100797874677385 11.19621483324449 11.57324110182175
Ti 8.764917715308094 10.255196321122712 14.145455170288415
Ti 14.164551532465085 12.281677352564099 9.348812666521914
Ti 10.573650113208327 12.105234280028847 13.343800011589304
Ti 12.412604120270164 14.328315429142142 8.015054459731264
Ti 15.261937239960439 10.057674375193486 10.72430286775567
Ti 9.738185744880012 14.334649460124195 8.613985868346141
Ti 11.612167066004991 9.280372457862251 13.745057525267455
Ti 11.292783476578926 12.16114390591863 9.22956944400313
Ti 9.11193671065481 12.054325013903814 10.78400522852757
Ti 9.229808763958856 7.948243245319147 13.140935763663835
Ti 10.78141422630585 9.692652123779457 11.366650234590047
Ti 8.022782629427928 9.872292463633267 11.722537609042995
Ti 12.97966349914806 11.816468881607607 7.065216735940744
Ti 10.714696037831304 12.995609416025198 6.6428043589995855
Ti 12.752921044592053 9.921006700172113 9.067714570924357
Ti 13.209151853204087 8.276631348205086 10.824096004690553
Ti 8.784727329951584 11.970135289845812 8.036673165780906
Ti 11.300275699817025 7.009035595034334 12.034124966059808
Ti 9.447654245730007 9.807657596680981 9.210401069174155
Ti 9.04378634001538 7.579454584205613 10.704657407967634
Ti 10.84072080594017 10.419776226186093 7.095173881951681
Ti 11.188725273366929 7.698823477786352 9.416611603975097
