48
Energy = -321.45596924 eV
Ti 13.258902126793393 9.987596870299482 15.993343367961916
Ti 14.224260665952979 8.028055288167579 14.55124482680687
Ti 10.210393606394424 10.266884843179618 15.878077415887669
Ti 7.932010586267886 10.80279592931898 14.430907866981117
Ti 9.008401719707445 8.560429259106728 14.351595448683932
Ti 11.611324067403222 8.374955506380788 14.606042790783635
Ti 13.047339267318822 7.668410519118854 12.311510918262982
Ti 10.194537933698872 7.784780991925984 12.24459540406547
Ti 14.616450395099218 12.200190268091465 15.026851875615323
Ti 11.950377512286995 12.286104640168425 15.12396073361371
Ti 9.492370750242294 12.732236781546558 14.90116937452095
Ti 15.47109082636236 8.903736283840681 12.35996616657905
Ti 8.388607602178308 12.409737711497467 12.323889231481989
Ti 8.119982710392785 9.537081959909305 12.099528982875267
Ti 13.533015009754175 14.503786861164688 15.264200238772206
Ti 11.049472890105163 15.07280708231057 14.896755882721692
Ti 9.504037746724624 8.009500089581493 9.692456998872226
Ti 10.409948341187038 10.670474316177742 13.130574105770558
Ti 13.881011683223406 8.064141428466055 9.805772800204371
Ti 11.687737797376162 6.627917049763114 10.347309890232296
Ti 11.647830829765036 9.408872976653758 10.451509769476683
Ti 15.740761601967641 9.94360619165446 14.759185236559386
Ti 8.482512523909703 14.822271552820391 13.740465438290498
Ti 13.39219239002494 10.351873929974072 13.284173080320084
Ti 11.776069440011964 7.7062623428362835 8.182088118613347
Ti 9.4346167363548 10.935896491255361 10.245030410243585
Ti 10.61614883453642 13.783831750322223 12.554679614905783
Ti 15.402714662528853 14.611961743023343 13.370689329151668
Ti 15.727087986352023 11.652248369332705 12.71164616353377
Ti 8.483651802094771 15.10224100496361 11.36228349745111
Ti 10.33405168871676 9.66270939687059 7.953913510423439
Ti 13.348562206525953 13.18853994815435 12.87838155053951
Ti 14.290310663947354 10.75655659790022 10.66270212122306
Ti 11.855705172986301 12.05923459977135 10.930046171723818
Ti 9.993276727209334 13.725225186258225 9.740543340204585
Ti 13.048246574263654 10.003330142737308 8.151296225065584
Ti 10.357887518833323 16.53165436599663 12.745418404055672
Ti 13.069949177676978 16.216160827323023 13.44860318286394
Ti 15.241157880592512 13.684028549728973 10.803422550215947
Ti 12.557621351427386 14.957458273950568 10.80137148630315
Ti 13.608458662992447 12.843343972891129 8.86592333447525
Ti 10.431618014965785 16.42898023118939 9.97480118875322
Ti 11.226959632355864 11.912622605504318 8.297987523862135
Ti 11.907924741740516 14.89145138291528 8.172147395439694
Ti 12.329999338030568 17.617154188805223 11.443530227052193
Ti 14.474091654332245 15.203551860559243 8.824160034995241
Ti 12.943876077123235 17.108198000630594 9.163090195738551
Ti 14.72456513591015 16.423243256880273 11.183935037053201
