42
Energy = -280.42776296 eV
Ti 15.60507612980785 12.319914943616896 10.576233600805992
Ti 13.383815880709772 10.407999332925911 8.289281424218833
Ti 15.786232350045657 10.992567738197076 12.810005018777316
Ti 15.024020464036246 14.946649175184609 10.90079762543592
Ti 14.007484231619832 10.304147973883865 10.898714856109137
Ti 13.557866377206981 13.04737718855024 9.14619971003734
Ti 16.080709302401335 13.550618893640502 12.786783020088178
Ti 14.009101450404065 7.975100555370708 11.931723683765194
Ti 13.606889255047264 9.933057874462833 13.876909551337112
Ti 12.493299942438522 8.231692740784487 9.634018073110548
Ti 11.59239150834757 11.55649503467876 10.029346941204224
Ti 11.756732817152702 11.886340064632233 7.397392607647522
Ti 14.655101688761475 12.659739646453446 14.830817495606428
Ti 12.30052246623722 14.237028853026608 11.353886453337982
Ti 13.30327131868149 16.81409140214266 11.515108767095017
Ti 13.000329919471973 15.743532688741604 9.234147147333987
Ti 13.590452973963904 12.421696175998829 12.520946497912476
Ti 11.021385634226478 14.02470376743908 8.88059313628879
Ti 11.826149914519162 6.583511482271841 11.586405172390224
Ti 12.38956430925539 7.504124834053874 13.932823894371715
Ti 14.254943450494158 15.195010348057185 13.533024541445892
Ti 10.612442347463961 9.542407291754508 8.362754564739946
Ti 10.790362742927146 16.204395243689103 10.77997560945513
Ti 11.751794167692648 16.162070645963578 13.294495175182247
Ti 9.268929373758827 11.74407681102328 8.36901545947112
Ti 11.647001235049862 9.25757157662961 12.048756450092377
Ti 9.89404784331535 7.603604513317757 10.214566457444803
Ti 9.839712040367898 7.529762421560219 13.052027305015136
Ti 9.295274158035024 10.345753190979782 10.905060679295133
Ti 12.115802278388331 13.882729022884435 14.597996230941906
Ti 12.325481961989425 11.507167316371865 15.441765351790558
Ti 9.308067655952414 13.593798709127732 10.55156905842437
Ti 10.868233899992354 11.732821123272188 12.970272989343918
Ti 10.009188131742516 14.334962673955225 12.925115499833801
Ti 7.730945292240292 9.470489086984658 9.23684078286042
Ti 7.8078103475789185 8.175047471178045 11.625852342330202
Ti 7.3184187107507706 12.053335657304697 10.056367875229556
Ti 10.885522766639912 9.50932284332724 14.811661823887556
Ti 9.762771126893389 12.279468494699515 15.053386128868452
Ti 8.110419528372491 12.37178476646827 12.64110417471847
Ti 6.717393637529968 10.308926648910502 11.658639776524803
Ti 8.602911370548297 9.962975778543209 13.645489048289267
