43
Energy = -286.77905161 eV
Ti 12.778081000199204 8.497865697834547 15.951961939837222
Ti 14.689318565347738 9.887651288042877 14.958808797824172
Ti 14.31388821422017 7.453528705215523 14.137402598981383
Ti 12.414944654672869 11.152943936925992 15.438839245910605
Ti 10.41287635581874 9.485776698353902 15.271389540256779
Ti 15.098970312663713 9.325406087319221 12.34124632865757
Ti 11.651815858063351 6.915121778888342 13.96791890732549
Ti 12.466319957376692 9.240872631548784 13.398151865103031
Ti 13.966569732981023 11.87690114935172 13.29208430938468
Ti 9.550307036084895 12.686968809044794 14.94201479655647
Ti 13.44237777265219 7.34200524737443 11.710910279646884
Ti 8.196304462221423 10.967065827257995 13.798309564663342
Ti 12.782988420835855 9.818999906809593 10.8881618579866
Ti 9.448746242447918 8.527488951837121 13.21770493821669
Ti 14.991841617934783 11.686615504661667 11.040931201393796
Ti 10.783635461169547 11.150375408788051 13.20630593334567
Ti 14.861279397871693 9.986466690585562 9.211229769621053
Ti 11.076535125771867 7.680878117532269 11.371262238386151
Ti 11.894070917093716 13.631274220255696 13.710031440203112
Ti 9.885912136680101 9.93103375247804 11.009236746426268
Ti 12.166390220512023 12.572288110094373 11.15499766428595
Ti 13.851020830936976 14.15124960867207 11.385646976140956
Ti 9.65824543918416 15.1368779156781 14.004858076465014
Ti 7.366786648590102 13.749992468835083 13.602180516664232
Ti 9.397680127049316 13.142476569043627 12.233075388854575
Ti 12.918223227045608 8.45646410952691 8.452428028370724
Ti 14.028041858127231 10.589208721436076 6.949893678286021
Ti 12.10717806462308 10.94775660240174 8.695659658516623
Ti 8.148541437086696 10.12056193774112 8.975167736974472
Ti 14.172321894782531 12.690652503595915 8.76023410272519
Ti 9.89612066933489 12.197307110606097 9.61082149897673
Ti 10.290331713135174 8.921286664051681 8.38273040371691
Ti 7.090704572174351 13.861777971604411 10.829210373300128
Ti 7.543462410259715 11.317653849404847 11.110788771208401
Ti 11.124332498318427 15.169882851101164 11.58934565586954
Ti 11.718615763691266 9.784341409349038 6.389054753342924
Ti 8.390378448034816 15.633918300672029 11.976911641105515
Ti 11.94124475131536 14.295414020725893 8.902355527779813
Ti 12.1319449155419 12.570416043536865 6.73154826858167
Ti 7.68593211324442 12.745220295857331 8.569735419037977
Ti 9.594738554740273 11.165717330385908 6.956922015716878
Ti 9.305048330352383 14.907285573344673 9.595665982488025
Ti 9.86863003057183 13.729707382990064 7.3795633226272015
