48
Energy = -321.01968773 eV
Ti 15.936928447740511 9.446930493279583 8.351067823241198
Ti 17.096866080208667 10.93383427104428 10.00570119736785
Ti 15.74617438290196 12.181851468662556 8.045747540934775
Ti 16.096109648946047 13.260801528593392 10.572845289770418
Ti 15.80891319221442 8.903069913878104 10.99325975393365
Ti 13.947405575336658 10.265919802863376 7.190354739766573
Ti 15.033829302088607 9.038703341755392 13.457481130107338
Ti 16.06871487155088 11.217218103549543 12.426680773692919
Ti 13.563020569111258 8.447890695892168 9.108542369922125
Ti 14.395941300385768 10.942629267425602 9.897065040879642
Ti 14.873118239275266 15.336790987333131 11.419974198985972
Ti 15.045587258611947 13.541805313734102 13.47571864084683
Ti 14.116065825828453 14.319499066702162 9.047775505579912
Ti 12.83360642341015 12.411267094771334 7.472960351744539
Ti 14.367277675356558 11.212465995523358 14.743150305473192
Ti 13.301406954397677 8.021093886596942 11.769062614298702
Ti 11.049323403214789 8.762931484110425 10.368482468232445
Ti 12.598255404590722 8.893466908332208 14.406287387893386
Ti 11.505876255284745 9.857852554776732 7.910664889730614
Ti 13.172339512718843 10.631763576761427 12.394104378666153
Ti 13.350815422409683 13.240696540249417 11.405601597960327
Ti 13.110025614820946 15.36756399111397 13.403869310004069
Ti 12.412029261329991 15.83148776715977 10.702150623978286
Ti 11.74856404208535 11.541777434394614 9.843759938208157
Ti 10.89866615598071 7.837391953068757 12.69919333566557
Ti 11.365199841541324 14.314089610763302 8.784032070614971
Ti 10.23937922323437 12.156570381980359 7.742886658417483
Ti 11.758674267811374 10.958267147501546 15.644940436418251
Ti 13.365446436104437 13.676660856731921 15.870997120076888
Ti 12.206612364733884 12.911374771443771 13.928140926603206
Ti 10.432041031124848 15.610708325252496 13.023960466114525
Ti 9.303674280269124 10.62157581544523 9.80548347764629
Ti 11.227021802212517 15.19527016535927 15.345123829091845
Ti 10.396633825090486 10.613714859214992 12.64835702720669
Ti 9.818756218441154 15.659349011086775 10.376452376979943
Ti 8.60012933605073 8.93664191281998 12.062798008736113
Ti 10.533442648683218 13.29369216509582 11.488872835202326
Ti 8.792776230088164 13.436241200334036 9.518617425737549
Ti 9.431849595348883 10.814560584389541 16.19688174118983
Ti 9.73271316141187 8.879616354743325 14.608129555805393
Ti 10.421442313902546 13.235120003699171 16.62619004597123
Ti 8.52766914454725 14.926042561590235 15.191911118701794
Ti 8.277879054141632 14.589355759768683 12.222198123371486
Ti 9.475323425066339 12.85833881661934 14.049470103148922
Ti 8.066349191682672 11.892761564931055 11.837700334565136
Ti 7.700897839245215 10.594374718312123 14.206337518798659
Ti 7.779307159562474 12.597230990483236 16.18112094717132
Ti 6.839902165777894 13.151720356733744 13.897878021416217
