49
Energy = -328.63924247 eV
Ti 9.821810443649905 7.78165445528714 14.56889090271308
Ti 12.702087559606271 7.228488793496445 14.069440799663948
Ti 8.639726087155168 7.70063568285807 12.090881821730068
Ti 10.922543034873126 6.730465348851632 12.21218110581396
Ti 7.9768139938993325 9.797667718463 13.519713845373573
Ti 12.07215701204819 9.755616109552381 15.557097936849681
Ti 9.698924805655972 10.430913334475191 15.38760943386148
Ti 14.548452567808987 8.804982566931438 15.351087706228853
Ti 10.667708222734095 9.272681565166272 12.942512186897833
Ti 15.218638498523438 7.6234031220721175 13.124261766984318
Ti 10.225042754606102 8.230155961606693 9.922674231137133
Ti 13.32199635327743 7.340673493604253 11.397522372824227
Ti 13.593151334602126 9.683463192113855 13.076447599861199
Ti 9.550552179944216 11.281140133657868 11.58067893324544
Ti 8.947166842864757 12.403453347301385 13.999483416474256
Ti 7.760358420387466 9.626771523335425 10.65272993744581
Ti 14.103234232634337 11.470760638336044 15.057913281927505
Ti 11.783760987656034 11.711622989140913 13.547723654627495
Ti 11.079849388466567 9.290106403591492 7.430598225747681
Ti 16.084615458805587 10.077036689387823 13.552001528350353
Ti 7.170361547504623 12.154625802166569 11.929968487833179
Ti 8.695863703903974 9.650489628274238 8.217821359129733
Ti 12.210859588871234 9.70050426569634 10.9227701747068
Ti 13.308226140835588 8.972506863404233 8.764036308534807
Ti 15.245226755234258 9.319269506486158 10.879442163098123
Ti 11.335678165620086 12.637178384373021 15.660825708243463
Ti 8.034251021983374 12.10658953125005 9.177516421102169
Ti 10.739653028939284 11.088064707836084 9.296276257719988
Ti 6.5692454564232925 14.086519680668678 10.420884407284628
Ti 9.84913120465414 11.6861824138483 7.01974521118392
Ti 14.71521279968439 12.093775206797936 12.499254472049905
Ti 7.759798529165483 14.84670803448831 12.82920972229992
Ti 12.1038237899349 12.964402073949739 11.183115566630645
Ti 13.15655394699918 13.998634429034905 13.519473504158942
Ti 10.601561419806933 14.299251997771144 13.297711446231268
Ti 15.363059003071525 10.377431055960294 8.249932298833048
Ti 13.850214136035737 11.520028051232527 9.975881742772502
Ti 12.79499083577103 11.520168865743075 7.486716136327965
Ti 9.25405641361584 14.010614981982776 10.863191725539677
Ti 16.384464346221268 11.843414240308903 10.295458700934349
Ti 8.14854458989196 14.71444074684815 8.44216876829246
Ti 10.639327746049204 13.659267712972705 8.61024453334371
Ti 7.696405388789353 16.302109578992795 10.546353633447902
Ti 14.691214645361494 14.032959717324863 10.670248972034099
Ti 9.754050990408613 16.479623807353946 11.97385901222738
Ti 13.051885981787583 14.134193672881947 8.680856515659494
Ti 11.879250609688643 15.340213023163544 10.972225418983191
Ti 15.189532429986992 12.940607982516992 8.197253518739194
Ti 10.040018754874591 16.229584117756822 9.327160275214128
