49
Energy = -327.34445114 eV
Ti 9.735337896565792 11.097719319037374 7.511574393483336
Ti 7.66250947577773 9.736660917518613 8.164202445674015
Ti 11.932540157982897 12.304260039415638 7.1282880935610144
Ti 12.828743439046846 14.094507397798843 8.572007736175081
Ti 10.10438151632038 13.53140691710873 8.884609504809294
Ti 12.199933769315034 9.85296521516052 7.4938291257489
Ti 13.992085674450312 11.63259011744876 8.640424872107008
Ti 7.848248224088224 12.183947269714405 9.111221747417117
Ti 10.116853955335504 8.510926094945447 8.34954708381036
Ti 15.213491333149978 13.820319753545432 9.597120120038905
Ti 14.031870058044369 15.757259743171977 10.710220601797324
Ti 11.016533899387753 14.764020814887818 11.082775561178488
Ti 7.844693235869881 7.82860534225107 9.734016827171548
Ti 6.538694481035056 9.983746387611372 10.568453961039395
Ti 11.439549319834162 11.273767421969724 9.665159206076819
Ti 13.819458479481778 10.509954540200729 10.999945494652643
Ti 9.147232534288259 10.020109924257781 10.467723570465122
Ti 8.304402302675078 14.530100726298196 10.910194540905525
Ti 12.959521995358154 13.090958301492035 10.95683245099782
Ti 12.382390215340235 8.589294287039996 9.913035413485982
Ti 17.320721548319305 12.916692785694655 13.251793458585183
Ti 6.693789460775791 12.476334766442557 11.192521849118643
Ti 10.227990599553765 7.320658300575705 10.772815182949426
Ti 16.67696252133022 14.8551972584371 11.565255415969725
Ti 16.120911950355264 12.022074085709724 11.15483817411788
Ti 8.015295985969148 8.332794136799476 12.281801966688583
Ti 9.687009153545798 12.449217226085858 11.91385225253479
Ti 10.13576792593048 7.379647432899348 13.347523668588462
Ti 11.32744989091053 9.886240957446573 12.30026336516857
Ti 14.69000491592448 13.827154206195734 12.878647409392727
Ti 16.10780696588211 10.76281021097135 13.608376091566049
Ti 12.383909726024095 7.297553178770741 12.321053619471162
Ti 7.3433618722515455 10.83559756354109 13.10903351844133
Ti 15.045995794991978 16.500055554182183 13.010281974678223
Ti 14.070964752888923 9.000003250784788 13.113082592009238
Ti 16.59910049334814 15.07461183789602 14.309078887257476
Ti 7.423664335077866 13.463809224019023 13.209266426315326
Ti 12.588719375602862 15.835836521242749 12.9268049809925
Ti 9.576866463834666 14.798856769436512 13.302172601550016
Ti 13.545062175737295 11.512554249959342 13.450836756226881
Ti 9.197888056778957 12.346584409914534 14.640362407322792
Ti 15.743742832587351 12.785722373416844 15.404572265002843
Ti 9.309522919982154 9.617412867413428 14.353238685053313
Ti 11.999662068753974 8.577857249454425 14.626870605957839
Ti 14.08815938440613 15.090212954640037 15.13092086590688
Ti 14.285491144762066 10.382310958717945 15.626302778806105
Ti 11.726441019803287 13.455605587990389 13.610168368314188
Ti 11.52630592460844 11.03736738985743 14.98439068421857
Ti 13.162191992317055 12.785339376231386 15.88192361280062
