48
Energy = -320.85602015 eV
Ti 12.121998745386524 16.632773450120606 10.192204278108433
Ti 10.561620205459006 14.52163772069968 9.077897178278041
Ti 8.037092575577475 14.909833457390647 13.129000367379469
Ti 10.052630882328254 15.763931580780538 11.610063762158028
Ti 10.357606238370627 12.433771797654787 7.141359553429393
Ti 10.231546864891664 15.425504604838544 14.321321926507645
Ti 8.312286941414971 13.849342158486518 10.69142549843115
Ti 13.309432486777148 15.138343523627979 8.711673799799716
Ti 14.466949479860247 15.769101603500447 11.058130807015747
Ti 12.474516727670636 16.32614700760429 12.77293011164247
Ti 7.290077011826959 12.536631048833637 12.829038485022902
Ti 12.700560596840234 12.65678952333379 8.4808000092305
Ti 12.419908391155683 14.060585224589039 11.098374750932386
Ti 8.605130223504645 13.244723310258319 14.983584931940102
Ti 8.3120369039426 12.487962399810415 8.520835920409374
Ti 9.991273258761968 12.997125402170536 12.62980456597088
Ti 11.210997673232074 14.54974415862848 16.631619997400783
Ti 10.540124392211101 12.007069068518174 9.909995159492539
Ti 14.141586475398169 10.31884418764379 8.767350210819025
Ti 8.455463890595109 11.098580059266078 11.032983696430978
Ti 14.882026897742609 13.325949706512153 9.933757976807929
Ti 11.817277230386049 10.374799519073962 7.24048286991738
Ti 14.691232147634143 15.438629150127108 14.14647113107606
Ti 12.540112193054519 16.457386640774946 15.358476125187195
Ti 12.567660982452683 13.880547168048594 14.427555443253564
Ti 9.379192855619742 10.204158458509495 8.224759244479488
Ti 13.266011358160352 11.5072331746594 10.990418303429568
Ti 13.943648919561413 14.860151895242142 16.632971337717642
Ti 14.803482564867469 13.25735055892055 12.495725877492442
Ti 11.643709498188487 9.56403719793199 9.632760551489012
Ti 9.019985114241221 10.764438191846839 13.883468398006896
Ti 15.754198494210518 10.605324783860901 11.254355370321322
Ti 12.370568409375682 11.489497801438882 13.287448455440991
Ti 10.846737702875844 11.981569539539837 15.44365040788545
Ti 15.005515148205394 12.886527921486774 15.220712918044864
Ti 12.93010571986247 12.675482988674885 16.982600507702955
Ti 10.558246997901179 9.666386876847488 12.075396378188584
Ti 15.204233209227032 8.344613539298967 10.006513058384817
Ti 13.186554375405002 8.933959556164755 11.81754208529267
Ti 11.22468266178926 7.204059656171839 10.779502694925023
Ti 14.921106684719293 10.347238599035547 13.658795803364274
Ti 13.446500299296108 10.67660814520728 15.661461144644479
Ti 11.714866647140633 9.268279510370537 14.479741068426774
Ti 13.075940318935931 7.55560515827448 9.03833449009546
Ti 15.749981042140993 8.18479418197296 12.431243737977006
Ti 13.926227391569554 7.720433172132544 14.129664964061899
Ti 11.627567344477448 7.117362448694565 13.131875355994056
Ti 13.79408370424229 6.46342904991185 11.528215168481147
