44
Energy = -293.99551506 eV
Ti 16.717871990261003 11.290876103860585 10.8711027016313
Ti 15.996951914690257 9.796777231206232 8.840796285936412
Ti 15.281717560946486 12.452929043604684 8.868786137722681
Ti 15.966178289887608 8.828963502803887 11.208358762529267
Ti 15.088925298541993 13.138981269563452 11.615540549825383
Ti 15.183042766919973 10.699447264476312 13.023755029940473
Ti 13.624605329144245 14.271506248292358 9.8437194507818
Ti 13.679759427228989 10.238847532098145 7.670835124654801
Ti 14.128467015239755 10.716054597966503 10.53893419692565
Ti 12.733084519355817 12.783789437332835 7.77534980086161
Ti 13.963367761459736 8.150005775352689 9.497566503811838
Ti 12.924733271488963 12.305510075791604 12.898496269730776
Ti 13.700064303348402 8.306491298143461 12.353294662018275
Ti 11.949418480438812 12.252852854059798 10.28901298765194
Ti 10.989566139032828 14.538676056913989 9.25839015967534
Ti 12.865419452954981 9.775887384825749 14.474691193181304
Ti 11.760458645427866 14.752886027672877 11.904285079238694
Ti 11.556671045927615 8.286146959308423 7.485270163200968
Ti 11.483571107691297 9.815085105985549 9.33201495505764
Ti 11.242398652780306 10.77445527255612 6.774776736364203
Ti 11.5085019391272 9.886773308004459 12.13763613520589
Ti 11.67004868160018 7.291927196065419 10.89321860644404
Ti 9.721444994652472 12.288911798075171 8.418684777486733
Ti 11.199342364393578 7.859670589746798 13.711394583095084
Ti 11.738781175826478 14.185031075812883 14.465905710270412
Ti 12.165355895959195 11.992581797916884 15.541823218798086
Ti 9.492450261634989 13.162312410922706 11.18597167878495
Ti 9.378704831856961 15.850946522237662 11.053677104670713
Ti 9.09465724563427 9.741249788133779 7.949813137954537
Ti 9.495187932469495 7.75886251896377 9.314786912092545
Ti 9.304796485013366 10.346039549857752 10.716961358374764
Ti 9.318987707297023 7.570505022683887 11.778694989211319
Ti 8.259847656242304 14.476463564935534 9.200816569590646
Ti 10.184781978309113 12.015914424654024 13.532232905955528
Ti 9.447570181442371 14.995038063625936 13.524608448512517
Ti 10.352476959739372 10.046862660865115 15.456803666346921
Ti 8.706903222689434 9.336542710273234 13.305147742527312
Ti 7.376404927489189 12.067331776542085 9.774300066130053
Ti 9.698667379234594 12.97443728950493 15.883667309886542
Ti 7.212687211778946 14.23968867530639 11.658608413978042
Ti 7.291134593924934 9.060116169330142 10.751923951234478
Ti 7.164026416113526 11.489166009957781 12.386061769320666
Ti 8.00056115015921 11.109805312190176 15.005003865941132
Ti 7.678739108353121 13.375985996286484 14.125613601154338
