47
Energy = -313.79009686 eV
Ti 13.286885600013228 7.354348616777227 12.560642726095116
Ti 15.037239895077315 9.322574377161386 7.709913111221245
Ti 14.879191160297387 8.699984748291921 10.4289487374102
Ti 12.180607927814892 7.78456213997478 15.124119700053638
Ti 12.714688770756979 8.33197536172703 8.329221623487852
Ti 10.65358527824861 7.518693627092275 12.702826528709325
Ti 14.84057913597193 9.099089860637543 13.58839601434767
Ti 12.1135400477804 8.629662464090238 10.67368389200722
Ti 9.06985118746421 9.209841248500982 9.87587043131297
Ti 14.733061570670909 11.764534167020093 6.998340619080905
Ti 16.079932782410268 11.180538861558261 9.445313047163458
Ti 8.082739232037431 9.443076807367378 12.276267913947974
Ti 16.225442958930955 10.60732751087681 12.034934404918895
Ti 6.784509102249568 10.702484803571268 10.267460595585593
Ti 9.62492271909805 8.657940040918232 14.44488060305305
Ti 12.740463042201675 10.212010352943123 6.705226657745519
Ti 10.713797220156764 10.316378243162822 11.91955218301032
Ti 13.526080308768266 10.828021127062247 9.197374567242958
Ti 12.211128440890743 9.591267808470182 13.789337826284628
Ti 11.001811932209627 10.652102771573121 8.967330261077295
Ti 8.527454608886 11.499269438632664 8.395588929870033
Ti 9.009056900772409 11.661495634332397 10.956707262179956
Ti 13.63727989005821 10.70877970344936 11.84094638811411
Ti 9.093306936408823 11.234404214771159 14.151641728243407
Ti 15.400233282772197 13.034478982934406 11.343117445783763
Ti 12.36859414189226 13.02707296917299 10.625091561473473
Ti 14.618002608794091 11.89825922923175 13.926204180568444
Ti 10.705640201376909 10.174257011439437 16.0582740043015
Ti 13.024019276303422 11.004191549447357 16.034450619269307
Ti 14.639667793638724 13.571697242072805 8.836228044836654
Ti 9.868787716008542 13.574805183822031 12.380910928247616
Ti 11.762366107454028 12.208227152323241 13.904944430976062
Ti 12.271616336288563 12.779591433143935 7.623529007404589
Ti 10.10896276758709 13.530368727805234 9.216410879232257
Ti 7.338013305181178 13.369565792038022 10.048729636804849
Ti 14.039680783594054 15.22933013186944 10.759767945212337
Ti 7.011909811606173 12.148711997922629 12.69166831319427
Ti 13.419422530431167 14.200555905898055 13.058657248874171
Ti 8.573527364221878 13.886758221150814 14.63385771540327
Ti 13.212798590517098 13.560544773564997 15.647935996519502
Ti 10.784290766443611 12.763399576482238 16.258391558585256
Ti 11.58002945656554 15.490853410529656 11.63028775303645
Ti 12.28739686423784 15.136263186674444 8.980521193236793
Ti 9.092344166902874 15.485432900430737 10.56978539639666
Ti 11.175590685374729 14.915890023349377 14.624434121651394
Ti 9.288715975964873 15.988190450518328 13.138349476928967
Ti 7.311380175740549 14.659843610173787 12.334369288867563
