44
Energy = -293.18770923 eV
Ti 16.249112633729375 9.46012940622028 10.379975827886867
Ti 17.277845871739185 9.995734219648348 12.679615083784203
Ti 15.055028644072838 8.306737973999882 12.616841186050115
Ti 13.7966095885579 8.651228512585952 10.145911465287739
Ti 14.745632091126847 9.971855682968066 7.830183693761133
Ti 15.648761056820259 10.067380675096762 14.6732502391246
Ti 12.082130327247528 7.886512968167308 12.385526053155761
Ti 16.832915867395297 12.018653183533806 10.94751450976878
Ti 14.795241372409668 10.866278528984168 12.268291971393307
Ti 14.458841059066339 11.611785275871998 9.649467754297428
Ti 11.175262537044409 8.385252393279304 9.965548827623744
Ti 16.534459204784703 12.401950222023459 13.597225796449566
Ti 13.008808450612579 9.677538348193458 14.177522617200333
Ti 9.502507128290347 8.445863762271772 11.981199700060838
Ti 12.141584298470518 10.43367696219659 8.559609974711092
Ti 10.469356234666881 8.616195949125723 14.634595524038986
Ti 12.154528518979172 10.427334696152087 11.474725432099644
Ti 14.007638120551528 12.214824866635146 14.628947978953029
Ti 13.220423129258808 12.814167354322167 7.602382426966526
Ti 14.590636333706408 13.495589000894332 11.853902018360637
Ti 9.854384237512924 10.862829357435034 9.960412633000324
Ti 10.085679772795574 10.816444532302269 13.26499254206849
Ti 7.994426746471363 9.333086460968891 13.942671709451098
Ti 11.981381705487728 12.934992819643476 10.06953710748035
Ti 11.546866469941637 11.19863859394777 15.727000835961974
Ti 7.782966673446186 10.714496049420264 11.581556836238864
Ti 12.066868776771175 13.850935729713349 15.582163676698972
Ti 9.07188692738123 10.711135001071677 15.783854735547164
Ti 12.003589641546425 12.991592311212996 12.991830669802761
Ti 14.249139682139466 14.369718003311746 9.372529330762093
Ti 11.817821680711239 15.073951809449603 8.595380383044699
Ti 7.6717159183302135 12.520040226391297 9.506646058291592
Ti 13.739067567486751 14.830055088161822 13.897105379843627
Ti 10.674226084794505 12.51715799270784 7.716014454007366
Ti 9.340281728657285 13.057676417287187 11.68369996034007
Ti 7.735406803094503 12.148748061243156 13.860139041686857
Ti 9.425848672960692 14.353948381628133 8.874040562620122
Ti 11.042472075011352 15.451075228377107 13.672432239325
Ti 9.72534099002266 13.336476506326633 14.997351804288344
Ti 6.595423950704322 13.191649963831114 11.809222105807384
Ti 12.769728733091688 15.43328353387375 11.393949737168512
Ti 7.75695312252081 15.020366384778464 10.56351180028126
Ti 10.179691835996826 15.73705076333185 11.096780587842925
Ti 8.307801825852675 14.962254892673762 13.171231818725472
