42
Energy = -277.82701894 eV
Ti 8.640392598321748 13.436372983975128 15.129611196208236
Ti 10.259420884073597 11.747206432098206 16.244150929029395
Ti 9.221004495882697 15.254590072067359 13.42796508962561
Ti 7.324168372835576 13.311759303706213 13.027453326589365
Ti 11.10542809145969 13.823248624737712 14.91166285360975
Ti 12.780101549442607 11.511415598899905 16.005461673158013
Ti 8.922351692189459 11.08265829163553 14.142513818023335
Ti 10.913779435748166 9.459781281795708 15.372535062190794
Ti 8.294349868143689 14.912965411817845 11.088535434153615
Ti 7.247317628176753 12.711070135241131 10.59306381453493
Ti 13.588309434415827 13.237780343324646 13.960213101959024
Ti 11.885592880213176 15.03064744135801 12.70444938906781
Ti 9.907353573666493 13.018715881879025 12.2201041878843
Ti 13.432832115384983 9.154807325960803 15.345900186653973
Ti 7.6982967319705375 10.622137866463552 11.860684057789937
Ti 11.80410391035399 11.20026173381415 13.566775504088323
Ti 10.062033737730639 9.294528384084318 12.717987002210036
Ti 10.955209560247484 14.803795862138042 10.228478795457674
Ti 13.434438660747677 15.892770925092055 10.635169586894554
Ti 9.069393979172885 13.270451617403006 9.025785627741802
Ti 14.68940573844864 10.918471274250434 13.978225677288842
Ti 14.961315592048374 8.410292987198387 13.403690702684168
Ti 10.38333397270838 10.985373889099593 10.355975511489042
Ti 12.473491771545232 8.212690531662773 13.114546463105986
Ti 15.775914741809597 12.620757747216725 12.318572207154249
Ti 13.542143161536954 10.412518118915505 11.323088496238272
Ti 14.66561735713684 14.92999912470688 12.507934875135112
Ti 8.836939213078194 8.653164136098892 10.674377987412875
Ti 7.952506061945317 10.673570419755272 9.13051444732768
Ti 13.04641714540214 13.18044779422223 11.019353752101317
Ti 10.037673992519675 11.213946999199495 7.603181956094686
Ti 11.622450545164748 8.497147459799606 10.573658396108877
Ti 13.238804389063278 14.588262467792413 8.61829592881824
Ti 11.658688748700829 12.786115259070066 8.46774417500698
Ti 16.164493652121685 9.734542272519569 11.680586897441826
Ti 16.12861469794898 11.640921948329247 10.058221308337185
Ti 14.284771930720014 7.888884040600524 11.015007298346136
Ti 12.392141263326703 10.15188665346763 8.646451779793448
Ti 9.924893014651705 8.963054018969729 8.498645248680509
Ti 15.054559259754747 9.540266948638305 9.230410744376904
Ti 15.41092005582985 14.165405880841883 10.069742582137273
Ti 14.254527592536613 12.098039257385324 8.54886267892872
