47
Energy = -314.41507889 eV
Ti 16.27661043160195 12.492131837516583 12.542350996832468
Ti 11.42217403783131 10.234648429636792 16.423080497420624
Ti 16.101138731565662 9.804514796621406 12.315804646439828
Ti 15.444754364982318 11.081051395499307 14.574722158959071
Ti 13.549739430502939 9.640600995711765 15.45778695463193
Ti 14.420129447047819 8.450064541707764 13.472914903578053
Ti 15.775650115301506 15.047836285600738 12.401733328517686
Ti 15.403431325548114 13.90410867129241 14.861515210721938
Ti 13.473778889172463 12.146999225438227 16.141442940620227
Ti 9.347629545116053 10.217442558684272 14.803937645556287
Ti 15.189897998531197 11.144819896046924 10.201779097604978
Ti 11.952925190697632 7.253593007677488 11.761260857137865
Ti 14.141701773567348 8.760895277779783 10.789885777615067
Ti 13.582196768640456 10.813166149854442 12.524089561365468
Ti 11.626800075798092 11.70596317080088 14.245228401295451
Ti 10.51232349092417 12.59833610797632 16.305681785582486
Ti 9.942593286834937 7.6003393681702365 9.902762970136996
Ti 13.735217965076393 13.513790073769684 13.036724483743605
Ti 14.678980294803521 13.631143249608547 10.398718577155387
Ti 11.593019420391785 8.987661216025307 13.79134239852169
Ti 12.53503651588536 14.480242125699492 15.374455533211172
Ti 14.069369325193287 16.048481039650365 13.86374924176991
Ti 13.442891147014596 9.920344543985006 8.286069395272877
Ti 9.432634450449372 8.368579748124958 12.377047134878529
Ti 12.363095776458199 7.591737395857904 9.246748494381517
Ti 11.402830099560413 9.622208714712722 10.762868869935339
Ti 12.57150168351923 11.915471423513921 10.018050002835254
Ti 7.535648047344302 10.1989922405045 12.73033264115631
Ti 11.447714190371723 13.492837340031505 11.856415159627364
Ti 14.129459151717759 12.462647571790916 8.014776628733264
Ti 8.438635358540864 12.448925821061263 14.107430750865335
Ti 9.867997757588707 11.191803138829757 12.2757462603911
Ti 10.134305198596559 14.354840027354896 14.39488385619682
Ti 10.820881244464092 9.468806090746153 8.125100170363925
Ti 11.60369062132826 15.81122229250451 13.07531781259784
Ti 13.28668460609666 15.576277616556146 11.204190892762206
Ti 9.834316592987808 12.39905014179956 9.635935921689184
Ti 11.571086040194048 11.852220049746732 7.391844708641663
Ti 8.60661103896276 10.007794785879742 10.138253332254607
Ti 12.203536950698814 14.163146928492944 8.610993730654727
Ti 10.433229616868603 15.125826847203433 10.005015433286193
Ti 8.941426554454313 14.36409482331926 12.015574927037864
Ti 8.955615783515846 11.159532842623074 7.315008867796798
Ti 7.4329506459513786 12.369579774783151 11.317064046040121
Ti 9.382323806708555 13.804468125428468 7.555875453018372
Ti 7.910483473365622 14.460768859341243 9.612446006482529
Ti 7.366878790348372 12.202520487160431 8.627568586803667
