46
Energy = -307.49550674 eV
Ti 10.55515398921288 7.88874973777514 14.830857989162732
Ti 9.714849667089627 6.564779117315739 12.880585264829442
Ti 12.21656230184476 7.629946052142702 12.494634454684126
Ti 8.076507165394498 8.32938307216931 14.084703013324196
Ti 12.29246195793555 9.740340304029258 14.164476250516758
Ti 10.643993462691402 6.798181677149571 10.398857855565414
Ti 9.804404905796904 10.500026496131364 15.104272986288436
Ti 8.183929582907822 7.704740108954318 11.2601056169926
Ti 14.737063572010346 9.153715134490792 12.447014760360371
Ti 9.99159740005893 9.29706640369885 12.651015513200052
Ti 11.864265767680129 11.85471233181436 15.87705385098811
Ti 13.955177585425519 11.57875687159387 14.129501363358715
Ti 13.202630848467875 8.063036931279623 10.07573208716862
Ti 8.92870508768429 8.045159724534521 8.754629589273394
Ti 6.972355904093716 9.682473378006655 12.221993580864472
Ti 12.855158686972034 10.377120748946448 11.576714875767351
Ti 7.6942345096744535 11.480049516087371 14.085965705056877
Ti 15.15480027699871 10.223233815652186 9.791086247567304
Ti 10.755871637812595 9.469057201134676 10.084156695608906
Ti 9.69511866777705 13.236063419678574 15.050661571467982
Ti 11.375995600291322 7.9776844545917065 8.022076658657666
Ti 11.414519504582382 12.214387166811594 13.261652953507813
Ti 15.577414151342168 11.823728211277372 11.863782192733554
Ti 14.805719070887802 13.791778778997628 13.483771461104515
Ti 12.630475146968788 10.358834540537636 8.383443977825479
Ti 6.673134878861426 12.022656297501825 11.69592160149892
Ti 12.49304035423198 14.146696922834385 14.733658593168212
Ti 8.078767170500164 10.400659049887498 9.863445206100046
Ti 9.284189494960458 11.819872267884456 11.860980663022609
Ti 13.555737248905931 12.407901643732746 9.842756375209374
Ti 9.977109130932083 10.243829217527804 7.7279823110610275
Ti 16.226670859191405 12.689358303832162 9.505389690197159
Ti 8.07434771222554 13.93086384831521 12.769775364728337
Ti 15.47506164177361 14.621220745930707 11.129338416469128
Ti 10.728317891817815 15.071654580613632 13.26364449068658
Ti 14.778805885013004 11.874162872981255 7.5817965727161
Ti 12.741661469663766 14.110737594134841 11.654817436928845
Ti 13.671335339335311 16.10938772477185 12.828942360184861
Ti 8.12759282174605 13.192061677204784 9.943083155534367
Ti 10.729043705406548 12.16992349228753 9.530358835297395
Ti 12.446812550246241 12.854255381898069 7.4494188892934945
Ti 10.10541963889138 14.347744319472996 10.922599687414758
Ti 14.4902916762967 14.444827023406816 8.428090682657992
Ti 13.790263780856886 16.271686350959747 10.179146106589378
Ti 11.564155029667388 16.518999703733577 11.162127131310202
Ti 11.86767096961793 14.946891488030023 8.926375615798355
