41
Energy = -271.48080762 eV
Ti 11.421924506454664 16.067016210815243 9.479515763818384
Ti 13.38168756601337 14.735600427222224 8.585205138715194
Ti 11.041365719226066 14.532347530797017 7.379027904947671
Ti 13.18242038856239 15.524442708057043 11.177541339050562
Ti 14.24949981905743 13.023669101761648 10.46161898207988
Ti 16.136331624522782 12.675003284206094 12.500152615264707
Ti 16.2258931752767 10.549302145801821 13.777023147801275
Ti 14.128365416206579 14.083025978588157 13.17980561792439
Ti 9.181475673678131 14.873272414077974 9.692175685805493
Ti 12.894295031667284 12.403021876755448 7.624865559636555
Ti 12.146558982284027 15.65138316073034 13.736094692486272
Ti 12.954649604625933 10.800212298629434 9.897598570210622
Ti 14.79873402425162 12.264999064114 15.068890793330866
Ti 15.636686981872776 10.409001384668787 11.115172481053126
Ti 11.325646641148776 13.149874802810118 9.596591454731689
Ti 13.818178845137167 11.402218764302754 12.551669098853651
Ti 10.440410902783308 15.906519475146743 11.882895448188238
Ti 12.127293479752788 13.211293886432674 14.904469720200588
Ti 10.439939148141706 12.13338395014521 6.573464012642297
Ti 14.868135026811505 8.665544734765483 13.14534943751068
Ti 12.848430353809443 11.395760484624583 16.73081894390826
Ti 10.795562074276068 10.493246712389471 8.534242877211899
Ti 12.09751164252375 10.549007366821261 14.24005951850141
Ti 11.50561703282238 13.39675823320845 12.238948978945816
Ti 13.206193123057341 8.727192293263794 11.498312100433143
Ti 8.735007504587644 13.179321363212823 8.077694749135095
Ti 10.950636977499125 10.343646727861653 11.644627054628412
Ti 8.471288465107186 10.754807344342307 7.934407097170306
Ti 11.563394028966513 8.298315940044336 9.795949467212976
Ti 14.34182563232727 9.575864155982238 15.542791117999155
Ti 8.685121137615685 13.853054263238324 12.024408488369408
Ti 11.80657112993683 9.075762786349095 16.36915219540088
Ti 8.961603946874733 11.773692503470306 10.470959487001139
Ti 9.873311636429488 14.459593283794437 14.134733581248147
Ti 12.46956564896303 7.921744569641976 14.077032446060226
Ti 10.385915047680115 11.328119355120931 16.07484769437667
Ti 9.128315368862694 8.946543231257712 10.119204032121964
Ti 9.873137216587892 9.103008965490222 14.530064715624409
Ti 9.616171095744477 11.836458627250538 13.59244388099305
Ti 10.462319048435376 7.821017091136904 12.231992087656373
Ti 8.432622952002221 9.782874103624376 12.327877915123464
