46
Energy = -306.69630374 eV
Ti 12.572927213836328 6.8380940651118305 9.99958498393291
Ti 14.313674149661797 7.508564559253842 11.525349194267083
Ti 11.70490608621859 7.766155777265541 12.565480440050484
Ti 12.60639756485697 8.758302134947591 15.205011751977574
Ti 10.263002546215949 8.075474525776798 14.829015370383686
Ti 14.401453308680445 8.580794050995419 9.040418269445828
Ti 13.85988779351271 9.576021018150742 13.260083417588836
Ti 10.187305831154584 7.933918587259275 9.993078354197486
Ti 12.65198647463562 9.476780092701217 10.762808650942704
Ti 12.01172267461537 8.339613962361039 8.010889918626305
Ti 15.381445333376263 9.902868390525148 11.209621338542737
Ti 11.091936394585638 10.399310477817352 13.522392601554973
Ti 10.794177308967894 10.267788755275724 16.22942539326286
Ti 13.07962336872522 11.533466505736175 14.941920556152374
Ti 8.604825684811392 9.852456742171894 14.89775201489923
Ti 9.114891661759575 8.544772203327241 12.405560749605668
Ti 15.576071813969943 11.839390280435502 13.776350658884148
Ti 9.734703162082754 9.574258942163091 8.06072096980564
Ti 14.729054785303212 11.619752686832078 9.315199011582472
Ti 13.524743982765209 11.883928973117241 12.115999387991275
Ti 7.968312727125314 9.80998149437661 10.090393956132283
Ti 16.127669075474227 12.436967044236997 11.221949863313096
Ti 12.112304256025203 10.97166774098304 8.58040347405215
Ti 10.118639076559315 10.753349800667596 10.76352279098527
Ti 11.336955044307118 11.231340370093887 6.452332738795081
Ti 8.175292730297453 10.941667904243584 12.66343837647783
Ti 9.341003512128687 12.024722553347875 8.352201704901253
Ti 11.930328845622205 12.879705296114896 10.131363172879423
Ti 14.589780899101925 14.3063571459754 10.198385399901769
Ti 15.497590222731468 14.278679568199488 12.647045292836502
Ti 9.401257734501993 12.346663488759257 15.126008402195584
Ti 9.993123482364188 13.041210832353272 12.55867188342499
Ti 11.551131281823304 13.623521527676587 15.235752508693025
Ti 7.90509361936753 12.661282896476509 10.818026761411936
Ti 14.037240470261514 14.211941394347669 14.611051722734294
Ti 11.093821329692934 13.719203890431642 7.674761683219152
Ti 12.466861815748816 14.216047963872178 12.380862668249893
Ti 13.424589969402295 13.384567872220705 7.925314405919991
Ti 9.716874958316426 14.4263708630244 9.896775109695806
Ti 13.69397628049091 16.1764162243846 12.260609782908825
Ti 7.51012390208461 13.328012017665335 13.488124602065042
Ti 12.264739552174088 15.427525898679919 9.651566130794118
Ti 9.493784016768467 15.08021963186704 14.234255675952816
Ti 11.977738801469776 15.999060795900304 14.29172673848296
Ti 8.256480290931652 15.11376674076654 11.909906877292798
Ti 10.640558341479194 16.13323026098462 11.904729236059582
