43
Energy = -285.2423859 eV
Ti 15.436964917113002 11.506629398047599 12.155361350599227
Ti 13.91326638915432 13.81845297952705 11.255087755617476
Ti 13.769810415534991 13.992628070393513 8.281992009919996
Ti 14.334700822739562 10.136353368586478 14.454120760129387
Ti 12.708331181410609 15.740744208597137 10.020601432676711
Ti 13.24417774658481 12.60156376358828 13.700509764573027
Ti 15.361111254633876 12.502622606882495 9.603552307030961
Ti 12.17167647225355 15.074303815171536 12.637953011170914
Ti 12.637474478015356 8.644814897770473 15.903887736059453
Ti 14.455949529925148 8.949912895710241 11.965762585936215
Ti 12.06103635078614 11.267961233628235 15.811417793429788
Ti 11.167980951357562 14.820123471134943 8.064281503840913
Ti 15.192868601903449 10.164278552245017 9.84344011133767
Ti 12.589424868668258 11.865250366681067 9.259422966500074
Ti 12.981710502654758 11.127839012941033 11.490915914052826
Ti 14.187293791550635 11.160037168419334 7.556383334318188
Ti 10.943988410549418 13.802505424029187 14.981868996309611
Ti 10.122847674097423 15.981124261196788 10.474597215135766
Ti 10.584526204177125 12.46339105277866 12.783914275909638
Ti 9.833154492102667 15.3475151851287 13.029355431376155
Ti 12.099509566032394 12.619742976086025 6.760320600526244
Ti 10.946875053502099 13.633373110933308 10.45761693732902
Ti 13.028722184289874 9.00314434394999 9.406972672081773
Ti 11.827821099843156 9.846996788437801 13.580734093543294
Ti 10.231815225405883 9.225532306117811 15.709504629352526
Ti 13.489451251780396 7.625589056280822 13.806571937453395
Ti 9.447508078250284 11.465248313984045 14.96747550062456
Ti 8.45706063835361 13.651077883896555 14.115614685281692
Ti 8.191343577421122 14.084473570103377 11.492169008305568
Ti 11.315601762118334 10.078685824096402 7.708998301115613
Ti 10.469455317169423 10.16165134356349 10.487388465130708
Ti 11.837828546178836 7.9286779438796335 11.584764857916294
Ti 8.769417854436801 14.331189653767998 8.913632180040674
Ti 9.868056588647784 12.351272296241325 7.789444717609702
Ti 9.294394039988026 9.359235534321485 13.021363888021755
Ti 10.985994098154096 7.362501843116377 14.167342242375359
Ti 7.976363183804333 11.580882875119151 12.603767197490718
Ti 10.394362775888077 7.814352759790916 9.136918905983054
Ti 8.488913203774272 11.919045296050573 10.021815562893634
Ti 8.684313769718665 9.750076330768993 8.26928794113727
Ti 9.28484030409365 7.294174227405919 11.462855112300517
Ti 7.84600675311088 9.259059301865799 10.653124916294326
Ti 7.973944829913709 7.218435055985051 9.13366174903836
