46
Energy = -306.28234579 eV
Ti 12.162123916586433 7.751741972911177 10.284907569424853
Ti 13.230743870495488 8.68631661424996 8.13361853271069
Ti 10.571067611662647 8.752614734180082 8.332490568705428
Ti 13.460343249760406 7.860398315656546 12.562760963127657
Ti 9.42574589027088 8.195709884886675 10.759647200755353
Ti 12.081871444976066 10.675637720646861 7.315594024374346
Ti 10.914225990154195 9.153387233873831 12.269701236059246
Ti 8.121557202288987 9.507083000348953 9.164471781754301
Ti 14.786070768020608 8.720966310535772 10.246280376822847
Ti 14.58044658960863 10.959407374158 8.406704160760123
Ti 8.977288982753771 9.475058984616975 14.159276777797915
Ti 15.839898274870636 11.206771549116892 13.81050019536183
Ti 15.682670583603297 9.076141754087992 12.595165970144208
Ti 14.829080649938017 12.927863152865282 15.576120482441269
Ti 12.796290548653598 10.540690695783944 10.066303171938248
Ti 9.502259823282612 11.207666862023046 7.633604088965017
Ti 10.17236781399916 10.95831995077425 10.148535165563775
Ti 8.181764171704804 10.449319044612032 11.909767745174404
Ti 11.612871404481734 9.15065518892658 14.49742242425498
Ti 10.186630833946884 11.0073721293301 15.92185058429456
Ti 14.236848366548289 9.27688575271283 14.73580151778598
Ti 15.648408359613422 11.260350920372447 10.985259814125845
Ti 11.855106059850307 12.847879315957377 8.476289041489242
Ti 13.863466005170915 13.092213769727996 10.138813360528802
Ti 14.57992170349963 13.137148695755354 12.673067916019384
Ti 13.363835978221164 10.66394157868446 12.619800804995355
Ti 8.165672409290334 12.059153104683412 14.381737607439463
Ti 12.498621831692653 14.240128339332573 13.715115386655613
Ti 11.301358019168045 13.433366638913807 11.341040617869512
Ti 16.588206549060658 14.00109597665274 14.120336370410284
Ti 12.69662165326075 11.656663919102348 15.040210910867229
Ti 12.716914196224248 13.980810910274885 16.408474136879466
Ti 7.662463823486804 11.859675889120226 9.48096831247024
Ti 9.464044779202794 13.604360574093215 8.958722502721734
Ti 10.426262293933508 11.628493930665865 13.319080938412968
Ti 13.420313411387108 15.571930603401759 11.060426583024627
Ti 10.415337633824173 13.49926859991469 15.393019450957521
Ti 14.57410597366177 15.528201091705492 15.126769801184095
Ti 11.182894619158786 16.305178305150882 12.189450918473257
Ti 15.574652082951626 15.570920202875346 12.57785844908282
Ti 11.313211400994176 15.381334779744371 9.59467452687125
Ti 8.230389929944224 13.022336939110993 11.7134835634001
Ti 11.675714337829229 16.103688035192498 15.08838977528206
Ti 9.147329953621377 15.211308726428001 11.020132432071772
Ti 9.480548249774149 14.627729814005304 13.501214198112194
Ti 13.479998469299854 16.850378824563954 13.222705754166386
