45
Energy = -299.83585046 eV
Ti 9.128454269413698 16.088953009178883 13.678953216134682
Ti 14.31117812769945 12.741640272961869 13.867440188522771
Ti 11.189960036661349 16.71953672983435 14.960358821985972
Ti 15.32628125091002 9.594281943166058 8.603849669316771
Ti 10.395339878302464 14.330423243002773 15.399484992097557
Ti 11.643940903338208 15.258720173048527 12.570836212801854
Ti 13.368458660749074 17.137083675435754 11.362294818211337
Ti 8.570100523382012 12.699203094295843 14.500014329924491
Ti 13.582537707470276 8.660668419948065 14.768278268760506
Ti 9.942701355355947 11.097271913475462 12.137872611305857
Ti 13.661719699457457 14.85625422049076 10.135818827625306
Ti 13.397277986185896 10.25116552156185 12.646619114732703
Ti 14.788151381750895 7.561513904078201 10.41031020130469
Ti 10.496879882166102 13.881800760296516 10.236081906344918
Ti 10.893919917195829 11.223678210764898 9.488865994005794
Ti 13.077542121964596 9.55826444386818 10.066137250077718
Ti 15.978699948602026 9.879675911817502 11.171146422206458
Ti 12.91915809532119 14.681608755720523 15.093598967149637
Ti 12.309231186127509 13.277325903883295 8.599012264765149
Ti 11.42147892029275 16.440036460234417 9.966298769962185
Ti 12.672987323072906 12.719421291235127 11.325643181204116
Ti 11.103780664381638 9.240052370623713 14.017470945860424
Ti 15.631728821051112 10.382443166401162 13.965016908548979
Ti 15.357642112175498 12.2642407185635 11.85688608857355
Ti 8.650070328785931 10.207794196014518 14.550621556893267
Ti 12.24596976592126 6.929453433581305 9.838680608296578
Ti 9.057318655891669 13.693006931503136 12.376663060803393
Ti 14.511648387922714 11.94260219081126 9.433202418627047
Ti 11.095485274298603 8.776577300051354 8.41990618330066
Ti 10.97005290057603 17.782880496063335 12.443741924393583
Ti 10.698368707673534 8.621038496890682 11.078980884334301
Ti 9.273810459320519 16.005640230606755 11.171850572445157
Ti 12.769215081053545 7.429938478521124 12.435146174828851
Ti 14.420580197663686 14.995910908530776 12.561789141138298
Ti 8.618869095149424 8.757700535307842 12.605759156046936
Ti 8.494412308359497 9.826760859442944 10.293842959151979
Ti 13.016266305761867 10.542648162292508 7.6241673119566045
Ti 13.125246489113044 11.149162284645177 15.250626330172135
Ti 10.473882322189098 11.34343319104577 15.791181855059035
Ti 8.30638748997578 12.284900699013534 10.172961693941044
Ti 11.420972834703003 12.632408129192337 13.733252624567516
Ti 15.211660438274613 8.0942314094884 12.927947602045325
Ti 7.335706957878463 11.180769156456657 12.415131083749397
Ti 13.305643174362793 17.06054888727077 13.824261652853373
Ti 13.573342425119867 7.941390282406049 7.966055606995118
