41
Energy = -271.25653282 eV
Ti 15.618169942492475 10.2350601367698 11.605885049620367
Ti 14.595473713509792 8.45073698808544 13.543274286540493
Ti 14.548097537372488 10.885223827846417 14.0013902529309
Ti 14.41880706772428 7.888201735467225 11.123207650815583
Ti 14.949459396810862 12.200985030315776 9.447777904567925
Ti 14.277352966492328 12.568978754472841 12.046376918239442
Ti 14.018564185109666 9.771015651057999 9.183407373787077
Ti 12.629453330637837 7.071905415688647 14.830034685059738
Ti 12.38032139556201 9.660665034664506 14.691221823727151
Ti 12.268350578660895 12.246566537050276 13.955227204333745
Ti 12.095784388325072 7.507682005894371 12.503385155855554
Ti 13.629425161356053 14.027290049999891 8.053981904193286
Ti 13.074213046271682 10.139508437592326 11.777815293182226
Ti 12.012842598114622 8.242797281068022 10.044261778771453
Ti 13.31065928637733 11.586997119439053 7.176207223833149
Ti 13.719883597574679 14.39512468587497 10.555409377770614
Ti 11.427513709056004 13.364359348638263 11.802503203301956
Ti 12.303709865181888 12.110366521585098 9.552234375074143
Ti 11.959767596801782 9.168164420839313 7.412974806330026
Ti 10.182486734254867 8.417407394239675 14.068245917005168
Ti 9.943630569907599 11.18646084771326 14.769839022816264
Ti 10.083050713909792 7.55126913061147 8.668935703541516
Ti 10.171605630754957 10.199544454250294 9.40214771491624
Ti 8.804232115599868 12.308885541483434 12.221967330120698
Ti 9.71724692379537 13.939318195731017 14.053355857401531
Ti 11.221291135940781 13.555369967143607 7.350758584644899
Ti 9.360061558818401 8.307865282765567 11.201726562618486
Ti 11.52596779982102 14.832049068657582 9.48005728010406
Ti 10.647643053718618 10.382338469018006 12.300492677973498
Ti 8.03619935672192 9.914578291748693 13.30192253206423
Ti 9.371596339412372 9.283513817592898 6.902114829577978
Ti 7.863735700397098 8.793231391274547 8.908492269044908
Ti 10.616424912186924 11.373475944882426 6.765787343278326
Ti 9.562562193420282 13.036290642639091 9.544596912856578
Ti 7.574337322764792 10.638731223841802 10.537714344958
Ti 6.20480721673543 11.841462070720114 12.498332670414232
Ti 9.12005201443461 14.84725057421754 11.540235709510831
Ti 7.636261907086935 12.242596783943338 14.644487347421782
Ti 8.090347223229665 11.32644196940815 8.015454250099005
Ti 7.0499700892152015 13.420675020799036 10.554060782246184
Ti 7.145272785105621 14.214608608783086 13.107939317937724
