49
Energy = -328.19321458 eV
Ti 11.987809735973626 15.42546783757507 16.10254358974663
Ti 13.079255475331736 14.872608458622704 13.705763146467062
Ti 11.007700266518606 14.971610238268859 11.699759445583988
Ti 13.481605361854271 15.777210314936992 10.927691364042085
Ti 12.861847061654034 13.898540277786282 17.934715362513458
Ti 10.28145417295093 13.469204410908615 16.97661786253328
Ti 11.236669327598383 15.892541162477375 9.096852066005516
Ti 10.22588217979417 14.641513417133693 14.467691411406259
Ti 12.368851814059207 12.823619381547388 15.473967448414582
Ti 15.363294677872686 14.36510163669671 9.550672817026136
Ti 12.09824927598455 11.562338854886484 17.86642782294219
Ti 14.435825571453657 14.485513523113472 15.912331283360304
Ti 8.44995075913937 12.669918529210456 15.037764980792288
Ti 15.13421828326111 13.964527706671603 12.058974548733126
Ti 9.031955331418295 14.834403159564623 10.069976581346946
Ti 12.608804103592444 12.814812816135339 12.146183072186506
Ti 12.561834058124443 13.623871455938058 9.449792803176269
Ti 8.732419404634133 13.731382318892313 12.430424514233515
Ti 14.475737073121826 12.029325673792155 16.876112828567386
Ti 13.799230139319436 15.77777268530759 8.301641478995018
Ti 9.895647569742142 13.614697002503553 8.039553312483982
Ti 10.079643198071214 10.845970370702641 16.32770196950878
Ti 12.110799685934811 14.574151495916539 6.921258723428864
Ti 10.532480886940531 11.822642813885613 13.686000504867136
Ti 7.852375709578438 12.536504348327082 9.69093918162992
Ti 8.61691706615042 10.041080578963944 14.335378696936399
Ti 14.582733523825505 12.409235421502435 14.08203440674691
Ti 10.204187472121287 12.235748171751528 10.667238399457258
Ti 14.302403906668895 13.292769103620302 7.416832187016009
Ti 9.585250385408317 10.869481427221473 8.125610054413631
Ti 8.125788391778379 11.43166806501924 12.323424366479774
Ti 12.858123346945488 10.07722439420138 15.729500719359518
Ti 11.971540498482677 11.949860970817332 7.193247473121934
Ti 14.437498113215332 11.916668504164905 10.232503668171633
Ti 15.218932701812463 9.790756005048284 14.563266259015881
Ti 13.14664972448883 10.173001816192189 12.742850193348952
Ti 12.115553239169461 10.360008821015382 9.879383876023066
Ti 10.991721793689823 9.072850941593877 14.460167352305069
Ti 8.430390861804742 10.022696170426281 10.254251727205471
Ti 10.294140069334468 9.607053513382015 12.08261015036868
Ti 15.864926219094649 10.865381426024879 12.252882499204413
Ti 13.471017384612924 7.884243595819383 14.226230378995984
Ti 13.962418081286817 10.335821457874593 7.841590605275204
Ti 11.604637149857705 9.385380083881822 7.287256412340858
Ti 14.631569418603345 9.404729629496229 10.306677262816788
Ti 10.321295379835945 8.468446111155519 9.371784773619702
Ti 12.389675196429627 7.980335460725496 11.457634274142045
Ti 15.080619767051381 8.250872178246755 12.439979762991864
Ti 12.965051957778554 8.016019034424431 8.842889154023005
