44
Energy = -291.7717526 eV
Ti 15.744344609618471 10.318295427164665 10.586472413333356
Ti 12.575718625678954 7.18715492913726 9.179694390877607
Ti 14.14720445150086 8.43767417624418 11.208154676646798
Ti 13.639825409974303 9.53675714667447 8.898163217904257
Ti 16.968253983084672 11.749660928007735 12.00874319716227
Ti 10.165009645229954 7.182908701334931 9.836124620597067
Ti 15.586011206509772 9.918759373244242 13.237824676531444
Ti 11.532008024278076 9.075160761800893 10.680939571223641
Ti 15.08845534249786 12.845597280618382 10.130702624711207
Ti 12.89433251526638 9.345504050731352 13.353279663304905
Ti 11.154201867910901 9.049403459407397 7.915657028035306
Ti 13.19427708300716 11.107743786072497 11.105379745892941
Ti 16.321050583988413 12.39115985852739 14.50612068376857
Ti 12.130372589608063 11.699131321229052 8.722044820951442
Ti 16.428883203578042 14.070900056148844 12.174672147813409
Ti 8.437318801795472 9.020129297129213 11.33337978605776
Ti 13.703927496436192 10.879909967225753 15.133566831686503
Ti 8.77965350420758 8.93732536749676 8.72616083696807
Ti 10.37353880697588 8.411218956013167 13.13034555457854
Ti 14.422809181724752 12.452413073259272 12.922819096112008
Ti 10.84732968150825 10.132073641370974 15.200475140858712
Ti 9.825399863577678 11.221143846290712 10.207384476914699
Ti 9.31712847435947 11.250665554612041 7.661069731505028
Ti 10.730325698981177 13.397130352091938 8.223448904300124
Ti 12.737279414791166 14.790579266186144 9.389027178564099
Ti 15.148533499958306 14.848112204133477 14.10083111761263
Ti 13.920087004461658 13.383368631077198 15.861554212023893
Ti 7.32246916678079 10.808597314337305 9.450158062093555
Ti 13.895328022416814 14.786925176224509 11.675795699050173
Ti 8.539366631914866 10.277024292910614 13.755051118924854
Ti 7.461940856015176 11.611622309698516 11.695322799187853
Ti 11.752181462478244 12.057802848735491 16.564984966715745
Ti 11.993485862678803 13.019799162353438 13.95319639329241
Ti 11.293956735261252 13.44993730124883 11.064247995302772
Ti 8.414063834255188 13.362277254272206 9.713301053973948
Ti 10.810363981617455 10.980900534930848 12.684484165093176
Ti 10.212227245567 15.483427174272768 9.431133424243338
Ti 9.024622275538322 13.084411635856513 12.682408662483859
Ti 11.40944252915655 14.465189840499443 16.11711638603726
Ti 11.513869658204728 16.06182145357497 11.67395743567221
Ti 12.762305091714287 15.564514719773303 14.228273271068828
Ti 9.572968950488892 12.584294005350719 15.202108366180601
Ti 8.976147079338835 15.342656410634346 11.537753940312898
Ti 10.139067384848804 15.12717666872559 13.921256823814536
