46
Energy = -308.20026582 eV
Ti 15.230371367988578 7.824160339378206 10.65975924531343
Ti 13.02436531863789 7.502627016883434 9.258645118993844
Ti 14.769793231905345 9.546290230577684 8.605114481370125
Ti 13.115189237118386 7.065277870712165 11.951418165215955
Ti 10.847802122581298 8.102838180617987 10.980992426682672
Ti 16.0497667814476 10.176588744005425 11.38809789877131
Ti 14.762195634602076 8.800720865236105 13.142185557486387
Ti 12.671693104274137 8.989589493432772 7.177987825224751
Ti 13.255477194374297 9.567827260197042 11.008489526884606
Ti 10.500920860095787 8.533608173005979 8.577364087469613
Ti 9.54440570321937 8.28468713500623 13.203793103010044
Ti 14.58745204806251 11.923626911438609 9.559712844244856
Ti 10.288206800875377 10.5567219628691 11.85597806315204
Ti 12.078463295584069 9.17460211860885 13.398831284227116
Ti 16.006016398300815 11.50020305250691 13.94355181198737
Ti 8.262000539107179 8.967251763937078 11.14286176973062
Ti 13.942131280928974 11.524993247374686 12.851627261601815
Ti 16.190461436842796 12.650500360119292 11.513808635468473
Ti 10.62639873566549 10.430384219733083 6.819026458495383
Ti 13.211720568208953 11.561133775188075 6.920588389868049
Ti 12.012670518145177 10.896668451707505 9.081714787867769
Ti 12.89850094926802 10.642507645538924 15.327636887873586
Ti 15.267610696301304 14.01041100605657 13.340362512812597
Ti 14.504424389316002 14.592602595786458 10.882609317708008
Ti 13.43529940771694 13.139094746197161 15.192387451157671
Ti 10.650227284984153 12.711762838106653 7.505645403556521
Ti 9.260173913274569 10.906389582831862 9.316189304646713
Ti 10.11618043461384 10.170928216653797 15.093874427559188
Ti 12.512993196841265 12.829984588558423 11.227013292439612
Ti 11.328990248183697 12.22214986919673 13.733503978267905
Ti 12.872817062986607 13.683105158712664 8.704293133892854
Ti 7.891318210770296 10.35584767934958 13.491381839101122
Ti 12.01760839144954 15.413925433970828 10.665780894199193
Ti 11.077393960270308 12.34177051009503 16.31047595465894
Ti 6.701077511805476 11.100425041604634 11.103524339848216
Ti 12.919484686774215 14.93794174566229 13.156911968225387
Ti 10.324058322670005 13.475066612939695 9.857799974533595
Ti 8.614153731044942 12.720814309281128 11.839988254413614
Ti 7.762615858782343 13.044556800532574 9.267662265628719
Ti 8.85626226303266 12.69419283003173 14.732550684432805
Ti 10.937297393597577 14.523215322096508 15.06723153098393
Ti 10.34246500926743 14.705480417251657 12.53213965172197
Ti 6.460864166898839 12.512490817536944 13.423412331309153
Ti 6.23059006274356 13.773577681839159 11.27014219099554
Ti 8.398065124880135 15.17897549291972 10.7113847230201
Ti 7.711376683169515 14.801833023322867 13.27390008255583
