47
Energy = -313.79436229 eV
Ti 10.869550384979826 14.816342894438035 12.617162679389148
Ti 13.290403118443024 10.23246268645954 12.64976288517274
Ti 11.214825663379594 11.227219778400501 16.676200964674553
Ti 9.922578979996914 14.672103385318971 8.277823915627408
Ti 10.475964806336366 9.931060866079523 7.993211342530201
Ti 11.471165958112667 15.267023036662389 15.17882389761674
Ti 14.918500631329097 9.675221759059745 9.000387772217092
Ti 15.482727243426154 11.914655866415309 13.193494988362634
Ti 11.763552413779088 15.518104608864489 10.344017050607482
Ti 13.650000335491875 8.042654736402115 10.764002801566987
Ti 13.055252366886902 13.169298877416598 11.665723389150852
Ti 10.580849139738827 13.028223975085151 10.077424049010533
Ti 8.142258158137212 10.609947799178263 13.071079151259903
Ti 9.186112739854524 12.293793165731236 7.51524016681204
Ti 6.869350713997132 10.069982010200617 10.71712698196254
Ti 12.595987856868469 10.744152819424984 9.764597920794035
Ti 8.956658364437992 11.732191460119086 15.330208452330668
Ti 11.000408614413383 8.502138316309757 10.505639521398987
Ti 10.682096362883895 9.796966525184128 14.47324855832103
Ti 13.538796930887587 11.405490457337072 15.19839761946816
Ti 12.813356773818334 14.09751026920501 8.807801429218458
Ti 11.735008694860504 12.449902071524473 7.445040835064056
Ti 8.790375047605664 8.629136970734738 12.06504773588022
Ti 8.520709725434005 8.386439812219189 9.446575231601962
Ti 9.031935368461218 15.212905114692838 10.712223996245472
Ti 10.741865588877157 10.90037603545946 12.237280361274086
Ti 14.395970622550415 12.172267281634936 8.159799276484895
Ti 10.054301942851435 13.609037850552888 16.693638505722014
Ti 9.28202325442518 10.744576676399713 10.33439546154757
Ti 11.783992080364957 7.892924828767954 12.850088245512378
Ti 15.517973661480132 14.29283073326108 12.297750699504608
Ti 15.314004313774028 12.11602128853099 10.56377473674387
Ti 7.87507575819697 13.085921491635101 9.542489911684266
Ti 15.317872641086248 9.656209199944152 14.427995291255339
Ti 12.58863479817567 13.432597984481195 16.626062611699847
Ti 14.40152468264234 7.716000868584139 13.189805666596051
Ti 8.824656006780483 12.939171499366635 12.163873339745527
Ti 12.672385282297387 8.285931302371308 8.420349602881547
Ti 13.840229807987788 13.96467777732396 14.305356205065861
Ti 11.221516771843218 12.673598638536511 14.33705092512898
Ti 13.411758344622973 15.775532554033846 12.535901731331673
Ti 12.970225302767533 8.779954059924076 15.070272201553102
Ti 13.10256489081762 10.25011844201686 7.0964636670886065
Ti 9.039991707486525 14.358697452823368 14.47041135675609
Ti 15.71468848888395 9.548868109570316 11.750806286725643
Ti 14.697620038631577 14.935035201920039 10.194438616912903
Ti 7.688120456952098 10.460144297453636 8.25715479955723
