47
Energy = -314.5424226 eV
Ti 7.022514207994915 13.704274902629537 10.444864428360228
Ti 9.447852714323998 13.839513928648833 9.247043913958903
Ti 8.408134170429076 15.545569553271244 11.261697039036564
Ti 8.085387000132584 11.467676216214066 9.368671982936199
Ti 7.234173364849605 13.887338688117456 13.150505297661557
Ti 6.774014015317877 11.627157391370863 11.720828431631944
Ti 11.113522506019512 15.241497083808682 11.118245020203403
Ti 13.255052677299762 16.7205423470796 10.495769718148736
Ti 9.22969040255406 13.071092038591543 11.948785656670433
Ti 10.629621155093666 11.111081700659874 8.265193579042654
Ti 12.90311968442927 14.372594939682745 8.996159605855004
Ti 12.692763466578466 16.430901260016025 12.975623699181664
Ti 9.619504860006302 15.21897224899675 13.493962194958224
Ti 7.65476987457476 9.25632651799268 11.09709691514007
Ti 9.674897000550851 12.677345265820486 14.661450046438889
Ti 15.175212639655886 15.53994106942669 9.558500838106783
Ti 11.424632390804232 12.604468862630826 10.408565581387748
Ti 13.142658147441262 11.497696363845977 8.36648752250886
Ti 15.405637242894342 16.278807967492032 12.247217165197691
Ti 13.885525251974881 14.336997003794856 11.672225887090224
Ti 12.463014672599233 8.875975945923395 7.999515090340068
Ti 8.153575058354882 10.840475444286458 13.663951647579767
Ti 9.681890782216184 8.934127246216022 8.926666401996524
Ti 15.229672551812733 12.923435720377956 9.237243791556816
Ti 12.134023685393963 9.740822330204406 10.198213901380567
Ti 11.846709830904466 13.876538741288316 13.53867874579297
Ti 9.690726715125429 10.53275425172276 11.375572914314397
Ti 14.069955259582423 14.93944295105085 14.426993234835805
Ti 13.660426688288707 11.77598438986053 11.235768318067121
Ti 16.636135129396248 14.181908456749284 11.056536823492724
Ti 9.190532335788971 8.150266546209133 13.374973032548688
Ti 11.636546705554451 11.248014057258484 13.141002625990597
Ti 10.34247850492059 9.976555167474748 15.153817518639684
Ti 9.463153924049726 7.432576126607109 10.997854572484085
Ti 16.050670465896253 13.87586563598232 13.448233084729775
Ti 12.052793186096075 12.069247384372217 15.561298704203553
Ti 14.204871785789818 12.109983256223272 13.99401340491769
Ti 16.132265000542752 11.748293582681391 11.828336796457746
Ti 11.508674520312427 7.0658654520601525 9.821919166468616
Ti 14.801780219054262 9.965515394111886 9.74267403930406
Ti 11.789101435174855 8.69338681011054 12.498300170625948
Ti 13.110038041758507 9.58658577034169 14.951420846458808
Ti 11.359197584244864 7.594442844370489 14.866692521271409
Ti 11.332430039167347 6.271101211410044 12.53382655088987
Ti 14.45304363874869 9.527261235944692 12.47969560761555
Ti 13.702851573908392 7.457824318064075 10.91482330913299
Ti 13.621828765636117 7.273025252251162 13.630153528632889
