47
Energy = -313.22101806 eV
Ti 7.03899617831444 10.494071214974761 13.400721903096876
Ti 7.6968954602778 13.09524244615618 14.015762001424712
Ti 8.616716572304442 10.887215617651838 15.32686798044312
Ti 6.696851497583914 12.221924910577217 11.53735533638814
Ti 10.444332172167279 12.87229974142565 14.976412043080236
Ti 7.9970845734050915 9.749336176447759 11.160031668256861
Ti 9.866805681354599 14.670573860785213 13.302087188500268
Ti 6.837789102244474 13.869239572194797 9.549572489000207
Ti 9.082837540324592 8.865608707569214 13.507079791071376
Ti 11.025955055536826 10.045847398054876 14.945714974254814
Ti 12.657324029842057 12.221002906826653 16.18831206608107
Ti 7.462108167539911 11.406332382184171 8.929274257593743
Ti 7.82082859768354 14.759367983627591 11.741984522743042
Ti 9.521106603781666 11.51738752733008 12.913771041946692
Ti 11.84739711881216 13.307804842367366 12.62200188863735
Ti 11.147746226040182 9.635274882228625 11.786579761633968
Ti 14.059525097483753 10.344580901315556 15.789300002575565
Ti 9.730007568507974 9.968226969661467 9.33130138742087
Ti 9.238860386092998 12.83000898612107 10.376573055485071
Ti 10.752560778017532 15.175846926935208 10.969678519157107
Ti 15.213449641967808 13.073998507567765 16.164744870365904
Ti 8.529599287302283 13.525549167318346 7.692745533931503
Ti 12.541578214101328 11.07586271582474 13.573072353425333
Ti 8.887305957276947 15.41078463394284 9.284444911488588
Ti 11.060911202131926 14.01774181555499 8.532680941697258
Ti 10.086776994480283 7.773783778170141 10.700915143076005
Ti 11.722751468251559 11.926907824580752 10.311336432995905
Ti 13.569100100818764 15.401043168376411 12.459582592927672
Ti 13.062845285893578 14.483563689584246 14.948244520854931
Ti 10.36086519362395 11.680453525389868 7.952868258089019
Ti 14.57377799647947 12.462005533286089 14.071491049070952
Ti 13.618589829631782 8.621977112045824 13.83838665538395
Ti 13.054206500129169 7.740016961529104 11.467354064172465
Ti 14.334088772509988 12.781243008113437 11.585910289675263
Ti 13.492189483685024 14.50370587546095 9.980253012799604
Ti 12.474803707727249 9.389513653059517 9.283313383921254
Ti 13.482471759892384 12.136446843474534 8.765311636684265
Ti 14.041566658059274 10.24270633733784 11.241716295433895
Ti 15.616425075395947 14.824490911273015 13.943491302417847
Ti 16.89884256394306 12.574424168178389 12.337826983955756
Ti 15.912670374722035 14.82117727294207 11.340977939004516
Ti 16.073068483945658 12.699664547226245 9.668865549172063
Ti 15.103506710159957 10.408840483066438 8.615227088429437
Ti 15.869380764165783 10.230955824408833 13.558524036007483
Ti 15.619536039624991 8.20347613245364 12.227693339103173
Ti 15.028082736349962 8.267153233356602 9.774587956632637
Ti 16.71152041878391 10.264876505797604 10.797457377370645
