43
Energy = -287.06596904 eV
Ti 11.685577687540425 10.544723864416126 15.877542770358067
Ti 9.860374705244125 11.294938472899807 14.289002706517477
Ti 11.783559233663818 13.163141244592659 15.298184699537698
Ti 8.222005211884971 9.210834467410097 13.387312204939464
Ti 9.337487279948384 13.734770239093676 13.81305784740726
Ti 7.347341763822419 11.761900189409335 13.04169174939729
Ti 13.501926594901208 9.093484944702478 15.32590899199098
Ti 11.080336576502644 8.639917342401752 13.873897588200176
Ti 14.151702060490063 11.767837898507056 15.25524065680462
Ti 7.452485394849283 14.330508198933202 11.9905052497199
Ti 11.542606567056719 15.331776180048584 13.807810289339853
Ti 11.649096314216724 13.04536492260304 12.530269928422594
Ti 12.69663396930898 10.543191494667123 13.306816671165008
Ti 9.309626088671857 8.001137103669882 11.131700792711163
Ti 10.132659742591157 10.244787551205654 11.995313061717304
Ti 6.558216965200309 12.438909317346248 10.580726968987504
Ti 9.998609667775495 15.151369428028499 11.618168419232095
Ti 7.396997913876937 10.000562685467493 10.928996924127766
Ti 13.956344764391202 14.22625673369343 14.08794722015454
Ti 13.759996255282095 8.055968972842646 13.048029366505306
Ti 9.211595218192754 12.583260226223569 11.238268801367298
Ti 15.402819414626622 14.785217529700986 11.992632041997027
Ti 12.915324699047728 15.243919726149858 11.590050010945662
Ti 16.401603471180593 12.79285930072581 13.486520876490516
Ti 15.537489922942193 10.011724987552133 13.795847388139187
Ti 12.157439998505918 8.871606545767042 11.0312292468592
Ti 8.339069268271547 8.894522294186238 8.805444374830893
Ti 10.233812926228286 10.765171496686609 9.43755680818223
Ti 14.486826799263826 12.169421121724657 12.05599391096299
Ti 7.806700972672093 11.501816145142476 8.469559991651986
Ti 12.48313003260605 11.611687004242018 10.31318066407387
Ti 8.319140661562203 14.124641190457007 9.379800534642637
Ti 10.731504434288127 8.103075126590445 8.834044479988243
Ti 16.583978627153837 13.10776552098461 10.705732408947544
Ti 11.225996423391212 13.966230495518074 9.634474014301363
Ti 14.13479235253382 13.761713447332772 9.723310258995513
Ti 10.105331068810449 10.162332651260988 7.098245345729431
Ti 16.761621732942377 10.818877661363473 11.592772406114278
Ti 12.630399595898725 9.607101692663052 8.360241554134149
Ti 14.81479440198616 9.272768445194423 11.229827071242246
Ti 9.879053831071841 12.851424993419347 7.63624452734606
Ti 12.29241738368408 11.981102853935202 7.765473205553618
Ti 14.980049236097054 11.288855521417382 9.493903200444963
