46
Energy = -307.98819535 eV
Ti 14.366915326336747 13.457707872606932 8.216106096551243
Ti 11.87282543756548 12.414101506333052 7.81778409675964
Ti 13.953038366525828 10.797146030987951 7.850909450167704
Ti 11.545748871739349 9.759215581240824 6.579280492770811
Ti 9.334180824322177 11.543801351394992 7.046450707338538
Ti 12.391860145794485 14.665707595275181 9.470970195786535
Ti 13.530168927676165 8.232591460806573 7.756787307372839
Ti 14.788736013224861 14.397827238937197 10.521245881951657
Ti 9.9581539527136 13.657683889573342 8.855778767151286
Ti 15.822602916553395 11.890519495516951 10.04599735701475
Ti 9.150260196217737 8.84810865346869 7.672390023773084
Ti 7.617503760527075 12.862449299971107 8.649405710369134
Ti 13.258393855382394 12.084093401943711 10.151768293484226
Ti 11.238328678167926 7.402368207351685 7.887965531334612
Ti 7.1781889915209485 10.445206494608504 8.201270571553998
Ti 11.757252749973064 9.736240335555825 9.131416522013742
Ti 10.306796111996723 14.968851437162748 11.66138581255334
Ti 14.563466814390976 9.357631923442627 9.960321597148175
Ti 9.35827393912678 10.907607983105628 9.666180466829381
Ti 12.846126307687689 14.451113337148964 12.134215790986906
Ti 15.61890731410565 13.038211694557303 12.573188991564283
Ti 12.575633043422016 7.323126872357662 10.213262786239351
Ti 8.2983615731749 13.695402191275653 11.064207415489587
Ti 11.503967121846575 7.788069181145248 12.965182628269144
Ti 11.890726636660423 9.794422049406412 11.717917191736879
Ti 13.89680433630479 13.769736503252036 14.60670652913857
Ti 10.043933454355999 7.685704408581827 10.193863018889548
Ti 13.293395095063586 11.804161035819698 12.91254292520282
Ti 11.212960834194792 13.312877925672412 13.927187868000132
Ti 8.491187778577002 14.040003626663076 13.984174790685959
Ti 10.908937061362883 12.490029863212227 11.271968796522472
Ti 15.523680158046098 10.30708237892929 12.395095246373065
Ti 8.830122475906085 11.671988897905768 13.016857835543606
Ti 6.976440627894445 11.24129440472483 10.807390047923963
Ti 7.656504239496936 8.73547683962246 10.024579191119708
Ti 15.221959635957457 11.488364816595123 14.68015368946101
Ti 14.079057445748774 8.149667909279891 12.150720534174084
Ti 6.403256352397615 12.83502816689542 12.854283204862542
Ti 9.174025395700644 9.305997703462152 12.085474599573324
Ti 12.739094886515996 11.672934897223914 15.56938470466218
Ti 11.024018464600555 10.338795222522746 14.255773375871597
Ti 9.537950284339297 12.10910787848769 15.669081410423173
Ti 13.603005862985544 9.37911768459764 14.31131621785612
Ti 7.1208135757546165 11.92189602001974 15.096017415034307
Ti 6.617304555919772 10.166213675786334 13.20005129719375
Ti 8.570897853067363 9.707083306414185 14.827755866121242
