48
Energy = -321.48654289 eV
Ti 13.562318516319033 10.916668838463256 6.479403603537474
Ti 11.603160027762195 12.873784829697124 6.780468165939015
Ti 11.388099305669806 10.066356567601582 7.580280002686197
Ti 14.228789505107025 13.365197809108174 6.987827633637866
Ti 13.59406507378486 9.320675036693732 8.718256379783949
Ti 11.430348349919482 7.9860389228739255 10.272606266892199
Ti 9.706973086863592 11.898526879939332 8.270516434275658
Ti 15.470511218852808 11.33859196250996 8.187824415912408
Ti 12.988085041819863 11.980650615264194 8.836231234104144
Ti 12.782250455944604 14.91968916790785 8.566052457684737
Ti 9.850226316855446 14.690876456662146 8.347682148364663
Ti 9.944460497541314 9.483764993521806 12.327907456994199
Ti 13.959382187800623 7.890101663348398 11.223913681423985
Ti 15.607452746379241 9.376586762471304 12.87052055617804
Ti 8.88476625575088 10.24162153949264 10.05176999315121
Ti 9.566801522327182 8.369581087015472 14.55179551570398
Ti 15.038065979705665 13.713120648583894 9.520085650105138
Ti 13.025447357030886 9.89016120556414 12.508076165233845
Ti 11.612589868332249 10.388929140398023 10.280843216042609
Ti 10.929602933893499 13.60750611690567 10.052430547523654
Ti 10.02355038335276 11.981779009985742 11.928598332972584
Ti 14.831594453441923 11.000862220876607 10.818578583902823
Ti 8.08261987087608 12.859464770422674 10.10740031057233
Ti 11.707960455784054 7.369745035953157 12.896065182215523
Ti 9.123199485515153 11.243631341248367 14.545297011093876
Ti 12.056660303060283 7.854217485262604 15.718961023334893
Ti 13.144718777016765 12.827911483566563 11.593822340085142
Ti 11.626321417471036 10.14674016210326 14.690955093454221
Ti 15.642267393518148 13.529939817929886 12.010981394409333
Ti 13.986777596499161 7.588348348187185 13.80393735328561
Ti 8.803735133784858 15.301216066816018 10.881931033747561
Ti 14.594264043408172 11.778667192311428 13.661015780536731
Ti 8.187799930735917 13.723075909637894 12.800760767925606
Ti 7.654739869389606 11.064817334113028 12.213144092531463
Ti 11.141386231328354 14.59885535179796 12.59517635733525
Ti 10.08195676028193 9.594903500322458 16.671834753711863
Ti 13.618513024225583 15.504130264086504 11.114618796948635
Ti 11.03810957662873 16.423408997506403 10.640432463560272
Ti 11.702773677823316 12.686230431551746 14.051633366104593
Ti 14.372921292858333 9.544398691421293 15.381661637422802
Ti 13.755877864927937 14.576977104977209 13.691634535739214
Ti 12.53359720911257 10.035105508281204 17.239574050645945
Ti 9.43180153360439 14.071842259269356 14.94507581977068
Ti 12.327507256495322 16.834753091960604 13.079121698190287
Ti 9.663689513384329 16.371208772288636 13.268547131225722
Ti 13.486457849116498 12.053290261032165 15.907584993587747
Ti 10.961541871279714 12.160651062068025 16.488154858984863
Ti 11.536952629793268 15.248089933375024 15.131701363904245
