42
Energy = -280.36386419 eV
Ti 7.3854533521948795 13.941074160173363 9.8816994935728
Ti 6.836168452821489 11.367146602207601 10.549893088877491
Ti 6.896072551975316 13.157532377838173 12.379842547825156
Ti 8.440604563160855 11.828664048370111 8.519852183270308
Ti 8.652314093212526 14.98976520656617 11.968014136850718
Ti 10.111234229639617 14.573919505454198 9.754515624340767
Ti 7.978518528184104 10.803029577480153 13.07146412124435
Ti 7.470940326288604 8.394088493939273 12.030198548574425
Ti 8.9706458492077 9.773359426508154 9.966448343568509
Ti 9.199471763075364 12.475253395707051 11.144940564954906
Ti 9.262863316185765 12.935364507367893 13.9055620254078
Ti 10.595111907245835 10.266992794373575 7.582958386694318
Ti 11.972212135915438 16.059774031882633 10.727956011991065
Ti 10.513113078318385 13.028002775089952 7.709971505512749
Ti 9.117863118980416 7.095307518036393 10.555317391157859
Ti 11.920117940744131 12.648347576003458 14.759648842735283
Ti 8.540914440286192 8.580163236431972 14.461260426814098
Ti 9.251564573296767 6.6437360393616185 13.103289854855705
Ti 9.996591893024283 9.039483137929919 12.24602332187585
Ti 11.159144964795075 14.165756950046266 12.527496587003316
Ti 11.357159602847585 11.2578175267485 9.752076327034882
Ti 10.280494301446256 10.436157739880363 15.003108782209088
Ti 11.206699876362537 11.42267379395174 12.64160864347406
Ti 11.107981809311244 8.040678600639332 9.32111559544482
Ti 12.488767380065068 14.805506723553359 8.16406489577794
Ti 13.739967176560462 15.075151608139091 12.407714671220933
Ti 12.71336247336036 13.497451160636482 10.41992602372935
Ti 12.800047805537051 12.059475502665572 7.576912806683869
Ti 11.506227414582767 6.6033061266996 11.83850742606051
Ti 14.372907529625673 15.601294296107827 9.889044096451455
Ti 12.676486478256873 9.367025626260308 11.37622013084664
Ti 13.675087408126151 12.358680564995169 12.80086256995632
Ti 11.323519271646443 7.939529922853768 14.269812306099219
Ti 12.919607853074615 10.083667227440877 14.383106531050599
Ti 13.24475863230375 9.48155648826468 8.633010373739097
Ti 14.787176552383233 13.40192397454322 8.606793206770533
Ti 13.351661944692315 7.116078045288795 10.111395202384548
Ti 14.383385563611112 11.242489750440063 10.253385981708766
Ti 15.42180980931716 13.570975170573837 11.108636847979056
Ti 13.857966691339827 7.653302663753806 12.831085234845986
Ti 14.97061650045791 10.115375816153382 12.704535931454839
Ti 15.131319054543974 8.691052517646293 10.648655615955459
