41
Energy = -272.21245992 eV
Ti 13.63701249590683 7.231648814727831 11.354865123943675
Ti 15.432119466550898 9.253151105463463 11.902354484495323
Ti 12.524487276122086 6.907104978648027 8.825148168165077
Ti 12.4984634905111 8.486520720886219 13.4057793675846
Ti 14.737433664930819 8.312952850790177 9.498024014787058
Ti 14.09598756134202 11.081985348674298 13.867776929427832
Ti 11.103534630257956 7.027567428268429 11.478114673793858
Ti 13.963804037061424 13.988804912083754 12.934387116769555
Ti 11.025213450748126 8.508390999848434 7.185540359798169
Ti 13.321769718905902 10.035852406683201 11.422426322611813
Ti 15.197229506663737 12.007717526701043 11.755147974038653
Ti 9.881213897136423 7.222455963074264 9.03908333136531
Ti 9.879328462687518 8.293198651369154 13.50465208973161
Ti 15.10390267207408 10.880550911850639 9.428022391928485
Ti 11.204700579891973 10.62964292929297 14.322203350524955
Ti 13.438374533981678 9.513620586189498 7.615235744310846
Ti 11.618945712887005 9.071753298590435 9.681271830999059
Ti 12.816505036010158 12.908206295574029 15.058206193431978
Ti 10.315995905873455 10.31103330990454 11.766755397838265
Ti 8.734314517313011 8.301088570368172 11.053893215757888
Ti 13.731381098090923 12.140820606343018 7.562451938127634
Ti 8.64649583184692 11.736397742895287 14.713137491228812
Ti 11.247763688657443 11.17482748710261 7.2374775213593665
Ti 12.198767842194286 11.638598647063555 9.711835272339854
Ti 10.423422642141917 13.058100873510298 15.298960177082854
Ti 7.965822930005485 10.01336977121794 13.07585023146569
Ti 12.152633984332148 12.3917232466557 12.523258238997132
Ti 9.18330106930263 9.83558706467072 8.65142019764745
Ti 14.031960334539088 13.478760055565072 9.921737516974261
Ti 8.54712950022363 14.476302989022114 14.18159190531453
Ti 9.354984363309638 12.982018521064264 12.160613320155862
Ti 11.403718199163585 14.811382464126627 13.810560758584675
Ti 6.843382982899607 12.581516424455199 12.89186708705848
Ti 9.711163901850124 12.328404990530064 9.427969304432807
Ti 11.77680234073795 13.698873643500432 8.259470539875458
Ti 7.569004309156027 10.794685410029874 10.843536389458647
Ti 11.572806071973165 14.400335901255533 10.829855367818597
Ti 7.391643866354674 15.000054487064423 11.897589041613942
Ti 9.74863942215484 15.798894407507248 12.107706054729794
Ti 9.074656015538284 14.838365032347772 9.893076660707433
Ti 7.235833766579196 13.11521507355535 10.201979513116695
