41
Energy = -273.10512392 eV
Ti 11.669314371461306 10.131375836133756 16.016311389238922
Ti 11.826117895524668 14.281844828758704 14.696382929833154
Ti 12.640901079598077 15.895183205115904 12.33576555667633
Ti 13.375609183772577 12.024720995525918 15.51450958689449
Ti 10.701271063089251 12.40898054418411 16.210225532571478
Ti 13.69965398903973 13.617569441769652 13.432531207802977
Ti 15.211725719304896 11.622817389032747 13.014587061096686
Ti 13.528805947244843 9.642403900091978 14.121423717361411
Ti 15.12908782944025 9.374327565490288 12.010376671827242
Ti 10.99901970689724 8.537140244452381 14.175266442179534
Ti 10.084230355518324 15.828262729106962 13.48389456931984
Ti 11.352290258100835 11.643058305292767 13.771162393555215
Ti 9.277867677202735 13.33853042663658 14.09474912288371
Ti 9.243630899667819 10.546928617169986 14.876919110710912
Ti 13.937290094433802 13.64007292636364 11.082571306299924
Ti 11.162669389719692 13.834463563284048 11.963331101668992
Ti 10.398007650846099 16.34605669355221 11.11337655154972
Ti 15.120485355545407 11.072237927973866 10.054141398588081
Ti 13.018586290780211 11.045982647709108 11.697414289909238
Ti 12.940661261984928 7.920301724636694 12.077959145289116
Ti 14.261150031719147 8.44379528950524 9.6841511565662
Ti 10.603408674098388 9.640662377653452 11.697611623706294
Ti 13.027463286116163 12.554016663550247 8.947965674779216
Ti 10.48859214759193 6.980898342208956 12.19510029203079
Ti 11.669076213073968 7.209054293210695 9.776639857807515
Ti 14.119156214201764 10.377910482726241 7.838139117491148
Ti 8.571490634871292 8.800270768972887 12.733958826401096
Ti 12.123679781336207 15.086322825183766 9.563636748051279
Ti 10.5161842596511 12.137668696810238 9.94714751088524
Ti 9.092975621591476 7.721399674290476 10.315050736623538
Ti 8.823544611499607 11.750313720874551 12.162765535267514
Ti 12.53287076053568 8.413253364420607 7.496413636418781
Ti 11.638100999648676 10.972139032527862 7.079502738554182
Ti 10.000670200939082 8.847887356040466 8.202147757077045
Ti 8.466791595920403 14.530022850710866 11.722408266888245
Ti 12.056511660316286 9.931937758191156 9.499083149645681
Ti 8.33270934049187 10.183642367154308 10.090886144596153
Ti 10.45638298575198 13.452981627889862 7.705487261508265
Ti 9.115387688048154 11.173963631560376 7.735920850886983
Ti 8.14520754554448 12.902431558468038 9.350743406982449
Ti 9.518924100494772 15.014672178383481 9.389844995191243
