40
Energy = -265.93002187 eV
Ti 16.366582422296357 10.547149183195137 12.454487998872722
Ti 11.228082773466097 12.138455536211065 8.412379779895979
Ti 15.74899234350733 10.5342149939187 9.87818649696152
Ti 7.651766334518961 12.923121052615313 12.809816302155747
Ti 10.280144242570085 9.460989993538105 14.36029405135761
Ti 11.426977638789152 7.753563318747518 9.8628773771543
Ti 10.481754577362166 16.142734085044708 12.844636064503982
Ti 14.133398640221936 14.014557066004208 15.156857660121599
Ti 15.019805177317807 15.288509021955592 12.555336139883138
Ti 10.651273364713886 14.991898362209277 10.241745106018465
Ti 13.182273323685427 13.54896064529349 12.837772297013366
Ti 9.063512363655592 8.35629652662706 9.07711489777432
Ti 8.89348244032552 10.843803489270613 8.272394034789961
Ti 8.39926187415321 15.011369843028005 11.634116153880829
Ti 8.733476871134275 10.711245148150525 12.74140649523079
Ti 13.902071082519573 10.895818563563129 11.877591810723674
Ti 12.669176522517615 16.038338772394365 11.511845729274853
Ti 9.516523803345297 8.267867054385462 11.758560660576979
Ti 9.070936566418005 12.624965186425655 10.383207270025926
Ti 14.874783644606508 8.545809623080503 11.103990232186709
Ti 13.107342334939247 9.841357696251649 9.53169850638464
Ti 11.07860905816329 9.45433662652566 7.828713113126299
Ti 9.383137927821103 12.249072886301098 14.857776367435537
Ti 14.758561429921528 8.832685827906813 13.53515852462735
Ti 10.533887002553298 10.275912164103678 10.342886755467717
Ti 10.351138549045661 13.494581635990833 12.56327946927424
Ti 12.165293671261702 12.712550993343974 10.513842178972704
Ti 7.799887920897828 10.107766640986632 10.494275259321668
Ti 12.301310900497187 8.523180661520117 12.242653466975012
Ti 11.21611664033188 14.349379613039055 15.114744173823125
Ti 15.959474367776297 13.040101037613729 13.47255215343404
Ti 13.944598349238156 14.653922923295612 9.962837966918265
Ti 14.156402219563754 12.22398522725112 8.870838890385027
Ti 12.717014220188274 9.52695412891912 14.745629205260272
Ti 8.732137569190229 14.77465228776087 14.26868339999116
Ti 15.667713060988477 12.990242745338852 10.935058227014787
Ti 11.443823444324115 11.134740245478575 12.94227370565885
Ti 14.585498861290379 11.339775460806118 14.669593130914958
Ti 12.9044334405793 16.035878683234436 14.039220964754435
Ti 12.092831462719195 11.992743487089191 15.487156420273784
