46
Energy = -305.6448412 eV
Ti 15.846248741528305 13.034476838505444 11.030167149133376
Ti 14.863495613961847 14.310755687483757 8.765187370572404
Ti 14.706277273211198 10.828606293654603 11.421241657637394
Ti 14.347461771497073 11.498525772615384 8.716848944624738
Ti 15.28936834435625 9.223246249056357 9.352734699842806
Ti 13.85772234643239 8.084237165227794 11.01722773843078
Ti 14.522715511662629 15.397635639398267 11.160962437620892
Ti 15.51946323309474 11.824829803395545 13.888246051049407
Ti 15.819922726971075 14.517796130135167 13.263406656737764
Ti 12.837953737731006 13.47379269604423 7.542606393246715
Ti 13.140691248719003 9.949484159743708 13.282868897161936
Ti 13.154598620381051 13.044647316614359 10.21615513499896
Ti 12.257337439792847 10.23922337284314 10.638198475558093
Ti 11.507581213043169 11.368919962540371 8.242158779247308
Ti 12.936358231016538 8.85663259629648 8.498043956190147
Ti 13.570590172219417 15.75611217555135 13.71823316941706
Ti 14.330977574380254 13.882410428123766 15.265226835174104
Ti 11.670939838275629 15.065063261641862 12.024053118234926
Ti 12.438202309412812 15.536787542167957 9.235103375062877
Ti 12.240776748650871 7.390987218981813 13.21743203575488
Ti 13.595577646299889 13.102007341046685 12.846290343197454
Ti 12.890756944010594 11.75610424047162 15.210670594831097
Ti 10.559996914625065 13.1166384530205 10.276403888334206
Ti 9.944237698851202 15.694686199480842 10.16120932655949
Ti 11.246349356337811 11.950331181683326 12.770406418192294
Ti 11.449252866478236 9.094606102924601 15.219589557330735
Ti 11.411705620659225 7.5160235112442 10.425487101541941
Ti 10.130784757759741 6.255631772573928 12.306328803053939
Ti 10.416525526039752 14.273076831039587 7.921506892419483
Ti 11.658617446147657 14.031532562447307 14.549665949049619
Ti 9.025148357822912 11.641604315838082 8.05315519760521
Ti 10.286422272166014 11.382344262332417 15.168701390851876
Ti 10.15343976773948 9.119707984679406 12.757412554068617
Ti 10.02157838279626 7.083187117238942 14.672041465181623
Ti 9.325377486641813 10.758762881896898 10.610660695375083
Ti 9.042614674778124 14.118111192406328 12.165033037689039
Ti 8.173521891397904 14.041108488478612 9.451898105709429
Ti 10.047568340147116 9.021407635842976 8.61237808185738
Ti 8.617713983923732 9.287212886537846 14.955905582236865
Ti 8.703258853528311 7.806132300233449 10.618345318998616
Ti 8.626949040114601 11.536650187247805 13.215526769048433
Ti 6.666710887170108 11.87406986237014 8.741911465441092
Ti 7.421282547483565 9.606350453259411 9.187477405146756
Ti 8.012418366755268 7.404602109927033 13.12264205622369
Ti 7.341827616271429 9.659609951754847 12.12056907049394
Ti 7.1799532543380495 12.351113585908905 11.134521070304888
