47
Energy = -311.39375946 eV
Ti 12.28937746718271 9.569377507594405 8.07012919784453
Ti 11.688106539690773 11.928336493272049 7.019192505039996
Ti 14.097259405079615 9.072780969285954 9.526832256721894
Ti 11.030269774848794 14.365814340469951 5.740458246317034
Ti 9.725196024521427 13.305659723167995 7.709607297107258
Ti 11.565144462703858 8.327266589008302 10.22704834031419
Ti 16.077372760167265 8.983106698408008 11.662931590613116
Ti 12.66970693593544 14.270051282644364 7.700005995584324
Ti 13.515717941596709 11.954914534797195 8.835829484301556
Ti 10.320899494964266 10.872117356351982 9.074107351041045
Ti 8.088341804483248 11.801402861615903 9.873545255801766
Ti 9.450495687290038 9.810610881929051 11.344256140496764
Ti 8.603780471862942 14.55027753390559 9.812626246627804
Ti 13.662633550178148 8.343293593646633 11.904423287087928
Ti 10.720782462468435 15.68278352737048 8.415480660401581
Ti 14.852216158507263 13.918116767201445 9.986428902256586
Ti 15.18837181813198 11.236172814212424 10.758497509047304
Ti 9.198984334910692 10.401157501707818 14.184504622335202
Ti 12.2704197772655 10.729703120622746 10.99480001805391
Ti 7.410521672296923 11.040265532844018 12.30675964654065
Ti 11.507159236666412 9.441111989994406 13.217165952987534
Ti 11.286941204693813 13.452849839878718 9.95901402902178
Ti 7.117514568747141 13.439919417217814 11.614310879052676
Ti 14.063541408523689 10.681875579092818 13.415812416376289
Ti 10.985613115874076 8.163733647060571 15.374073962580868
Ti 12.90621733626601 15.580190786978289 10.183136654483059
Ti 7.9857061931648055 12.939111308270032 14.03542466613344
Ti 12.94489563716469 7.367755625525083 14.190098004109576
Ti 13.378208557281589 13.025790136938125 12.043294261851319
Ti 8.807791750435069 15.094828159324543 12.492246270015528
Ti 9.722836992539579 12.447530841599932 12.026461354811032
Ti 15.504810872743475 8.51491864650957 14.127013596424732
Ti 10.431905671640681 16.124766934198085 10.881851324272745
Ti 16.72944756787279 10.956438434154169 13.200796932048132
Ti 11.27914135290757 10.666672256798607 16.386175047468846
Ti 11.526744921392623 12.188878028070548 14.14929523004433
Ti 11.67090525639474 14.960116271075915 12.649579993689239
Ti 16.23836268966204 13.319024946623308 11.988521599266084
Ti 13.40945691655242 9.314483515833654 15.782138805479123
Ti 15.75372380843159 10.638676221375476 15.5279871922285
Ti 9.409319562315588 12.322345898614634 15.998353762960953
Ti 10.134202528562728 14.561229471676818 14.809483151963065
Ti 14.58705852395397 15.240758203267895 12.466681285836971
Ti 15.398572165581474 13.103847167300131 14.37447687206093
Ti 11.56595545884256 13.326438939160134 16.62572080317148
Ti 13.101023155506528 14.389823457993662 14.755549926390485
Ti 13.687576874867727 12.106493242817193 16.133491189191155
