48
Energy = -320.09721211 eV
Ti 10.13055798425257 10.743743429474648 7.084463539299618
Ti 9.22354344952172 7.285914747547819 11.133286648282692
Ti 8.128735857902445 11.490925761249306 8.40395853532153
Ti 9.421252892036723 8.960587990475327 8.925924004422058
Ti 7.868874698096704 9.579157431823491 11.001795311577302
Ti 7.110087605564527 12.177166213603867 10.46089052379286
Ti 12.580821774969468 10.927798993797152 6.729948795479491
Ti 11.42787725712688 8.592736311259145 7.182800276925064
Ti 11.55541181560899 7.488648399489422 9.720863216676532
Ti 9.056160606979752 8.633639041390923 13.468181932598055
Ti 11.23366721851658 12.82643912876089 8.368257352386763
Ti 7.8866316421838345 13.970878938621842 12.153714015211868
Ti 8.813047954567386 14.058409044365753 9.531187195451105
Ti 9.743229454646132 11.670006540846025 10.416932753248975
Ti 10.589383314126426 9.40804353602879 11.460049236014145
Ti 11.37979153219956 7.289818630799422 12.71642971444704
Ti 9.335029815009872 15.710265216017447 13.649779183146629
Ti 12.108808969559892 10.161944446701444 9.294788124126223
Ti 14.319858952647662 11.711586744560774 8.279260848969127
Ti 8.062958856743386 11.318589080009342 12.86493466469611
Ti 13.562117297572643 8.207730035796033 11.020024297372354
Ti 13.888803162478768 8.864445097184191 8.15026328295448
Ti 11.402515700023699 15.22084089381671 9.841313879895331
Ti 9.093678107284417 13.235843514898042 14.677023291322968
Ti 9.272051003904098 16.02714476222664 11.192052350526394
Ti 10.61640555167151 13.890466068855947 12.079832106621291
Ti 12.67803420427596 12.435883206683553 10.66874522520582
Ti 9.21028020531686 10.68253072783466 15.244603150683197
Ti 12.97205049876487 10.334053779555493 12.508980967583796
Ti 13.603411684577527 14.202750635605703 8.867098841829089
Ti 11.351732219102242 9.16585322254419 14.739788531710603
Ti 10.712620074541388 11.538956414187293 13.331165114866389
Ti 13.628677137360164 8.160830710247405 13.911873844509937
Ti 11.577119868467744 16.298625095315785 12.478337332330822
Ti 15.421995583547302 9.434186589330011 13.079397375847806
Ti 14.955777483355389 10.320539156518516 10.317978939454335
Ti 13.16910477156203 13.181352009222701 13.530348052083431
Ti 13.635856896087219 14.882588405139769 11.514993346378354
Ti 11.370959549902354 14.648703269738652 14.828370108364165
Ti 11.452727689258444 11.998717196619753 15.719812863848665
Ti 15.296959056371358 13.01528464257739 10.374947602707682
Ti 15.235765550860764 11.85423349091292 12.638920744686777
Ti 13.795763719335444 10.695972171601506 14.934578862480125
Ti 13.845775760169778 15.751348098936905 14.357787668390458
Ti 13.892312461293347 13.658593989512761 16.002566908675266
Ti 15.700163679203008 14.357550919320156 13.454047340222479
Ti 16.019048341049682 12.376944579809628 15.099532490252662
Ti 16.00394815035127 14.87352428646607 15.965998947098473
