44
Energy = -292.11918868 eV
Ti 15.56373109113346 12.335196535703725 14.747686297913342
Ti 13.377485909609524 13.666036849174143 16.543673863644955
Ti 16.47702528425777 11.530170200223708 11.943976158137396
Ti 12.936065156712079 11.726570851798522 14.963493051399926
Ti 16.11246070978906 13.989324986978668 12.923471722605093
Ti 10.803071026697209 12.422925042379378 16.406192041612012
Ti 14.08370696599943 14.542391858991165 14.266156283582617
Ti 14.56094264618651 9.860363810314658 13.745136725432094
Ti 11.558531448721503 14.251546898577368 14.577634275701822
Ti 14.240021028683111 12.750742289676552 10.340720681940011
Ti 11.022652125666585 10.015152836103272 15.860139477892258
Ti 9.060296760746752 13.70179787892426 15.40031025554026
Ti 13.961315016875307 12.253997096656807 12.690116159588394
Ti 16.699256970567987 13.872363176314868 10.602265750385808
Ti 10.288508172021926 11.834554208846681 13.708222179723405
Ti 14.379828252143804 15.279223376496082 11.322655170633901
Ti 13.607865244534015 7.890278506654393 12.193592289052559
Ti 12.286510393055263 8.251914314365447 14.450723739942982
Ti 8.563005593421366 10.903557433666158 15.481903520421197
Ti 14.579518921795666 9.998601281008474 10.93437469378448
Ti 11.867378622290069 13.683095895548982 11.863365657227396
Ti 12.102454583112152 10.055970344616112 12.500405335802254
Ti 15.309089758237459 14.515351174619344 8.74556256098031
Ti 9.697269030217472 8.832507879980906 14.009169118031508
Ti 11.14053131635645 7.487596022009726 12.221619035078207
Ti 16.041555466655687 11.856212820691455 8.923231752255376
Ti 11.946970520465895 11.346306304829376 10.046830735424964
Ti 12.855005520554025 14.940097629681185 9.270016152739503
Ti 12.108370896039725 8.78906385241497 9.970137983377251
Ti 10.538645558724308 15.429498351730363 10.705977362992499
Ti 9.601984002869756 12.155906386406155 11.056420207419071
Ti 9.04499743075196 14.393087417493962 12.669760975306904
Ti 7.498631499204699 12.658327414406422 13.921144524054093
Ti 7.807696451626665 10.4473752434698 12.73305819759015
Ti 9.582099749883673 9.340050034456123 11.288056715468846
Ti 13.647562844085469 12.717673845820778 7.6868081579114005
Ti 14.003240220017693 10.219899803680947 8.453419420083709
Ti 11.022323639834607 13.552703117435568 8.767896007110425
Ti 9.680288109225502 9.645880078473752 8.909971432653855
Ti 8.396241055733544 13.90906074727409 9.671003853009454
Ti 7.04919516640964 12.879830242864118 11.574819719782946
Ti 7.614482196101117 11.031500476184672 9.872522381992072
Ti 11.641748242111413 10.73824408410228 7.565590258533024
Ti 9.27385063752026 11.974346656119836 8.084115414045838
