47
Energy = -314.67301601 eV
Ti 7.127290516004145 11.34026160864899 11.799978041300504
Ti 9.85592476620792 13.471322855448593 15.229599497849197
Ti 9.796207021025419 10.62809819051438 15.502574005018888
Ti 8.182670082308226 12.171660883243845 14.03915490692202
Ti 6.217730864072365 10.596418657877996 9.531121898028271
Ti 11.506403272320124 12.270602072728748 16.698533403542836
Ti 7.675771742807031 8.653172968492136 10.81504012579756
Ti 7.370768227176658 13.001836273253765 9.546411068416294
Ti 11.300178921863075 9.036449243942421 13.684207299720969
Ti 8.105332976087482 13.898962978680851 12.070733241042845
Ti 8.897163238891086 9.612675828376716 13.022237676145608
Ti 10.801557178463318 14.36693574948251 12.813707583946453
Ti 12.393588856170021 9.96969662646269 15.852287615609312
Ti 11.695192367864333 11.766486958431612 14.037011379782845
Ti 12.423727135207214 14.313929194829418 15.046949079830984
Ti 8.881497627771063 10.81671255161457 9.59706074490373
Ti 9.861408081118968 7.226392323225132 11.857690108353644
Ti 7.55020040448972 8.92274130917317 8.145928054104528
Ti 9.92561744006313 11.889903934718012 11.955534678884757
Ti 7.487167844171699 11.33153161707481 7.390874564674828
Ti 9.969465548828884 13.897499169335711 10.04609743967593
Ti 14.001774184689328 12.166478484409744 15.619339785206732
Ti 10.940079073535761 9.237241073800849 10.857394634543267
Ti 14.114669951229226 10.303893634631198 13.687372067462633
Ti 11.73926986041202 6.779614261488236 10.073250894743582
Ti 9.6210561797568 7.796969814710118 9.063555570756938
Ti 12.321002288804099 13.13465384093688 10.954659420026534
Ti 15.156019637873758 14.532527052662822 14.72201964024542
Ti 16.188372237282135 12.235520263977328 13.766044569970093
Ti 9.635367959395746 12.69782671221652 7.719558793657806
Ti 13.548871872702465 15.665404490960388 12.731677955477169
Ti 9.9336189327738 10.103233215412814 7.236130701289455
Ti 11.637792871392481 11.466908070273345 9.060381601707407
Ti 12.978679568660985 7.747180022691457 12.311739476272795
Ti 11.886750644849624 15.725707635456622 10.63885018837707
Ti 13.850465595088187 13.060213577491423 13.080745243251876
Ti 13.855227567091994 7.957503203726858 9.921734089121012
Ti 12.245792205209833 14.193397407551316 8.472489151038204
Ti 12.125122452735358 8.737006087342124 8.163923196508296
Ti 15.964455294748248 14.386765089196494 12.281547336130094
Ti 15.322732555225345 9.300195567709643 11.467125630390631
Ti 13.010322331869906 10.416469627371757 11.406104143131659
Ti 12.565081175587531 11.3978896937921 6.931489461868966
Ti 14.317122994484476 14.81623397463419 10.28951899318858
Ti 14.357274455852856 10.179669406319748 8.875419653234976
Ti 14.220463409398983 12.68635451878216 8.7241928298182
Ti 15.265682843303143 11.919784533764359 11.088934815895673
