45
Energy = -299.95697808 eV
Ti 13.663956536542933 12.676270810326432 7.891174461901294
Ti 14.063332907223854 10.08688543044929 8.020902552696395
Ti 11.106145544956334 13.147763920759674 7.591229466280623
Ti 11.595954605791963 10.739169171004622 7.672881638393486
Ti 15.18800682228836 11.393635375765193 9.839886234658445
Ti 15.193110840033146 8.675401955114712 10.209241214084596
Ti 12.57583720161962 9.033746714584835 9.748832271214761
Ti 15.953283623929496 8.16478875675014 12.663268841533245
Ti 14.37547215560172 13.82280270935208 10.567974872396562
Ti 16.5184477696925 10.388491371752437 11.750215942648977
Ti 12.197636473190993 12.048999616301364 10.009624512539913
Ti 13.996688605136772 11.970829652126064 12.364288127443778
Ti 9.816787010709835 14.54030357102768 9.435753725410379
Ti 13.5137165948577 7.168724994074497 11.88906473350164
Ti 10.872063335845874 10.493654617391417 12.059848897896
Ti 10.127716765296906 9.438102668112878 9.472412955796926
Ti 9.401974433941819 11.854635048801 9.07361006611905
Ti 13.579546525263705 16.27590374669547 11.20079237764458
Ti 12.37643980189875 14.865854013606045 9.227242905996292
Ti 13.648215898242112 9.591283035771074 12.3521217090936
Ti 10.822660655081673 7.856491225803242 11.423187615262686
Ti 14.224800575986754 7.963593193988769 14.399760740192566
Ti 10.881297571063442 16.523154345845608 11.11464332421977
Ti 8.301102296899845 10.564229091749858 11.096998699873462
Ti 9.481999931925897 13.035256427896414 11.875139380180809
Ti 11.69405610273985 12.293609021010903 13.762044479657717
Ti 7.412545873994325 13.444760741804787 10.35109263531731
Ti 11.654265987518198 8.259115579557944 13.839595024850798
Ti 14.212825008541687 14.65117065073673 13.336965002432311
Ti 10.336044755743425 10.323475794812044 15.259351934381678
Ti 16.237419189506916 12.822892666919453 12.835005343223774
Ti 11.989103244679942 14.278405248741523 11.860632373733475
Ti 8.389352887101204 15.554867715473346 11.397636594523252
Ti 6.4983542661062055 11.966335692284233 12.23764818450053
Ti 15.693749328443285 10.342182647897186 14.21142926471784
Ti 9.073890837433922 8.777601974701327 13.12718470929667
Ti 12.277424455968779 16.551462417194273 13.326315398355534
Ti 14.175234073773678 12.66795828275474 15.015252479196425
Ti 12.997073324040139 10.245516372634423 15.041876309341164
Ti 8.570533696345677 11.240245070587388 13.66610162547144
Ti 11.822255605502153 12.276671181096722 16.317090980063313
Ti 7.454932045116842 14.052884065946412 13.20406247767021
Ti 9.594344986165908 13.243625717175803 15.050095751964243
Ti 9.877851083630407 15.49392918374023 13.562477205752062
Ti 11.98733310682749 14.617666457463054 15.079420022256922
