49
Energy = -328.35246895 eV
Ti 14.954579159646984 9.406578254886051 14.725255029552578
Ti 12.913111706080551 8.480507913209832 16.106581813304928
Ti 13.426384027987208 11.157003120484985 16.26514888523737
Ti 13.473894425008696 13.837671468497014 16.028493412049198
Ti 11.328737850458815 12.785071322565251 16.998638909393947
Ti 16.06915914038246 11.945123367682966 11.778541201504641
Ti 13.33482730797867 7.330309791648917 13.762079651991085
Ti 10.83291684894193 10.269560464830358 16.149702664769595
Ti 15.20121125052956 14.547069575634676 12.162200492927694
Ti 14.503967112335863 9.699829360364777 12.140791057727133
Ti 14.527969110127039 12.155579881930365 13.948893772258728
Ti 10.838390333192546 7.774416541477903 14.728988073541164
Ti 12.44003657672189 9.876951588750309 13.912553193503284
Ti 10.973723556366938 14.949835721823987 15.47970329978162
Ti 11.848865154129797 12.429296682732227 14.37233916493805
Ti 13.518414920635998 16.913790519835135 12.008352578419311
Ti 15.215037708717135 13.45155836898785 9.685270047903604
Ti 15.365461826326802 10.680370845704221 9.83473182920624
Ti 13.014219986944745 14.893500973243652 13.726410712582398
Ti 9.15212908378102 12.916032239442208 15.501371944229897
Ti 14.605867306163606 16.004285426484746 9.889381305231547
Ti 13.410544585209005 7.546481039785418 11.122799938891918
Ti 13.347611371049643 11.943348738783639 11.375591372024848
Ti 9.542521228846256 10.634381302922892 13.865869423657418
Ti 11.07401455229316 6.636237673944596 12.24575677826637
Ti 10.330744668637871 13.973828838820692 13.020633415573267
Ti 12.66596033893254 14.555310779349243 11.121816799577749
Ti 12.968874133433177 9.71123098279069 9.583387510947128
Ti 8.395790767745671 15.08101292547376 14.08444028692795
Ti 11.11230974554374 9.263317932383817 11.620762759643453
Ti 14.173515258198472 11.910578724932277 7.79868197818381
Ti 8.914828338093171 8.205958975644943 13.058443139116067
Ti 10.84793674664957 16.30524980782799 12.215019995624985
Ti 7.939326723127109 12.591628787745824 13.144166571489041
Ti 12.06258049034795 16.718485500681933 9.748587212631588
Ti 11.44211252788393 7.5036848357362675 9.603991120146336
Ti 13.041149098255973 14.549384151365963 8.182149398533832
Ti 10.243384176480312 11.992667531655094 11.343200765534876
Ti 11.682898556026998 12.24006321845257 8.923410498792245
Ti 9.094666918355896 7.661546108695126 10.617778254942076
Ti 8.396020319289791 10.16454842174866 11.368837327404302
Ti 10.36430539707242 14.535421589876007 9.94544790572425
Ti 8.341670204168974 14.384943159540041 11.380162272753802
Ti 12.12112257493855 10.158971636723598 7.163604508960398
Ti 10.101551959207667 9.947958986069215 9.171272028681564
Ti 12.23443106271459 12.683761831195339 6.306022106028506
Ti 10.377265422332664 14.134810846158937 7.37927909154713
Ti 8.836041415846047 12.473875260687658 9.072048622476863
Ti 9.955807593483014 11.544857547412958 6.8893004424864674
