42
Energy = -279.36606386 eV
Ti 11.67351046509144 12.390749577772343 7.4812704492878455
Ti 10.371671056453508 10.659877686870528 8.89508141391363
Ti 9.839118247477645 13.185907373632006 9.344958762137137
Ti 13.11704036491491 10.270881605132153 8.410899063230362
Ti 12.299841478310912 14.649246544362825 8.759022019404155
Ti 8.584909201298855 8.91002485261311 9.50287737679303
Ti 7.990247034856143 11.280860242639225 10.240250097783798
Ti 8.147870967421987 13.809761325937826 11.528127213739628
Ti 14.057328960201326 12.744185869716013 7.983407151019649
Ti 12.757711193251307 9.881060064869528 11.15399979170769
Ti 13.29434510690755 16.36207401971474 11.014078312165456
Ti 12.375177690892787 12.308715821556964 10.063819727228472
Ti 7.427679440613978 11.67432941729248 12.682193435116238
Ti 7.525889252038856 9.1291889612955 12.005542668747154
Ti 14.729814054689573 14.256416218570724 9.833239602200639
Ti 9.201115067756609 7.215940079254304 11.13320565938001
Ti 10.344248750693499 12.45557552705082 12.217155063732546
Ti 13.094888304030322 14.05166867346431 12.173303832550072
Ti 10.033807611139341 9.785575285397822 11.657654036969076
Ti 10.675355384443646 14.937584366173704 10.979651718282234
Ti 11.214551094506417 8.24145284150086 9.580969110407427
Ti 9.269513478902496 15.296591855085675 13.162846685017854
Ti 8.797528989797513 13.045787444183885 14.334807525165017
Ti 15.441122335832432 15.44877977404898 12.014337898947007
Ti 11.317968862722308 14.213187925325068 14.257356004473277
Ti 8.822460164488218 10.244061902619741 14.260127802362417
Ti 14.978179893715142 11.225931921243978 10.016342056616379
Ti 13.616209126751718 16.040109732172773 13.863955375986547
Ti 9.458072245699661 7.85593624427202 13.505365850308356
Ti 15.79965819052897 12.700885136396964 11.933325252193802
Ti 13.187427108512738 11.510990895524571 13.136878450756022
Ti 11.49858307277427 16.495680867928034 12.838918320163598
Ti 14.198125379501489 8.249664594435792 10.540213248498043
Ti 15.337888894328888 14.153819571974598 14.085267362552004
Ti 13.482709922159819 13.057784577986132 15.479124948997951
Ti 11.152489948750201 11.70793397109713 14.964002839165971
Ti 11.503169292316793 9.319773786425072 14.104094454893453
Ti 15.423628840211645 9.98790610931945 12.550828187177071
Ti 11.719162346752642 7.448372945140114 12.000991098849184
Ti 15.599125061723385 11.785747087945019 14.472938469577803
Ti 13.667433915226292 10.390746235463475 15.358944357092698
Ti 13.790619958957068 8.446415047443914 13.320468480611119
