42
Energy = -279.82902137 eV
Ti 15.115932106200102 12.350040678923715 10.947731101013364
Ti 15.373754037533095 9.55052145650736 8.846134962116103
Ti 14.431322065537353 7.451223824372546 10.161674882505052
Ti 14.128492072582961 9.918811004677238 11.284753751907827
Ti 13.841063666849902 11.456788382625389 13.349967008678156
Ti 13.541333664251503 8.687753858448435 13.53819769290838
Ti 14.182935825721772 7.501421456213458 7.5478113005150504
Ti 13.970434808926347 14.053114837605978 12.463541869270422
Ti 13.879661387256423 11.79746954360458 8.672379914623455
Ti 13.591095554544744 14.37101243787101 9.844391653214368
Ti 12.197469592823001 6.631977542356988 8.984188879596053
Ti 12.085433116393366 7.775148909229788 11.413478363019134
Ti 13.787742665442359 9.907146089527341 6.7193704142245485
Ti 12.728350572129086 9.272513472372031 9.100677094572852
Ti 11.871729535030717 10.162829479236633 15.116996056053729
Ti 12.455054489669385 12.372159379936907 11.08155960631041
Ti 11.5055000045671 12.918366383292595 13.55260084502621
Ti 11.556311117761236 10.127824365714211 12.555991177117614
Ti 11.187105681221247 7.8294940660684835 13.961980252629468
Ti 11.870289321309766 15.06870597383432 11.805147042725396
Ti 11.749459769180202 8.136369336432873 6.872108563430293
Ti 9.838123682816097 11.767275326185395 15.377224383101918
Ti 11.185286980980683 10.590169293620534 7.140576956542499
Ti 9.25033009938166 9.329820137528031 14.775902795479707
Ti 9.65438111267183 12.918692554109546 10.918037672556533
Ti 9.393116784055266 8.139685204422294 12.055824305043412
Ti 11.509602743198633 12.80171668471771 8.462573567187853
Ti 9.302488210941698 15.272125015283917 12.042518458091145
Ti 10.53021885238979 10.577842737214397 10.03924733912687
Ti 10.063701137941631 8.398631922767434 9.0721424854551
Ti 10.575102593696679 15.083716272840702 9.620497104757524
Ti 8.986424025689736 13.69692600989915 14.142127094580097
Ti 9.015849528221137 11.19368965246036 12.773472150240293
Ti 9.068523285889055 13.328336701466478 8.192204973699795
Ti 7.269666250191069 11.538642142192995 14.534814507957803
Ti 8.71268926236204 10.752180781423617 8.178440799176485
Ti 7.251451708414063 9.171877637974127 13.146805266510587
Ti 7.887353566974807 14.733123507290472 10.024252322901697
Ti 7.862792237495342 9.622909518916206 10.515767623099142
Ti 7.230934069242677 12.178924626466497 9.86103396083762
Ti 7.1679572158081735 13.555557925357165 12.381142855954234
Ti 6.319960480225181 11.133888752529547 12.051135829760081
