46
Energy = -307.57140264 eV
Ti 12.235885975172211 11.621903271881296 7.761866357624376
Ti 9.644319765767984 11.824021870593548 8.008658637419808
Ti 13.340013297670515 9.004349337147309 8.452953862480273
Ti 11.026099276159954 14.199667441258978 7.775057666935877
Ti 11.529086115145768 6.765334353507998 9.271734942515696
Ti 14.166214078022742 7.1475943896128795 10.000020854482017
Ti 10.877191570709607 9.417562674382669 8.488228921782662
Ti 14.979770961512777 11.196251292648482 8.744887774150124
Ti 15.24787577646732 9.322956932769722 10.701415410898873
Ti 13.602286706696436 13.479012104657052 8.95301021715791
Ti 11.030284145373694 13.286403786409053 9.983610706319142
Ti 8.531259021152932 13.834643738748754 8.932929231153592
Ti 9.266205745814492 8.429722737079498 10.298778683699945
Ti 12.761919051140048 5.931943331858687 11.596408234157677
Ti 11.931532437101161 8.421495044332959 11.063553454664795
Ti 13.05703962580871 10.937038897346563 10.396450864633863
Ti 7.8683538501539925 11.683177396876431 10.264465391729816
Ti 12.582319972748223 15.605356912829293 10.046945947575667
Ti 10.334365137263207 6.336972238081254 11.685452339449222
Ti 14.319556868651354 7.721722163304932 12.779033636848752
Ti 10.45564640328453 10.804732557863836 10.819184555066268
Ti 15.142844779551234 14.748053856873206 10.677486099832274
Ti 15.327918131134807 12.038939729252991 11.361584607713661
Ti 9.574965299168529 15.682567393280822 10.218138336099939
Ti 13.022046360359159 13.538916827502858 11.836546543208994
Ti 9.645672491458877 8.304917282053939 12.915060720054685
Ti 15.455024376288407 10.034406122537241 13.16367958984548
Ti 8.697211794108918 10.60480906175864 12.66669225434295
Ti 7.002445233107633 14.422729347982072 11.095610533161592
Ti 9.144149217473219 13.48008563884373 12.050060621091793
Ti 11.90932760343653 7.328202111294002 13.77004985624363
Ti 15.278899954642538 14.145806267778859 13.189331249500771
Ti 13.600440871095532 9.386800759045403 15.056407049056109
Ti 13.73216396852233 16.054342900652184 12.436386612807963
Ti 8.600804866534322 16.06342085788031 12.647515485596212
Ti 11.057624602482024 12.28675252626972 13.239593726374203
Ti 12.670503640642064 10.07095798948586 12.95452468011213
Ti 11.158149673867705 15.588857640099466 12.429156495372803
Ti 14.196583740122431 12.026717578985131 14.145328206960862
Ti 6.761358095798295 12.252166819115349 12.670102697864536
Ti 10.613124650796252 9.727163866613681 14.715249266644426
Ti 12.849051860381781 14.392237808033773 14.39775691913842
Ti 7.25131117070079 14.390674925852519 13.80342267188366
Ti 8.695868223775902 12.251430897122074 14.637158971031099
Ti 9.880039675991195 14.537342089121658 14.531105188043485
Ti 11.992560016504928 11.717153309135394 15.414720007034552
