46
Energy = -307.61783522 eV
Ti 12.342468436028293 6.000154506288196 11.005041886884264
Ti 13.317411681649384 14.612109855595241 10.724368618159051
Ti 14.395685330236814 7.611804831545091 10.859320815190786
Ti 7.792814162365606 14.880928158824693 8.759491609388867
Ti 6.596831918016083 12.518291465162191 9.582415784840954
Ti 10.381090507758994 6.327871836408327 9.479724468287515
Ti 11.171530885312372 10.725545888560141 9.087994477798391
Ti 8.205781510011619 14.24054272876403 11.19862864753447
Ti 7.547553234573166 12.794224305735783 7.103368451201159
Ti 9.667932081625777 14.302274487564015 7.031054100744433
Ti 10.70112058236531 11.68804430838536 15.206343065091781
Ti 7.9022583286884345 10.362519119482732 8.189933625677178
Ti 9.977124053065502 11.542544583113447 6.826084404139874
Ti 12.560746111388474 12.498960318001417 12.916260112315259
Ti 7.996238071520967 9.034987676181172 12.573411515817181
Ti 6.629097521732294 9.955099630552965 10.479994122893443
Ti 11.788026892426265 8.46864578271779 10.208466735934211
Ti 10.480596104315707 15.071466106523816 9.666236445759527
Ti 9.244677948139836 12.781738056848614 9.123517323982146
Ti 8.509860210355809 10.833872036233199 14.295821253269233
Ti 9.05528891105815 10.762997914477877 10.772859210496142
Ti 14.946646518362027 12.773312006762092 11.355119270229606
Ti 15.707863252705549 10.186435328663142 11.007798038032472
Ti 9.89467708744661 12.779630800177879 12.685385330781132
Ti 8.608622903095426 13.506392670277137 14.377537251062384
Ti 15.061280938800522 11.522495518090148 13.51797695634034
Ti 8.758781905627723 8.29021068355257 10.021608011726897
Ti 10.708433564405622 9.978318998374831 12.642340550025787
Ti 12.940106567568735 9.95848296591183 14.592117598435554
Ti 10.129156910204872 7.1947286517320626 12.072476117176043
Ti 10.269635888809372 8.431703170131936 7.790385582211035
Ti 7.204154582592595 11.962570589056538 12.29004988765499
Ti 14.027725644372438 14.33669160026307 13.488065316810761
Ti 13.844919004081424 11.646623547454864 9.254664094663639
Ti 14.340034126718242 9.138828234261645 8.914362354393232
Ti 12.757634883289686 6.975088070324648 8.428402423962567
Ti 11.440787952137146 15.10144572416383 12.359195441925502
Ti 11.462362572909857 14.208309635482138 14.68863292225609
Ti 12.489221294030497 9.585182527848291 7.333376004526642
Ti 11.761308287485763 13.242784831364384 8.05867594486498
Ti 13.275597256606037 12.458906481654747 15.4081470032718
Ti 10.351735716497917 8.791241655488555 14.668142105574839
Ti 11.587938161357926 12.709903014000277 10.579602831475132
Ti 14.913550881158269 8.818662150491491 13.205146076408104
Ti 13.305753619271174 10.240654814478816 11.666189605169926
Ti 12.514486973334085 7.713323708531524 13.070817581118924
