43
Energy = -284.83640428 eV
Ti 12.52228404348695 9.003184807933007 8.165974148039176
Ti 10.371392257467754 7.964880382037619 9.319858206163433
Ti 14.773425577829537 9.457637155923496 9.987318745486485
Ti 12.235491379621184 10.115441519798495 10.277035143232702
Ti 10.070374077471385 7.020676967673139 11.50306183421165
Ti 12.630071146853991 7.5724225419991225 10.724119545952798
Ti 8.130115722352626 8.819399818248273 10.834673302585381
Ti 11.720419428379387 8.102000999319397 13.364588678849485
Ti 13.953549872632507 9.530482117165553 12.510045389262213
Ti 16.049713088535324 12.300281172063688 9.736807915913552
Ti 14.1135875826113 11.15494350510548 8.24481282109071
Ti 12.932284677060782 9.616410114241198 15.117966374204283
Ti 11.668655122935165 11.893530149319401 7.621517556620925
Ti 9.803409982610322 10.252793267390857 8.700819172608625
Ti 11.923062402637274 11.095560812398137 13.24607014565544
Ti 11.163800391571389 12.52476542998525 10.165357916563998
Ti 9.021966260927258 8.18358195425891 13.42741448632677
Ti 16.154416096318254 11.989201191542223 12.315415842552211
Ti 13.8731974186224 11.895340899622912 11.008184092991257
Ti 14.678927972105107 11.521777321107535 14.638576432890652
Ti 13.580921746829793 13.603548494299389 8.78142413169475
Ti 10.212411120694641 9.984193289935963 14.87553710600356
Ti 13.373144425005183 13.345032764673244 13.128907030831437
Ti 10.206393226642884 9.738767153424854 11.66152730770367
Ti 17.315216466159555 14.167848636340167 11.49525013126997
Ti 11.135848266390752 14.53514154508351 8.528811181590347
Ti 14.996036442517271 14.377630679404323 11.232173754001188
Ti 8.16565170530362 10.744831727417866 13.216636011726836
Ti 12.226250362326859 11.945968633567897 15.830619583399661
Ti 9.20796052694756 12.911308536454072 8.45141973440846
Ti 8.536251839275394 11.748938597807506 10.71845167351148
Ti 13.856058944854048 14.010854728420371 15.631380323214652
Ti 10.148448168956925 12.929424280544913 12.70140733788139
Ti 15.848716897600971 13.993920843713198 13.90671255833777
Ti 12.232929329389062 14.742183352496172 11.062868648403617
Ti 9.414903372726553 14.518450665985378 10.781080401342171
Ti 8.985050214729613 12.604709438113927 14.985235694964736
Ti 7.5673651616035364 13.264165602438403 12.7005999834329
Ti 11.391701431942884 14.222996150362581 14.6847715124644
Ti 13.475781126802772 15.843531915202199 13.642501369705613
Ti 10.947250433596157 16.106624031534107 12.752463219520049
Ti 8.978822576440606 15.080965991175448 13.887770640205872
Ti 11.345287907851102 16.492333952250796 15.35276228903477
