49
Energy = -327.08611677 eV
Ti 14.953220298135797 15.13465328235845 10.578562892875226
Ti 16.273714818911866 12.898603881225108 11.494353133673112
Ti 13.980232780635053 14.170588509793344 12.780651279141875
Ti 15.501548681879862 12.329486144578626 13.95420432734688
Ti 14.498474248152643 14.304878524003339 15.931520171953364
Ti 14.998082468760595 11.62174364227609 16.471050753341
Ti 11.934982349642642 14.52988175498235 16.681480553493195
Ti 12.025648688715275 14.029427346838224 10.559931209671424
Ti 13.110981009278682 12.728493538179592 17.709481063603068
Ti 16.08992838162553 10.16318847129482 12.442046830132393
Ti 16.030117003132066 10.902134365577199 9.967127612973412
Ti 14.516131873805001 13.030559269506014 9.267048980994586
Ti 12.369738878831132 15.275384301794043 14.334818064252868
Ti 13.96720501553822 11.691800289240698 11.68264179466631
Ti 14.22719775495603 9.933423117503093 14.47356020414817
Ti 11.058382824701711 16.51503954240242 9.864583608441789
Ti 10.024904565767931 14.186607990681152 14.911369481825831
Ti 12.95087611632182 12.504466997896639 15.007475789522347
Ti 12.71982852970629 10.334423486267927 16.70966468044665
Ti 10.563703084366548 15.445899958054673 12.384937848355635
Ti 13.801267874108506 10.502651493927488 8.622941636250012
Ti 13.156036439806218 15.48519546542383 8.7370452005416
Ti 12.9680233990622 16.400454821660944 11.422114445750166
Ti 10.702721230411473 12.080246944405435 16.526806647076302
Ti 12.259841808358173 12.661585514814195 7.703719364297844
Ti 14.645475680055826 7.521344149212054 13.116636179505566
Ti 12.497132101930292 7.896843022168252 14.619774324678453
Ti 10.45314899153499 14.599969774287649 8.108625097987279
Ti 11.082410073158991 10.082311213472241 14.582378396678706
Ti 14.527788072923952 8.847213978759253 10.707256228216874
Ti 12.556371083764038 9.47284421171707 12.407987898334671
Ti 9.116480316983083 11.720138871396085 14.284049421149994
Ti 11.38414887114949 12.631993615037379 12.965813422403311
Ti 11.722374795252156 11.320994486010346 9.958530173320256
Ti 8.73131791976772 13.456273971635607 12.52868488403716
Ti 9.433977012902478 12.747766704504437 10.051634347894781
Ti 11.308324096438172 10.087176574639273 7.705551894332734
Ti 8.79672726242379 15.398778347804408 10.224890366950737
Ti 9.588088504054094 12.005195262398487 7.429257876159003
Ti 12.360482837068487 5.8410699649030215 13.46212158862392
Ti 7.90524819057021 14.006679173019984 8.218963608617953
Ti 12.775250771560646 6.897590890340245 11.403759146025175
Ti 10.515134315969318 7.853282600944766 12.55300132087986
Ti 10.062465441822454 10.624295175836675 11.937609273234768
Ti 11.654278833624208 8.712965046915631 10.03818357903261
Ti 7.612534877877602 11.131638134798125 11.405017611813708
Ti 6.903178388094222 13.471459130250246 10.55787060897752
Ti 9.208958052015616 9.965128738061894 9.418029231373536
Ti 7.302409277743092 11.594936983527836 8.79085691545637
