43
Energy = -285.57244397 eV
Ti 14.169111028381028 15.26875011694923 15.84286774161549
Ti 12.882486638096706 16.0344317112657 13.564917156383874
Ti 11.558784980408996 14.949489004615527 15.516502743772287
Ti 12.587498406801856 12.919748618774053 16.558206155791908
Ti 13.740700961905269 16.0921926816945 10.900352075828495
Ti 13.929557333538694 13.25332320198618 14.392113747301607
Ti 15.185028736698973 15.002072889678821 12.807553213271325
Ti 10.23627120298319 15.265062774311879 13.047960832977626
Ti 12.169696707886295 10.493796085983867 15.338656452249625
Ti 11.246148936037267 12.876126902224085 14.06419892906016
Ti 12.899816591793336 13.926967925300337 11.931616006528145
Ti 9.992213726919752 11.502268589015442 15.944093843322841
Ti 12.945999364370884 11.238027749992632 12.668691720545919
Ti 11.061587058774215 15.758012710775908 10.757607905927104
Ti 15.639339361375704 12.217521092334898 12.45614414664366
Ti 8.634652965732853 13.36462482179693 13.595444252677428
Ti 14.738898436672745 10.512829510008482 14.355339967145742
Ti 9.915771441764178 8.866441611278328 14.82823588642059
Ti 10.371932813633826 13.081843331881895 11.356142593834564
Ti 10.3274466346149 10.551768781043016 13.034275890552427
Ti 8.088055060260855 10.932387762169363 14.44009541246924
Ti 8.395413252320752 14.405511433556914 10.948613500318896
Ti 15.096810508665387 13.845852670766567 10.211149524457898
Ti 13.491390835577453 11.549893339616272 10.116811937319792
Ti 12.748563304747991 14.23640744659664 9.114419591328776
Ti 8.142296762461603 9.054729564710039 12.83956740182443
Ti 12.623290890618899 8.672050518998859 13.69076489983302
Ti 10.165137882706127 14.210357875713452 8.882116713369175
Ti 16.17560918370124 11.384984123362079 10.079639541719214
Ti 7.87944691553531 11.633639882039548 11.794509121865714
Ti 15.239182945439554 9.621112164031517 11.793903638462517
Ti 10.817749970930022 10.725625052394642 10.184236153971364
Ti 8.661515775093395 12.089075521083602 9.169346473806607
Ti 10.464445179729157 7.989279875235762 11.983265035573702
Ti 14.315577113436824 11.883698302003321 8.012530389297595
Ti 11.294433146313638 12.086789817062957 7.903000968232764
Ti 14.938231930062596 9.373675326781935 9.110896357204311
Ti 8.53148852772402 9.44987448030805 10.298206577556702
Ti 12.704863704363943 9.151014601354705 10.977514555391563
Ti 9.797631922448284 9.960596543725508 7.939364207590395
Ti 12.502515436836315 9.487216840354352 8.211163696074745
Ti 10.649355227060816 8.028783667359132 9.389735368635176
Ti 13.249278137489322 7.257370021775298 10.153454613757843
