42
Energy = -280.08721028 eV
Ti 10.721337513821641 13.636164474893633 13.92558404239759
Ti 12.531987779074795 11.508375196660088 14.517073147816129
Ti 11.30989917023858 15.665747274083802 12.304188145879007
Ti 9.909783029792418 11.103453236126548 14.682294122100798
Ti 8.203827934226696 12.96816462280141 13.648248178253501
Ti 13.178153461747486 13.809648795164133 13.027750092381703
Ti 14.768909290994921 11.66552283116144 13.089796075532789
Ti 11.67372810810245 8.718728067104793 14.540044000236593
Ti 8.932393839370974 8.657804062508522 14.726013008664792
Ti 9.047884860489361 14.676584310987545 11.622277038992298
Ti 12.441171954915578 11.116765845085085 12.037528113545589
Ti 7.5705146295175485 10.436894026411437 13.326393258039467
Ti 13.908408697068214 9.171401887599677 12.933764000852891
Ti 13.38024391460293 15.496209558382178 10.908268902464926
Ti 9.928162811808305 12.084150126358466 11.949003359918693
Ti 10.912182050025809 15.74168222096376 9.557699280282796
Ti 7.474469301461743 12.18443828579553 11.040603737206052
Ti 14.743183452493282 13.259219533076466 10.912111358267362
Ti 10.289918161164042 9.173133445707 12.573172388315273
Ti 10.092232078117258 6.753693767571973 13.375487483288051
Ti 15.039832844379035 10.539226618415137 10.701748440528585
Ti 11.542660622522051 13.655634097879862 10.536888399666708
Ti 15.27162162527158 12.193098050586533 8.557677796426308
Ti 9.026364632156767 13.715577282323775 9.259359256937504
Ti 7.728646440269128 7.725155584867567 12.488322125076266
Ti 8.683203813343015 9.703070109875537 10.818113415274833
Ti 12.810802093801131 11.802464044784067 9.343371435505274
Ti 13.442734075391717 14.359257283972825 8.50691082181341
Ti 6.1583202188058594 9.680896601151936 11.17812226657381
Ti 12.24988146907963 7.319431173499857 11.907179032533989
Ti 11.65985942454223 9.464528371874696 10.061477821204466
Ti 14.137792795575303 8.277403752546977 10.41476040833529
Ti 9.765695235980369 7.000633183904285 10.680890839358199
Ti 9.886610562144881 11.354209083754563 9.117607412253204
Ti 7.302343166948122 10.304403154169105 8.819184170221853
Ti 13.919285904320512 9.75466073228365 8.138661000618669
Ti 11.145889076402527 13.46483818612567 7.705511075475873
Ti 13.349923688734163 12.175883093023508 6.879363168574963
Ti 7.328071682404977 7.785449763720542 9.791656018745492
Ti 12.056922363574825 7.386418882862212 9.001376381713905
Ti 9.44080977843105 8.605202499123356 8.4437966869545
Ti 11.491347274803173 10.361787708725366 7.4077331196863625
