43
Energy = -285.3232355 eV
Ti 13.853028607823672 8.670494655082484 10.18251604059226
Ti 15.68187183685125 9.061224232292552 11.855494284410101
Ti 15.321313601412982 10.830318905574241 9.610699836367441
Ti 16.674119246907946 11.80375476672758 11.756516637771421
Ti 11.451476643074999 12.290084098036756 7.786388145920606
Ti 12.343426003004359 10.74171239040849 9.705402107324238
Ti 13.408090566900997 7.236973053668422 12.49702963588417
Ti 12.923112212236497 9.642523889938241 12.702817188135246
Ti 15.545250110677769 13.602407235804364 10.155293855612783
Ti 14.827792903213089 8.6426838236254 14.344759715921324
Ti 13.647086057612112 13.193431178333721 8.785417138113555
Ti 11.4745930198837 8.330523821747844 10.750021589137068
Ti 14.055364799160785 11.756207382959115 11.548853936169664
Ti 9.752267561859224 10.900455301891087 9.130483143984566
Ti 15.465863381510891 15.440061302967054 11.91523782309426
Ti 10.826151359827556 13.023914830851346 10.450004339714036
Ti 11.531172643857555 14.902250640262078 8.416585599950059
Ti 15.850221097511032 10.77089168409912 13.820412532155435
Ti 10.64191274375348 8.060693827622114 13.249566801849454
Ti 10.095834451370457 10.46084311751622 11.63328844783775
Ti 12.416825255940937 8.356461283171342 15.009410085041887
Ti 13.918160799913876 15.94298143519238 9.646092268330698
Ti 9.217692955190143 13.285349838360828 8.184271369915495
Ti 10.854943286582161 10.57468087116932 14.283456051817318
Ti 14.78158460036885 13.226864175675868 13.457020032154276
Ti 8.41579569717019 9.876519477016148 13.725401888067939
Ti 9.765454945100675 9.05523652566274 15.874541242264554
Ti 13.086211942792003 14.348231231140144 11.320790151289987
Ti 13.248373849887399 16.993494473167747 12.190803760730603
Ti 13.606377005186719 11.031385639965524 15.051830094999778
Ti 12.04412087598411 12.564687180848964 13.350738644836978
Ti 9.134897970573773 15.11752627477912 9.645876537927595
Ti 8.225951071184054 12.744638193491934 10.641584295693308
Ti 8.7646071976202 11.501050306638193 15.737585091995294
Ti 11.213929749710893 16.273652216935385 10.657595937484768
Ti 14.11820435822276 15.669987359796902 14.130317384412676
Ti 9.285727305878707 14.794119820030469 12.11022129704211
Ti 12.760611566648798 14.004309267346455 15.633492686184491
Ti 9.172305459080938 12.440766289684758 13.199809277249399
Ti 11.315916076765893 11.722521659496104 16.552414548736056
Ti 11.556200055621268 15.043472986439589 13.300185055390086
Ti 10.244781149384238 13.770718425385054 15.302627757382313
Ti 11.77818945949141 16.580840484775937 14.993331791086476
