40
Energy = -265.62889742 eV
Ti 14.231426574093456 11.057047711699198 7.564978270461458
Ti 12.103862868142912 9.992175614601422 6.261151107554397
Ti 12.71452865301759 12.49996548988364 5.845423010929182
Ti 12.698411788483979 9.052878654606031 8.623917156720475
Ti 14.365095657652644 9.729378302128296 10.69129917076016
Ti 13.59266019316224 13.636143680027063 8.070000690407463
Ti 10.042097092489586 7.7299056998672295 9.87856920597896
Ti 10.146794127540968 11.830464881829675 6.15790721348517
Ti 10.383210152646752 6.921834286426236 12.353580413564158
Ti 13.468922770270698 11.998832323348452 10.2694057640828
Ti 11.729806714840823 11.732821799962192 8.190668690378008
Ti 14.888942832642707 11.465093032920056 12.72763614798204
Ti 10.008793852164036 9.898153171947945 8.218618609621089
Ti 14.195436495799887 8.912827262943203 13.151735651106577
Ti 11.08666907612644 14.11130221205088 7.150641945428933
Ti 12.656706046365214 7.670364690916061 11.412303645115895
Ti 11.563300727559424 9.850188746365822 10.598252921800839
Ti 8.038651049846251 9.667611979386287 10.049514723422421
Ti 8.112262725508595 7.370370062244781 11.564541685111246
Ti 12.280740525909346 10.815684826196748 12.879967022330064
Ti 9.934223077569536 11.763632763090927 10.591999658726541
Ti 9.12226108749374 12.627287550676309 8.484550877408596
Ti 11.55619592600323 13.894609593353028 9.867443742421267
Ti 13.92763785280949 14.172715432711636 11.775037254007643
Ti 6.79688888332492 9.130452556366786 12.526380487603705
Ti 11.722580096356042 8.429819906815313 13.996789314907469
Ti 9.498877825612084 9.664317577830573 12.41009903205536
Ti 11.540007198114562 13.238594624460395 12.487251230093829
Ti 8.672056768097795 7.982297960343094 14.146333111525635
Ti 13.338946396054347 10.614710748604274 15.081152511795967
Ti 11.53805297901048 15.743389779842039 11.799767496171883
Ti 13.986696716015818 13.063955834664538 14.317854371950085
Ti 7.491242291040662 11.57930867208752 11.86354961195435
Ti 9.26044308494823 14.204372618998644 11.441018225496686
Ti 12.696643228531634 15.088872600062054 14.008061103878807
Ti 7.765443078204462 10.504250042120415 14.332839553151715
Ti 10.43719106699142 10.462678782853489 14.916741552967117
Ti 9.218632173444513 12.504498380787455 13.648782345483072
Ti 11.57663119739904 12.93856702734209 15.271416385093636
Ti 10.13089663200159 14.96849060092519 13.892686570353094
