40
Energy = -265.65706624 eV
Ti 15.538295842126168 12.711430554949292 10.953510675646063
Ti 13.881893314756828 14.350239872596086 12.512692632023533
Ti 14.230530861993326 11.260186018991936 9.007285733692122
Ti 14.781366682989923 10.036012963962202 11.3486114077683
Ti 14.935748893973408 11.981876916141145 13.303786309944524
Ti 13.02204256674673 12.83242842087817 14.731868036748505
Ti 12.649747729628896 12.68064064920702 7.444771041319219
Ti 13.633784469714 14.028240537935327 9.588757659352726
Ti 12.25158775398559 9.679092686066738 10.216248001452353
Ti 13.118942985126713 12.052473584801803 11.36026819065573
Ti 11.761410877853008 10.315891539595757 7.4019402299556765
Ti 11.499709598316123 14.720131194849234 11.020952064903001
Ti 13.652314739167222 8.272198631858217 9.142421130234531
Ti 11.205235730548155 8.053659927776167 7.760594463037633
Ti 13.059654284036528 10.133926315557963 13.610310708538568
Ti 11.24616278057281 14.595207210577694 8.303236859012015
Ti 11.32907142746247 12.554071428461132 13.044285812188676
Ti 11.135927645163674 12.297424261286313 9.544517451042154
Ti 9.853406098047708 12.387613141541282 7.450690941098844
Ti 11.479736733459765 14.95737277501881 13.772564041565571
Ti 9.00948018204236 9.58089846722064 7.052773010732835
Ti 12.926317229784217 7.8306451651474624 12.175560971955813
Ti 9.013991571818856 7.314745613544774 8.511137084968043
Ti 9.686010979935281 9.755982612623464 9.453342593929724
Ti 11.194510354083572 7.083871776133911 10.218782745108703
Ti 10.525502113068498 9.485404725438622 12.299421424128829
Ti 10.529586812664352 10.658926581477326 14.83897445170256
Ti 9.324802462308869 14.836205230218301 12.275198506229538
Ti 9.48357691722466 12.001273369257937 11.519296766583652
Ti 9.00933123089963 14.104937588485994 9.719752111119792
Ti 7.865858499272948 11.70282002784446 9.323983182654992
Ti 8.586118444201237 7.653381579878586 11.118600035955689
Ti 7.198094647073324 9.056213123293185 9.058464660052994
Ti 11.499202992585783 8.24652296711194 14.48644205894512
Ti 10.483811634770593 6.800190696049417 12.726454888644074
Ti 9.089084015221525 13.353305873614406 14.267863551641312
Ti 8.884011648463451 8.522293029925008 13.987302091659569
Ti 7.363781425197241 13.032020279617372 12.004993972021822
Ti 7.67887930734567 10.00947038713795 11.53204046992372
Ti 8.19740789209708 11.05089926018841 13.799725304455132
