45
Energy = -300.29106792 eV
Ti 13.017758481754152 12.784128469433501 10.23614821981828
Ti 14.995571975692924 12.627291517176792 8.408986017545319
Ti 9.127481718365333 13.115534566276922 14.531075468085657
Ti 13.90871279194364 12.51449250344552 14.96691691580176
Ti 14.119343625305897 7.94983645025904 13.345699818824531
Ti 10.160161506032466 7.965532553350743 9.831354126106222
Ti 15.98261151360844 12.314318121992397 13.175443797012456
Ti 11.260536023219547 14.79829685228584 8.64206829639583
Ti 9.049927020927454 15.697903648835037 13.432352105635374
Ti 7.73975392019143 12.923332765064279 9.985504985505182
Ti 8.88585832886306 10.31580182909971 9.640076813556602
Ti 12.400405159863414 12.650831276187544 7.570470253699725
Ti 10.238617439912364 14.332434051108109 11.576054515199218
Ti 11.10933377112468 7.603968599094836 14.254931196174365
Ti 9.468831208334935 12.642539183969008 7.749687798752177
Ti 13.85644662275281 11.288704293517752 12.454908234939197
Ti 15.284934983200147 13.988210240524118 10.744849492186537
Ti 8.938000463766922 14.989980346999188 9.012226328517498
Ti 11.231532178132957 14.578889051576214 14.735564004780827
Ti 10.457024873687159 12.374537344840405 9.925177488733125
Ti 12.303863573173782 9.890660992443388 13.925128642430083
Ti 13.314013882833352 10.585965414012643 16.533459194848735
Ti 9.61194382680746 10.028279048685793 14.301261648938308
Ti 15.183914768521717 10.121262606049672 14.876167941678657
Ti 7.746609254399812 15.407318740990242 11.105791557739073
Ti 11.99503410813312 7.309073510137941 11.631042113527077
Ti 13.884485985920652 14.779614827908986 8.55155124372418
Ti 11.303450590449469 11.93910082921277 15.49069975434877
Ti 13.499892763396314 14.048571356131273 12.889239879762696
Ti 13.587744710730576 10.465882194563282 8.825304044124968
Ti 7.737641360192693 13.386187110081831 12.587525104875596
Ti 10.999542201038674 10.174386501584937 8.304899124307862
Ti 13.370243908632796 8.148850402010103 15.711708492243078
Ti 12.494475310658919 8.111425297221228 9.183458376310371
Ti 9.00669285707852 11.212142994071689 12.033112295418093
Ti 11.489563956277555 9.953670468292803 11.086024114632892
Ti 12.755422409067211 15.437102148006595 10.798581653729501
Ti 10.120346192411006 16.722889193534925 10.874363093902893
Ti 11.090535615198425 9.32758054085796 16.247722503171378
Ti 11.694379181644226 16.180508677535066 13.00513771016337
Ti 11.296005050556255 12.439003663715487 12.933863079181801
Ti 9.523465335018273 8.386963864581286 12.256034274261074
Ti 16.02852740209212 9.661102183847047 12.575764005217518
Ti 15.725445339152712 11.270464614484998 10.536467569464744
Ti 14.314816919445995 8.866329264511505 10.827096814237931
