40
Energy = -266.1686095 eV
Ti 12.147321004070896 15.740700271329612 11.085895050235312
Ti 14.33745997955695 14.758095084111332 12.214477937736415
Ti 11.222525769332885 14.598750221550192 9.027763962784812
Ti 14.086764749723157 14.573578852394778 9.521536378241843
Ti 11.897711937329419 14.357170262344448 13.453947581175642
Ti 9.983996661838367 14.059168416253186 11.450581191383536
Ti 8.776926013911467 12.912317865024674 9.360340743509123
Ti 12.690104609556414 13.169282886442899 11.124098168224892
Ti 12.862974919591712 13.112292204143282 7.743313252365149
Ti 10.47254127495156 12.324030847896944 7.118390618211406
Ti 9.448360617095744 13.195195346158215 14.146119823327695
Ti 15.299633526848393 12.470760942340316 11.216864784375277
Ti 14.483500793681015 11.82155368811612 9.08837719928423
Ti 11.752353299442758 12.744341067777201 15.52099427960252
Ti 13.921054668543517 12.475332723725497 13.624037861174932
Ti 7.93764052346476 11.185964867492679 14.17526197489159
Ti 11.553840224129768 11.53694184110297 13.201770260016444
Ti 11.206528524260847 11.862797089225072 9.626871909600368
Ti 9.394361937592794 11.347182030054997 11.810769507081652
Ti 13.215542378199281 10.505354629815127 10.91387571616924
Ti 12.900487738319086 10.545702887729371 15.324575299612153
Ti 7.391917096274564 12.645226722565289 11.966763228902968
Ti 12.541233356740515 10.418946160105062 7.474291776931427
Ti 7.711123349104173 10.367645171552917 9.880163331074108
Ti 8.316755595708546 10.969150450643138 7.5638266621385615
Ti 10.30403735711706 9.667149186049162 9.059344892010257
Ti 13.842998339482952 9.682684843333066 13.160449398469863
Ti 10.125706708318159 9.784192197942367 6.334376811237084
Ti 10.18703155578108 10.604853368917095 15.287420459492555
Ti 10.868332702820334 9.180434367369516 11.706859231945588
Ti 7.06879583247828 9.942540485892252 12.286518174863627
Ti 12.887733511839754 8.451982983390211 9.356471003146481
Ti 8.931192361129723 8.722681612811941 13.752771648588082
Ti 11.684088159488903 8.442558397517464 14.262578942877065
Ti 11.317486585890622 7.9071831256320735 7.418538168747019
Ti 8.477377834842132 8.035578429384044 11.021890895294
Ti 8.58014196851047 8.27394989723479 8.061783723812615
Ti 12.791740668500477 7.499550137193147 11.878693407572962
Ti 10.783276022915633 7.011310513039547 9.935712242629794
Ti 10.328188260865579 6.826656343647422 12.572470920510826
