48
Energy = -321.78931345 eV
Ti 7.396170265675778 11.10945367719486 7.943672172400151
Ti 6.949892236835232 11.015161804861593 10.647332035925078
Ti 8.739123565886697 12.915794713039766 9.291165277541642
Ti 7.011316646119553 8.802383739258715 8.992743759441769
Ti 10.142462535559352 11.430977110117349 7.388893349878662
Ti 8.925136739441633 9.0418338894555 7.235288042372389
Ti 11.399734251581599 14.037540592739402 8.163840488612454
Ti 9.959224300232636 14.986174811866318 10.402243995302491
Ti 9.199348338368967 10.220761023098559 9.564327899818776
Ti 7.881566136287958 13.5199354977441 12.003854634003385
Ti 12.291997793076458 16.075213455517805 9.387974061114905
Ti 7.6193365507844595 8.265981239553703 11.41598947912463
Ti 13.109899632597491 11.868909489323226 7.7192275617610875
Ti 11.3726182611156 11.862287670225587 9.634816838906483
Ti 9.328655463462898 7.400767494654468 9.30334544182608
Ti 11.724198487505618 16.523061565823923 11.801279728018953
Ti 11.368559159543414 9.198719045443731 8.359205789898017
Ti 14.094295536839438 14.201770386316594 8.68009224937045
Ti 10.5189755576022 14.557491808317671 13.15394612696789
Ti 8.103368393507152 10.56353068027872 13.096519790293348
Ti 12.327638384804327 14.061434456642269 11.11389341296872
Ti 9.121377388313373 12.574704388848678 14.574058787778077
Ti 9.879910214332048 12.24891717262433 11.805899640797758
Ti 10.050627296405644 9.136046894165188 11.652230651150814
Ti 14.325445672900564 15.760484963547349 11.040813385508853
Ti 9.929728001526058 6.5951961638366035 11.763603423266483
Ti 13.088401932784036 15.13215535647503 13.621618238989395
Ti 10.487856800369558 11.342738122459611 16.687504044277315
Ti 10.837374032362606 10.49509898714753 14.03569827573097
Ti 12.46153839249725 10.155606225572821 11.3582139647076
Ti 9.39994009108534 8.171189485879887 13.984972843314653
Ti 12.537876492029316 12.448541974270077 13.152255489532473
Ti 14.146761896502204 12.004849353600848 10.519896619926495
Ti 11.579634277472335 13.41902632770095 15.539089794219493
Ti 15.625845735646394 11.979010933526142 8.344492569027713
Ti 11.898124491897832 7.6634918508197325 10.339454533790722
Ti 8.753371212369972 10.041862335816585 15.676240941448441
Ti 14.234470798652827 9.742608029324177 9.095380280568314
Ti 15.116433718215832 13.997280654676599 12.801801204759547
Ti 11.968358539987626 7.974042847253848 13.029210078249752
Ti 16.269309131435676 13.387701967174841 10.538583763132598
Ti 12.82304038492431 11.113603354994602 16.060872437911783
Ti 14.27458037632335 12.851259778402058 14.975808357031939
Ti 13.717806521827006 10.0871012487854 13.856561297603493
Ti 11.238291443944185 8.883021344461369 15.94549728039213
Ti 14.821045808254365 9.166802779981394 11.584502182438118
Ti 15.737519722697556 11.558357028816 12.691755620718554
Ti 16.490574006831547 10.68887889678045 10.303094776595767
