44
Energy = -293.79763407 eV
Ti 14.11821995969015 11.70753922150938 7.125346048552536
Ti 15.448814470057867 10.363497443652044 9.464285711362823
Ti 15.188666622980133 13.067865527239984 9.26394051568333
Ti 14.055790074789435 9.140006509603639 7.802228403585715
Ti 11.248581878452855 12.674290227570555 7.0060828273074565
Ti 11.567005834534045 9.977680936555027 7.28756440825958
Ti 13.190386340372699 14.071742514097714 8.078309263722103
Ti 12.23282389586053 7.61707573808562 8.281817589610712
Ti 8.971492655921264 10.79308654194544 7.714077195753351
Ti 12.956053825415012 11.706698491426868 9.230976958568077
Ti 9.542129855701202 8.008563455431398 8.341399432987497
Ti 14.7045445043946 11.981715970537701 11.592949008268507
Ti 14.384674914942224 7.59912039906265 10.144482401375447
Ti 15.0275809492501 9.556561415805577 12.096712542695824
Ti 12.979111685759646 9.392444041787558 10.39406725658281
Ti 12.977206741773609 13.921158462938225 10.87741847279488
Ti 10.371684341724533 12.167788921917301 9.518989416681322
Ti 8.878002200292086 13.520167791518952 7.910724471893136
Ti 11.499529689499344 7.003579416958962 10.538875191853796
Ti 10.97851898128942 14.698127878950798 9.027591970248741
Ti 13.03867529466366 7.922104005015824 12.835736212327678
Ti 10.438869558215757 9.51542784166873 9.836755179020711
Ti 8.902983355361119 7.294110098227644 11.091534772031157
Ti 12.092762352063971 11.338631816662634 11.883112415644325
Ti 7.619692280618116 12.18216846704109 9.848721298689577
Ti 7.694694234976678 9.542843538392887 9.95458396583462
Ti 10.850597478321742 6.539629350363922 13.020453458347129
Ti 8.709586290774878 14.645158395074194 10.381556475070619
Ti 10.504073480220558 9.153913210841674 12.57438911679382
Ti 11.11350435107397 15.534768834801826 12.196878137586115
Ti 8.898752174416611 11.140961315683018 12.069444699668844
Ti 10.291180552879457 13.256649124820637 12.143415530024965
Ti 13.195996179267114 10.289534324101654 13.940292033804027
Ti 12.654141866982721 13.398797728674614 13.482410145996056
Ti 7.318400394854722 8.781442552027706 12.483318750292785
Ti 7.132160855874781 13.560155149222657 12.093998246910507
Ti 8.802483835566086 7.434122435724228 13.879568924368723
Ti 6.5512128124329605 11.192315857665905 12.643172726717982
Ti 11.140053402981456 8.527897672135959 14.86979828515151
Ti 8.679655819270435 15.187747690536275 13.122766015523084
Ti 10.738032841130112 11.489233027111348 14.447737591908087
Ti 8.453161816089237 9.98726908000727 14.52637048136258
Ti 10.523279289130304 14.250065064768263 14.589074563385578
Ti 8.26281353506941 12.793925987771111 14.314655360688652
