41
Energy = -273.11773999 eV
Ti 9.299191322641066 14.526417799136988 11.842687099896143
Ti 8.472735765496388 9.248107195017377 10.619891628171018
Ti 12.151418361392501 10.95524356743979 12.59044686194951
Ti 6.797132002576294 10.689194986425345 12.268144974698988
Ti 12.30346812105968 14.606214745112332 9.514780589530293
Ti 9.320848555586666 8.428246937757995 14.934134885667312
Ti 10.951842547378948 7.476266860926378 9.815001211977764
Ti 14.565691294180215 10.553554726650587 12.484160804087052
Ti 13.74026663829358 13.086991828751033 11.173579888332238
Ti 7.647266321629522 10.598239833007018 14.886814309424858
Ti 12.764262399917436 9.897872331524212 6.644956716564632
Ti 15.809115205620275 11.622763304989027 10.33516677933428
Ti 8.490539698721246 12.165449536636537 10.926785188887528
Ti 13.429176390047342 10.581871934561944 10.097883511920331
Ti 12.939704343064799 8.225962349919431 11.483576033537862
Ti 10.03360429995463 13.724297242856995 8.489714556806133
Ti 10.409638196142431 10.660919847827863 15.789460191582801
Ti 13.539438072641213 13.00414882277663 13.806791219051052
Ti 15.365635740123233 9.019361625055364 10.263459021402369
Ti 11.732392918622454 14.686632011250788 12.962174040989524
Ti 13.23700439619669 8.335594308878443 8.72090882190529
Ti 12.047141978374862 11.97770849341397 8.476695858442007
Ti 9.241452597555774 11.270988792252437 8.50872645048378
Ti 14.536774367108984 13.243260877397597 8.518873290277256
Ti 10.219500958401545 7.848310362721055 12.324824525872168
Ti 9.463085882978897 14.84231905954864 14.460661127210006
Ti 10.895585074689658 11.910912116730998 6.293131515402359
Ti 11.77163063499423 8.841093956702979 14.218864795400064
Ti 9.34809097685145 10.237270897925944 12.961076318189509
Ti 7.51392495491215 8.438760495190413 13.126176480138929
Ti 10.69035792968659 9.410393792215961 7.876857028974028
Ti 15.03602839128621 10.547224401307568 7.945676433872817
Ti 12.918964750807095 11.060601011809467 15.1196868354993
Ti 13.637123286386071 12.184937506560003 6.2737418940060055
Ti 11.059166075673811 12.818385542223567 10.894445765086084
Ti 10.85172908642661 9.954005565687545 10.573285764065513
Ti 7.561021209636334 13.056740217307324 13.49180342635506
Ti 12.302416737979758 14.17638298626977 7.020358762958511
Ti 11.514099145992187 13.431135212947124 15.577879083212284
Ti 10.215033436489461 12.583420112750796 13.545388370639941
Ti 8.879592806998648 12.77588967705219 15.844420812714663
