47
Energy = -313.74440144 eV
Ti 16.97954876099439 10.830536840880566 10.767965107893527
Ti 15.499473144291581 10.992753875557167 8.656775449941716
Ti 11.11948725913531 15.942241675874989 10.207569741967601
Ti 13.8959683914582 13.13114706142775 8.34847794370766
Ti 12.737674063822908 15.527778824699983 8.566546171061573
Ti 15.18402091931865 9.0728254511861 10.331412806176148
Ti 13.13883551477888 9.05590684424895 11.611003170543569
Ti 13.239229780330223 9.327957700570778 8.490467774620845
Ti 16.179315992131514 13.180502527891544 10.10371801776448
Ti 11.054010372452998 11.129285208908158 8.443125484854813
Ti 11.423735304228044 13.27305658119975 9.78419148369318
Ti 15.216688404777912 15.37570177778273 9.188848618122902
Ti 13.776147899788365 16.926898482756304 10.771008663268447
Ti 14.587197417436292 11.688908948766313 11.989829757328096
Ti 10.939596862431356 8.69271313518465 9.8174704609725
Ti 14.548856114161595 13.609577292213482 13.885331618817071
Ti 11.199810060271343 8.267950632479472 12.624966096371493
Ti 15.865487168675203 15.104011586439054 11.847232487914924
Ti 8.914337648398016 12.956122046871473 9.850958969904191
Ti 11.745846491717343 16.526717231764493 12.512627038069553
Ti 9.959293191682859 14.474512077756748 12.172442759611473
Ti 13.435390725862646 14.419172136862343 10.949692081703706
Ti 13.160609440279643 11.27638117521443 10.046064110604224
Ti 7.360723520226362 13.988162318134114 11.647287073686428
Ti 13.953111725265039 15.967109064754602 13.353488065494487
Ti 7.034186470582521 11.305658465666504 10.965498707815632
Ti 16.065015026111027 9.650719091271556 12.826670483619365
Ti 16.839355668815074 12.439696153370146 12.802593256939442
Ti 8.901480354866182 10.275650244146295 9.436689256229668
Ti 12.089862334641822 13.061391385998483 12.689004143969065
Ti 13.027433969752446 12.58048443677324 15.7382057164616
Ti 8.858754347114255 12.013913663217748 12.694398609456638
Ti 6.293245098184709 12.429835495395011 13.339502884841526
Ti 8.17341130873912 14.142559893023826 14.159077242405937
Ti 11.721081923336994 14.943322343830628 14.478654501324835
Ti 8.706320332156707 9.02278439794512 11.638744688839534
Ti 12.416282537600653 10.59600418557175 13.905494108689778
Ti 15.213229706509557 11.077345930576175 14.798888593151633
Ti 10.839506868237574 10.809580373871396 11.364640552814215
Ti 14.135599565017612 8.540237013910783 14.322605284199255
Ti 7.120902889589262 10.037988005363527 13.471377216015673
Ti 10.441121383987985 12.68658595326794 14.83862343802297
Ti 7.986639404940165 11.677891130019177 15.245483751954751
Ti 9.692987771996505 9.796136630048744 14.240068382578722
Ti 11.100454896788925 10.756519138350095 16.369213712768584
Ti 11.704762978221204 8.44053261195656 15.347800764084875
Ti 13.523204323209029 9.978631083306457 16.3470000825395
