45
Energy = -300.92319772 eV
Ti 14.883671868200711 9.05109727689082 14.089441552631872
Ti 13.324777319691561 8.833561642421744 11.708459015689742
Ti 13.293221869151221 7.0290335988547605 13.786744326537237
Ti 13.460300620886152 8.211750602239997 16.14245058050104
Ti 11.059342235581557 8.414866818251602 9.763398975392057
Ti 14.24190122652247 11.350270216630529 13.218712402959541
Ti 11.148041399705725 7.316582255335067 15.34074691121754
Ti 13.79457851513372 10.835530913413738 16.048548382372232
Ti 13.525873133129748 9.541588824466961 9.007225570646582
Ti 13.191071765830058 11.823658058252143 10.823851001756735
Ti 10.828725935052328 7.777965360160152 12.532405046457988
Ti 9.43497438740869 11.296078721907742 15.888784918550428
Ti 11.849570734637437 14.690134778137107 14.729399140372308
Ti 9.045015507487495 11.328251135497718 13.220237489099521
Ti 8.79325388762936 9.071258178666026 11.355229192764153
Ti 9.510175796661532 9.094243263858107 14.64105217640705
Ti 9.071774172312843 9.757499055604077 8.909567626975146
Ti 13.368922861456554 14.078388323917002 12.58762338448934
Ti 9.130094128511388 12.035077680675581 7.671424868690975
Ti 11.334756063195345 9.75837883092601 16.705379149305536
Ti 9.656631864133873 13.599203247034682 14.699201790035652
Ti 11.001487628190935 10.367046918448274 11.621558330535219
Ti 10.840221089146105 13.103324809543835 12.305394428685068
Ti 11.10545752595659 9.690638015058815 7.269282906109742
Ti 8.308801859911888 14.093315678873687 9.062177846320932
Ti 8.78760735791378 11.84074993159588 10.488537518341815
Ti 11.255368081200862 12.31356857446539 6.313104690241285
Ti 10.334307294409209 14.570710864681274 7.482666537335413
Ti 8.554174650133971 14.27998086778161 11.592267301302536
Ti 12.212568415021918 9.350102717852689 14.12245293794166
Ti 11.676575923671399 11.851383176097066 14.307265082335158
Ti 13.328012443745552 11.095871708267778 7.013901865585498
Ti 11.662422629010651 12.660577397582314 16.67884726499517
Ti 11.42063749609921 11.583023158332788 8.911233709850656
Ti 10.935339496561818 14.0246914291262 10.020425979547811
Ti 9.736874843696214 16.23839794090399 9.828895403372673
Ti 15.355798933850773 10.296170019928027 10.90904054509574
Ti 10.268569533130533 15.662290132360665 12.604755907674026
Ti 13.011990398333957 13.706338599358505 7.656404065473976
Ti 12.147618292374384 16.0426688787992 8.683827686440845
Ti 13.885382058425511 13.289108803460644 15.115250600082527
Ti 15.561998000493151 12.810084569679216 11.414935596277514
Ti 14.931535396811787 11.979763401598372 8.858172048755666
Ti 13.861468116384483 14.430403399870968 9.994124020125176
Ti 12.210810242546383 16.167073222533585 11.217297224062383
