43
Energy = -287.13656115 eV
Ti 15.087606751963397 9.802677259223183 12.926891172516035
Ti 13.980114514300494 7.636420618845291 12.957018998284973
Ti 14.82733543018373 8.590925848247009 10.501515621228975
Ti 15.293495293587842 11.261882938990341 10.843172264756294
Ti 14.5837317408822 10.414866215593873 8.253465242522083
Ti 12.606315472970921 9.695584780056542 14.404038607369197
Ti 11.782300641422347 12.113923997035359 15.238024802218188
Ti 12.473510369541316 6.863117647880825 10.899821222840583
Ti 13.534314790912607 11.949635159753985 13.184798058734724
Ti 12.71468242230654 9.57140551172941 11.738595288183523
Ti 11.484088985113155 7.498604425557816 13.23969224408258
Ti 9.92916000592723 10.41074972808668 15.35950219197695
Ti 12.56374998197462 8.495868150655749 8.835783714551589
Ti 14.672104070266816 12.97555883830429 8.896391337245804
Ti 12.847075243726826 11.409076228483181 9.790458641869852
Ti 13.556432470066266 13.621250189965998 11.349185038798606
Ti 11.673502496749924 14.109443719718302 13.608770720145994
Ti 10.806090464171042 11.057673314359855 12.976643720015
Ti 9.362659799214933 8.797640126172514 13.312879599914304
Ti 9.347103785327802 12.913892657761982 14.465324634120488
Ti 10.29981922129884 8.965336101450877 10.472969824170335
Ti 9.661602617615625 6.626324533776469 11.507306339740156
Ti 11.518900729401077 15.526231298896167 11.339649045310418
Ti 12.286591313522427 14.208014968597805 9.115216006205767
Ti 12.157646843585768 9.988743617551451 6.984403301351497
Ti 12.578545602731149 12.352291451380875 7.153076450289693
Ti 7.663786347440038 10.743886868079912 13.79783706655543
Ti 8.7110274088111 11.62280823385853 11.363876558934331
Ti 9.203761293301126 14.782460171117775 12.536396719454928
Ti 10.621604951617718 6.619502907013191 9.047557035650636
Ti 10.888435282140648 13.052737197543333 11.190318542924679
Ti 10.50450887233613 11.319397110136501 8.945022458365864
Ti 7.126304768149945 13.07793640630623 13.093214858742106
Ti 9.914673784721359 8.751583154415979 7.6541868907486315
Ti 8.282252220585809 7.544717588962518 9.39761689569459
Ti 7.707889120568465 8.961422827854031 11.533682358242192
Ti 10.278977876853036 13.737709318222677 7.573684887366849
Ti 8.050731696809622 10.122981861676951 9.036877923138892
Ti 9.447665212746637 14.795194618777936 9.759724419200085
Ti 9.776806212201183 11.386172374300777 6.633230964956129
Ti 6.362080035463837 11.468523182603702 11.049233511363736
Ti 7.306887258842512 14.004498767871869 10.848706152142821
Ti 8.055278134657833 12.682479619194446 8.715390204086827
