49
Energy = -328.46947613 eV
Ti 16.565635990057 10.399469793834864 9.260097494693618
Ti 15.030597497617459 8.236432561361227 9.169915153395007
Ti 15.317180523307439 9.990124491929977 7.106177485167237
Ti 15.392581762838093 9.65961387390263 11.539510330292563
Ti 15.337556253246824 12.516674925606189 8.137833556538007
Ti 12.795202968778817 8.907598653195663 7.257465937156071
Ti 15.701894408606252 12.131269051556894 10.952446893183465
Ti 13.322020267441467 11.433149227444368 6.719798056336983
Ti 13.569074886363651 7.711310626417099 11.432154234423052
Ti 13.908975828739718 10.703955390484161 9.325158891775965
Ti 12.741955321190977 7.069750782934299 9.007302429250661
Ti 11.091473254610428 6.820489344632882 10.76078935993681
Ti 14.876458420256949 11.444743519064662 13.99007337473899
Ti 10.352898236582591 8.086077128835681 8.45603936003226
Ti 13.39867640636028 9.363986214221883 13.795522681894056
Ti 13.182945283313845 11.34089004743888 11.914688636779205
Ti 12.440491134278815 12.949382762492371 8.631129394764775
Ti 11.72017555295017 9.416744466375318 10.21880753781884
Ti 13.890453019546657 13.81109179084411 10.414862154803856
Ti 10.99049478605119 10.768517734617369 7.760351855236102
Ti 14.251831111626469 13.779840708444386 13.084712216452793
Ti 9.219561725798274 8.696406379574599 11.198497501644242
Ti 13.65342797338949 10.500271599716426 16.08778386881141
Ti 11.198552130277962 8.265535685457527 12.917625870435856
Ti 13.237664961576192 15.986418616353223 11.764232108991633
Ti 9.008448807449 10.412692207504017 9.310769669142994
Ti 9.79987670472655 13.426688999959737 8.38820580099232
Ti 11.760583767067907 13.901452780175779 12.140301178865064
Ti 13.967565526687098 13.13980832523843 16.132757878820883
Ti 10.70756542585445 12.09137839231858 10.428071322299944
Ti 10.411117049221435 10.772637374906612 12.617729378490573
Ti 11.79973535660891 11.760031699863708 17.060911748452043
Ti 12.211062190864789 12.369073554833365 14.442499555218097
Ti 11.154155885734978 9.795482151268521 15.26082825559234
Ti 11.435511604763649 15.263240732933692 9.813114074942636
Ti 12.564338831752 15.2386907415782 14.36967457409645
Ti 8.698445555648254 9.514144580757753 13.83192555446575
Ti 7.825514897162712 12.722571588666218 9.741217278335741
Ti 7.598372081886805 10.907798149566956 11.569709326833433
Ti 9.189059713250728 13.186639543919433 12.740023702572493
Ti 11.447938150974768 13.997886355735773 16.60918830194428
Ti 10.636052315757011 16.266171755459254 12.250116255396227
Ti 8.871421128435964 14.948923927714034 10.507531880946997
Ti 9.645153202360646 12.12875843956785 15.318821605016115
Ti 10.090392537131581 15.079004818153539 14.652672641873233
Ti 7.249482453065127 11.668827106089505 13.98145294656277
Ti 6.786387133782571 13.604568503344277 12.107250401888
Ti 8.138605818314856 15.711309953436652 12.961402500342674
Ti 7.684909129510803 13.971947913093526 14.730322755176422
