47
Energy = -314.57263294 eV
Ti 13.045316802858705 12.46328051212896 7.444784463047699
Ti 12.250003030741539 14.98853807400553 8.465286101751168
Ti 10.520522386058017 13.364722804892308 7.620204308491744
Ti 14.906853996699297 11.622831320097344 9.603770594672874
Ti 10.324908998841005 10.602437100474988 8.087721959265192
Ti 13.038956383376302 9.75046857209512 8.43333236269
Ti 9.430907322467629 15.326609591144143 9.189545677114834
Ti 9.24052598502295 15.822458186299304 11.781222064667151
Ti 12.132876808818432 11.941766543936346 9.631757438342275
Ti 13.558741820443618 13.850911876438147 10.81211760410142
Ti 11.79150017157499 16.31512478385907 10.792051768580658
Ti 8.034489687731837 13.464041234179023 11.129886322898042
Ti 8.69583392749419 12.607275377711247 8.915416975310587
Ti 12.881570407933232 7.230898918044667 9.398267684750763
Ti 7.959629540053082 10.251653520202185 10.001869252987506
Ti 11.361331193831226 15.944760333533234 13.445885659101801
Ti 10.616718675901296 13.782536575390052 10.668258343995067
Ti 12.133715326606463 13.47745110192069 12.883346763895096
Ti 14.08392942948616 15.956145968260785 12.500242221933465
Ti 14.326935449345061 16.092671696632767 9.807059862366472
Ti 11.116024190847416 7.980495905152326 7.765780758320524
Ti 7.977150115440809 10.369650720830757 12.837239948632272
Ti 8.884025243955232 8.221049020612574 8.67601118066192
Ti 14.815642848545211 13.983173551033728 8.502168816082945
Ti 11.011890651616245 9.048946021348883 10.209912233042873
Ti 9.279048411996031 14.015228959148367 13.470976329831919
Ti 9.846586515263557 11.360658033944262 11.327242025060926
Ti 13.397664007808398 14.761311299109826 14.84451329307649
Ti 12.334965880378116 10.853265097936474 12.056073804968873
Ti 15.92813400146805 14.159199463368704 11.02210284843266
Ti 8.037258027577762 7.932501899986603 13.856271146239648
Ti 10.366497122269422 11.611791846380422 13.935808280304922
Ti 8.955364523033928 9.896371181834006 15.333756593214458
Ti 8.491585692125387 7.956970059194211 11.299770485393013
Ti 15.090845505673117 13.691408017088087 13.488850141946484
Ti 11.09523080510465 13.829704135820275 15.25012091556887
Ti 13.206285438550282 11.914312797744774 14.565140166637194
Ti 14.799895421774687 11.691769072697484 12.189845919984599
Ti 10.42790350873755 6.49227878743879 9.998478893622758
Ti 14.017767259995601 9.097312193215735 10.88677687851343
Ti 10.468015357473044 8.965472350544616 13.236363834229806
Ti 11.62753255078731 9.631290818177638 15.568790835123329
Ti 9.928088347415075 7.502376353940025 15.49023954216519
Ti 10.025007672014803 6.355676576318148 13.004239973916992
Ti 13.533347103020194 9.05796208868794 13.636403482542026
Ti 12.427714523205903 7.143091904112628 11.955786171700648
Ti 12.121250944083835 7.166136768533285 14.52529708626757
