41
Energy = -272.53903709 eV
Ti 7.334209545733094 10.68949277276964 13.528458332892813
Ti 8.0342856035213 13.003937822194294 14.377233063894122
Ti 8.168435357596968 14.663940148362888 12.465617151694985
Ti 7.1630101955601235 12.52129228858243 11.64460397689868
Ti 9.483608958277713 10.762197498553734 15.03930209508041
Ti 10.756949063679363 13.011035295933915 15.828158915266084
Ti 7.837227479324171 10.021701939081549 11.1926650810996
Ti 11.720214361982002 10.566687929638054 16.285957508297265
Ti 10.119659289055415 16.043619777812253 11.610757206324045
Ti 10.453960146293344 14.466633624989807 13.65462575088331
Ti 9.281573486892842 8.895221061186723 12.932264099822168
Ti 9.572428239285818 11.960173973155813 12.55274193166762
Ti 13.347921294040798 12.400431295023887 16.25706413130327
Ti 9.52150352451252 13.837686573407998 10.403420154114645
Ti 12.434398482090204 16.148118323721107 12.478426190435247
Ti 8.998002598571144 11.347607923032662 9.480093873742222
Ti 11.551176793421742 9.27931788585256 13.972486805635798
Ti 12.261676191605458 11.83062455522219 13.83186822641338
Ti 12.84116994435712 14.43716907611711 14.661352369663613
Ti 9.771551280357007 8.676283466888236 10.125266976205129
Ti 12.23209347144366 13.628753047044476 11.58952464965663
Ti 14.966843348127203 12.473648252759434 14.252777581745644
Ti 11.710173968718232 15.411159018091872 9.692005403337056
Ti 11.334164025690967 10.585695462975174 11.113795321107547
Ti 14.85963600571151 14.731465196521865 12.800496476251634
Ti 13.997381302324508 10.131578681424793 15.028166869208647
Ti 11.64461070928634 7.866595511110471 11.912976200192267
Ti 11.339143931833899 12.692442648286557 8.996738961928559
Ti 14.064164751841751 15.721515173318663 10.611032452469402
Ti 13.696363764943426 9.739403665418529 12.27899596139122
Ti 11.057706898388753 10.099522646740207 8.400877933768387
Ti 14.69199975274803 12.172553386107696 11.377706767315951
Ti 16.940833363173258 13.079803695546607 12.727258355899991
Ti 13.86930775162297 13.744489321774266 8.978233369843132
Ti 16.310201318849707 10.536528232620439 12.845518009321033
Ti 13.42420256487303 10.966333191002501 9.20022465928144
Ti 12.543837220198533 8.550574481889171 9.85783600809076
Ti 16.224357805364374 14.142497943694913 10.401178601573879
Ti 15.565969156055264 9.816756493653946 10.35664403559462
Ti 15.809590237588605 11.974483236465163 8.85873577832125
Ti 17.374890436184913 11.68873151769231 10.713645703625081
