45
Energy = -298.08393413 eV
Ti 9.41585494766368 7.789292860210621 11.939634102706304
Ti 11.13631704538634 8.233471719973567 9.966242027991655
Ti 10.498263557237175 8.182221975536486 14.287359617400954
Ti 11.88571564827527 7.170908672871142 12.175095996495674
Ti 8.843659561556203 9.816938358191498 10.372897392725253
Ti 10.46101466336672 9.872207489645424 8.337696904664877
Ti 13.04531050300652 10.19691729109802 8.956658752145511
Ti 11.471222951917193 11.749588779417818 7.40233688065817
Ti 8.665903018329992 10.036327935111293 13.16952645689318
Ti 9.084472289320773 12.130774034864508 8.648526752773058
Ti 11.127817250118508 11.840259076676976 10.151150878232013
Ti 8.838458772714972 12.219673161337365 11.502949026434603
Ti 12.687695811512116 9.009658347205646 16.1541251370665
Ti 13.796315392173595 12.829279410548727 7.638842137731074
Ti 13.202152317816035 13.533337150556829 10.044827172230091
Ti 13.830747998505695 9.13682258152955 11.534137161530472
Ti 12.57860553172939 10.765463061911241 14.406080748122916
Ti 8.538186978982854 12.838225354016561 14.338855676702645
Ti 11.186024414491214 9.787452494066734 12.117298713624127
Ti 9.33178763739523 14.688378212004258 9.973905848232913
Ti 11.14233938082022 14.113443349919667 8.060458170373018
Ti 10.030684315655005 16.523095666375973 12.137593526630171
Ti 13.175843378196781 7.945826532654376 13.875862346715158
Ti 15.544161314587878 14.29496692701454 9.205393162436602
Ti 13.56649398401425 11.749772479483525 12.173084929567386
Ti 10.925470327293478 12.330443636160672 13.338179378587448
Ti 15.175929849253208 11.630149413255523 9.881312703326827
Ti 11.507531566276336 16.145492895034455 9.588914565886784
Ti 10.370219546582677 13.105892202048727 16.024786450276842
Ti 13.8714846192837 15.944394708443705 10.860276804269814
Ti 8.818838662655926 15.598456195124607 14.780436789467618
Ti 9.913532705668862 10.567847768763155 15.410436939444798
Ti 14.963914648575653 9.619146404605406 14.355471252288725
Ti 17.510787764609752 12.568377020474712 10.549320827158784
Ti 8.516655187848322 14.547065305389623 12.444667210619134
Ti 13.489810414192036 15.43209132736094 8.174607067986285
Ti 11.944096608234457 11.354970266640514 16.996323344479286
Ti 10.91319219091674 14.851716284154438 14.126166067043687
Ti 11.36493746181358 14.40790000540287 11.62682646653911
Ti 15.464437413250838 13.621710167177364 11.76897220847145
Ti 13.55731874663817 14.346412848727569 13.257787765158032
Ti 16.115956742621208 10.902508636086964 12.214476223317158
Ti 15.302154205307303 12.355903545587456 14.30678825899564
Ti 14.351856295963605 11.129332714769173 16.395606884103877
Ti 13.089237820255404 13.351485406721068 15.55326618324404
