41
Energy = -272.9085575 eV
Ti 10.041191155669196 6.958961499291359 14.543253392318157
Ti 12.411839894741023 7.978837848216711 14.256924549247222
Ti 10.378135622182839 9.129226956146919 15.794496082625681
Ti 11.261769455873646 6.69411149764011 12.099460408196558
Ti 12.066219234059716 10.828433649748648 14.758522939967005
Ti 8.137414996015638 8.828807900355887 14.427507009007872
Ti 8.644921988609978 7.181866827056447 12.473780275622527
Ti 10.35029345887359 9.291704925086204 13.111491877396814
Ti 13.660125268313532 10.187274485189725 12.936009789085578
Ti 11.437862483759956 13.366777629995717 14.862219316724017
Ti 13.58370875673382 7.791309934539146 11.897007508787139
Ti 9.402049784061182 11.441326311116184 14.659149449838955
Ti 10.787560510727237 12.048772620473347 12.572553311560462
Ti 13.708746606593913 12.991684516976736 13.503843429521874
Ti 9.7230926084301 7.761970975016731 10.148924052376211
Ti 8.058216116277787 9.586143480225411 11.714775336162962
Ti 12.320056115079954 7.523322288890939 9.561482677634654
Ti 12.88803429220341 12.115523768875978 11.127238366191618
Ti 8.006423536750027 12.179709550414517 12.251637888373525
Ti 14.32406674741997 9.78551461903038 10.381637809725332
Ti 15.388882308881682 11.945564074748809 11.721274874040857
Ti 11.708042498892347 9.552568966886273 10.835000029722538
Ti 7.966714768407253 9.213981438351297 8.955246053105974
Ti 9.437176076651316 14.079815724521792 13.516367532520636
Ti 10.399693467775732 9.408116742241685 8.047461897513653
Ti 6.848919093447446 11.185577840210543 10.027626102641506
Ti 9.56856807491825 11.160543608438632 10.042427371313288
Ti 11.899934014786515 14.686455374385877 12.570243684637372
Ti 12.838874157577438 10.176988853366831 8.316266934530313
Ti 14.238329160434459 14.270946555870614 10.999298101350188
Ti 14.832298577258209 12.174253775564349 9.142091995768313
Ti 7.762557629446216 13.36074954705687 9.794793065932767
Ti 11.687318750742143 12.551763815616694 8.94204678756381
Ti 8.349605815481596 11.53394839164367 7.730951837343864
Ti 9.87823412924273 14.045349399706483 10.888092294118476
Ti 10.728912577066646 11.92911438246513 6.599631091638919
Ti 13.370473573855483 12.277943978231137 6.846984874115005
Ti 11.753297298182478 15.204589520977127 9.605016043497885
Ti 9.544308898863417 13.956340531465951 8.028070863650633
Ti 13.83985017359594 14.33853610168136 8.400285810763712
Ti 11.796983586127807 14.306273356293696 6.939610547879001
