49
Energy = -327.36963386 eV
Ti 6.410723694350378 9.406626823358318 10.485762233775093
Ti 8.772835175651071 8.343895300836174 10.190398209270992
Ti 8.100670381529456 10.439796559086835 8.771840981545761
Ti 7.590709903288979 8.463835691545409 12.592699660423252
Ti 10.1502529235635 8.558676687244846 15.044986630497668
Ti 6.5084899781774235 11.980676668414677 10.265473103852257
Ti 6.306300041671231 10.862725203387198 12.702520940417758
Ti 10.404160403104058 8.596498656357866 12.222713409391018
Ti 8.542675216982234 10.287797595339534 14.175193629862596
Ti 12.57327914164296 8.055309577931874 13.859442385815832
Ti 11.72715122347704 8.490780456985558 9.532173638226425
Ti 8.651683585247579 10.706103480219054 11.507851828961718
Ti 13.623051284605532 7.531973695626966 11.116230455498778
Ti 10.645807715385194 10.546650584698853 9.775690570439636
Ti 10.331806693887696 11.178048840633647 16.2233614837544
Ti 8.987723478301346 12.85752293186672 9.568811367479254
Ti 12.313540194391015 9.505908539481457 16.18370694056889
Ti 11.316633064589222 10.55457096690273 13.915006700903808
Ti 10.852315808482802 12.684103876247523 12.389876016983237
Ti 15.007149181972965 8.49397033028335 12.8769200904208
Ti 7.941897107413079 13.19508871450402 12.182546174618016
Ti 8.862511642600776 12.700674328832799 14.593473982840342
Ti 12.516430980695272 9.990143563706388 7.334432337089771
Ti 10.01522506239193 15.140249671447696 10.940953989118926
Ti 11.20410707249726 13.650872411823645 15.12328747232154
Ti 11.83513978618497 13.445081447590699 9.819992016234394
Ti 10.112416220835133 14.86789500681807 8.32335906528582
Ti 13.02129480049248 12.047531617463477 15.87530989331612
Ti 10.730889868974863 12.242235191397478 7.482737306683801
Ti 14.139829351686112 8.65370867585065 8.74542062317075
Ti 11.984256593156974 15.21266159175831 12.470435107451795
Ti 14.399606426200027 9.870073516555399 14.833526961461573
Ti 12.870828927130745 9.903501653878514 11.69741371990449
Ti 7.557034385682449 14.925337360178867 10.270138453056372
Ti 9.575521520884806 14.891594509435581 13.521421346229143
Ti 13.751628048453508 12.103105375384269 12.835734308763989
Ti 12.523124600245653 15.8596485609647 9.474964369156979
Ti 13.78370788094235 14.286366173048743 14.306321522265625
Ti 13.295645283349636 11.324970318134003 9.477000249143474
Ti 15.491480176692786 9.718491446770466 10.57576406389702
Ti 15.395495593618799 12.281253407934168 15.05803535734841
Ti 12.29307611697243 14.468052216640755 7.260455601500082
Ti 13.290079718035361 12.343581126292841 6.845177949778663
Ti 14.044444534317527 14.356379031855626 11.261668196883834
Ti 16.230615995819566 10.93158566515854 12.938859348769464
Ti 15.164939304927755 10.992481096310062 7.958550738845422
Ti 15.944191310333926 13.57861183228616 12.942907912783811
Ti 14.462970922167154 13.9681303419641 8.604453724172146
Ti 15.555003560478564 12.315573563050025 10.655349813302626
