46
Energy = -308.22050682 eV
Ti 11.04451348425019 7.812679201203558 15.517813007152498
Ti 13.721284500131574 8.060664135346245 15.237769825572089
Ti 12.03763911368648 9.727605926074219 16.708493648851896
Ti 12.013337393704502 6.964913069365635 13.277913553743955
Ti 9.605249968811258 8.44256230363987 13.470501570550406
Ti 9.749993822611701 10.182519207223164 15.259176352776837
Ti 14.010194925223214 10.75864454628267 15.733644598882154
Ti 12.172673641382776 9.722992114384835 14.002513232434895
Ti 14.57572785131359 7.295811773925366 12.551596746396575
Ti 15.230072115942214 9.776095518029058 13.666849006665938
Ti 11.67242622310826 12.055854809170015 15.345381183647474
Ti 12.55187844078688 6.856147403952766 10.6718547400254
Ti 10.67522752056176 8.582253496224647 11.260689995413959
Ti 8.191864701786901 9.507107384812636 10.77078110954545
Ti 7.640115336327334 11.203066008928445 12.874408283449377
Ti 10.38603600242322 11.041627810038335 12.77379605415224
Ti 13.320657218634958 9.341571529396951 11.480097688063639
Ti 8.889219503697106 12.949549875163235 13.927950872241876
Ti 13.713172792635948 12.200122565353473 13.610525542982558
Ti 15.998383157353246 9.224352824006838 11.256189555402399
Ti 14.666543011658336 7.767094599881426 9.804583602060452
Ti 9.58806470313161 8.501956511561342 8.83233869616803
Ti 6.834478784670352 11.540496183532028 10.470127319927323
Ti 7.0963795001697 13.847556532893384 11.800834679127618
Ti 11.457769904327105 13.663575616164243 13.02544727236554
Ti 12.297470377547981 8.981806495287342 8.94530150610906
Ti 14.502649572462138 10.49994616558825 9.290166913093433
Ti 9.251167998556097 12.824852993883775 11.18393480910576
Ti 8.135347283294387 10.739906884684311 8.288141051968214
Ti 12.553533186824543 11.808710211581195 10.971221549238198
Ti 15.138003083810702 11.657844552690683 11.551281005433674
Ti 10.580284609822204 10.151454705115663 7.1205587102087975
Ti 10.431916601254153 10.86047405435337 9.636589520242538
Ti 9.235062200852793 15.101366157044634 12.849590862178792
Ti 11.262355273514883 13.984729315867535 9.751465198650244
Ti 13.482065490988468 14.304768686126568 11.529378801002748
Ti 7.751028796575773 13.477940788187098 8.9980834851681
Ti 8.744723135145042 15.665128544391692 10.356775659336131
Ti 11.24428103951437 16.058632425549348 11.50399140456979
Ti 12.470886232609852 11.835975159221174 7.734586265613274
Ti 13.892706477304195 13.386058682121579 9.171657316041873
Ti 9.972347854661779 12.6745671812406 7.33080523141819
Ti 9.422253527306118 15.06201677046549 7.866995794410057
Ti 10.878344474279304 16.60828748705304 8.977494912698184
Ti 12.016368996690437 14.674364463738582 7.376979888159988
Ti 13.181125443720223 15.90117260432017 9.520547252818208
