45
Energy = -299.30546806 eV
Ti 14.436222691421637 8.812336991598908 10.407438593893737
Ti 14.922297490492026 10.820088719213887 12.13485937924809
Ti 16.082459180847103 12.972503859120438 10.678738685236596
Ti 17.48302135705298 14.700763294845766 12.297569294933991
Ti 13.855528343307167 11.299446180132074 9.36830280446019
Ti 12.204684878724443 9.099354381660895 8.985729698758519
Ti 13.804923388936134 8.397637635794059 13.083497647115573
Ti 16.694706232429255 12.580640371994026 13.162142154242009
Ti 12.876809839809978 10.55522015438401 14.364227024700684
Ti 12.319961747388346 7.479778880466221 10.956625378760416
Ti 16.60830301724183 15.685490386774209 10.526558269314872
Ti 14.430549192693341 14.586535302759598 9.229279166118069
Ti 13.698710886384955 12.83773133988452 13.607163759086857
Ti 12.427091078546527 10.172477262544158 11.427752744878214
Ti 12.882808763064164 12.987721267708732 10.782868650055914
Ti 14.88354942965513 14.77060681399289 12.299700956935748
Ti 11.015703312478497 11.379108473934771 9.508157632994012
Ti 14.011480094798452 9.456929565752084 16.332534335832833
Ti 15.452918943781544 11.273143661215773 14.922903589791822
Ti 12.215282449311141 8.055475287297238 15.380312190531681
Ti 10.923661139771275 7.878833626672326 13.03765798778952
Ti 10.026946762219108 8.973351320595643 10.79710265974319
Ti 13.537551454733514 12.252922639295198 16.269733944760155
Ti 14.112104962625928 16.87881100088023 10.30032639574929
Ti 12.231181187061175 13.323580483538887 8.251725053987439
Ti 11.465220618151932 10.27044116668566 16.71937081578355
Ti 10.07423767032516 13.978464276703239 9.782026034221422
Ti 9.864166927542936 8.663055228084708 15.387256708774395
Ti 8.464481750950176 9.456983423770795 13.270578081323462
Ti 12.296362464336342 15.434467142245948 11.80839863583822
Ti 10.560943258143265 10.586707360237561 13.423944042981915
Ti 9.102586698294541 11.61141713594314 11.255997406664214
Ti 15.56692744195704 14.165944733490056 14.888139048294988
Ti 10.918896400177683 13.230532353294906 12.519540220321087
Ti 13.855297956340886 17.211138339624647 12.94748060947821
Ti 11.852929178042295 15.896183257997366 9.233493584260383
Ti 12.692244391034697 15.096815007088692 14.473265219162704
Ti 11.946243412590498 17.921116247970726 11.143754983991606
Ti 9.845004587185347 16.27294583210879 11.260801295312225
Ti 9.107711454791865 11.028203188427447 15.675226024337748
Ti 8.658707261308699 12.437898219015572 13.677519297702139
Ti 8.455177044079463 14.182502313014151 11.829283827449347
Ti 11.26281844221141 17.225661770163633 13.484998163819256
Ti 11.078876078646305 12.811559843934752 15.235554565149062
Ti 9.81024927934291 15.23096991518439 13.897874957521122
