47
Energy = -312.45052092 eV
Ti 16.494206365560384 13.506843765792555 9.71355261805161
Ti 15.802604674550036 11.312798409878512 8.589366225602996
Ti 15.743428723025184 14.139605016687957 12.224406332527664
Ti 14.32918409617258 13.697894600293145 8.038879081868732
Ti 16.187286139620465 11.557882208535478 11.670313942355607
Ti 16.17187994338642 9.330636923072532 10.204406489133115
Ti 13.408526430264942 15.669229834639735 12.041056008055739
Ti 14.79786307739594 15.370515092035967 9.991365450602984
Ti 13.610830585149204 11.250497085474148 7.429080639966657
Ti 15.923706565764508 12.628030941587976 14.456890808705591
Ti 14.440517488340397 8.784207114730904 8.086755930837844
Ti 14.659874445820984 10.515470505519934 15.173668597975956
Ti 14.280928938147595 14.690043760835575 14.23798142008101
Ti 14.656168938647706 9.49547389354042 12.522842484713623
Ti 13.757133503948198 12.103134170174513 13.202210880924532
Ti 14.086624692467536 12.698931401168208 10.40028478438139
Ti 14.496551252989772 7.59158366857602 10.589593964328536
Ti 13.473691198667243 10.008315119761804 10.090921856701328
Ti 11.877238095046524 13.490728105234336 11.877104196003321
Ti 11.785340030409001 12.368407839866354 8.889534099974968
Ti 13.69203120125752 12.98137112562486 15.981872555588627
Ti 12.299040623820662 15.012150395073169 9.508384884017097
Ti 11.695783106417565 9.723598288412079 8.023657331877617
Ti 10.668655318307097 15.670978915286891 11.814281953723846
Ti 11.68507693639753 14.495556853648937 14.502125583797989
Ti 12.39001914366868 7.5697195141324904 9.2270639901369
Ti 11.517093896151284 10.93959692865518 11.625524421198085
Ti 11.201972665325 11.886648386275425 14.298278057955935
Ti 11.176186888860213 12.821131018228177 16.826278286519067
Ti 12.241925618139893 8.090897125287254 11.880851533041408
Ti 9.808313118448273 13.832445646172904 10.015583206819047
Ti 12.429126374426215 9.385683635227622 14.271934562535463
Ti 12.57313329514087 10.72754563261037 16.54213236281758
Ti 9.472654064287369 11.20209634692634 9.563908235797454
Ti 9.198602308904336 14.948017030802903 13.841445803568371
Ti 10.431355044291335 8.849908396237431 10.282489391993149
Ti 9.227718920488297 12.579309094705899 12.439595546361765
Ti 10.017762898020594 9.473144809220209 13.304607117413877
Ti 9.083110205325127 12.997386133400866 15.564287337286359
Ti 7.859159988395457 14.955707266151732 11.602013795979074
Ti 10.101064993109615 10.378576569527484 16.028486843673956
Ti 7.292267949465844 12.60074148024844 10.470996823309376
Ti 8.265341919654801 10.181767386676665 11.549276193427914
Ti 6.976631592326577 13.450135501418847 13.740839161077687
Ti 8.01191649946412 10.909714246361252 14.318838484022015
Ti 5.425245912924852 13.668572752863355 11.784035707291412
Ti 6.154711726287448 11.335388226604609 12.44982803904623
