42
Energy = -279.72675004 eV
Ti 14.154015944744833 8.055649051913862 11.308382402385686
Ti 14.75534069993529 8.93776038604025 8.537288321296485
Ti 12.651821762253665 7.557177617236498 13.471538594059908
Ti 14.266571644497768 9.77883954244431 13.62530126598399
Ti 14.915122952924687 10.428888387445529 11.03764311900522
Ti 12.742313517153036 7.122914982762106 9.367869023967062
Ti 13.758608151959699 11.447097244033031 15.526755896094558
Ti 10.981573923389677 7.347348890923192 11.328947649190335
Ti 14.197459534745535 12.636845976961213 13.079742799086905
Ti 12.02232471799406 9.404086811051688 15.289199217138137
Ti 14.575918441067627 11.747798680489753 8.976456207886828
Ti 12.394853427208417 8.295299057115233 7.227364232738099
Ti 12.113048181089326 9.620416268538236 11.970719825796118
Ti 12.60019112782077 9.824858327479099 9.3810704748462
Ti 12.689766729001942 12.192703148152638 10.923408887216041
Ti 10.084901946312272 8.461351366771037 13.492819983467822
Ti 11.815367701482506 11.660833614871171 13.75235993212017
Ti 13.375194946748918 10.663976884663784 6.931239968095964
Ti 10.21648866035896 8.341414904025838 8.933297279463302
Ti 12.631413943179227 13.726982166974857 15.14685419226909
Ti 11.303498568248864 11.778287210606418 16.325737431335625
Ti 9.393965796342894 10.741058451579853 14.662142701003559
Ti 10.709220451299311 10.274382626478147 7.036229499355818
Ti 9.926977107114249 13.354101416026207 14.656406034607052
Ti 9.687012033004372 12.280230864541394 12.267532296074917
Ti 13.083607256810382 14.675802414349484 10.082932081625778
Ti 9.494742779544557 9.95043277511846 11.249642173229386
Ti 12.257332232092876 12.781384785198627 8.185363220434724
Ti 11.727562154948176 14.194703092467378 12.595297993231071
Ti 8.03436336820056 8.075717826758307 10.8777971753468
Ti 8.154794918960866 10.085109816004126 8.74014405173701
Ti 7.540234562052115 9.489053775712634 13.111859310832715
Ti 10.325726666584359 11.296966373442952 9.301474135595027
Ti 10.567207290210401 13.759454352353048 10.144329540799207
Ti 7.32519516441332 12.146901291187131 12.937543978843609
Ti 11.19800964474846 15.36259293421003 8.223446739780316
Ti 10.885503614819966 16.220579313658806 10.71623331073625
Ti 8.86170621390024 14.753913596243454 11.92093543964726
Ti 6.83432939024248 10.50482284071489 10.924334663434879
Ti 9.394160181924711 13.199095818967308 7.741793707458989
Ti 7.93366655616185 12.812366926608576 10.059052275905056
Ti 8.76890128255772 15.360813375931187 9.281528154928766
