45
Energy = -300.82552729 eV
Ti 12.621577345542178 8.189147010805371 8.63782846535679
Ti 9.954546831534957 9.087767416771525 8.172895827299103
Ti 11.92876542321088 9.982512294380951 6.643005111421162
Ti 15.191671119247909 7.863830095059008 9.605439878077947
Ti 8.327186411205018 8.382669053330767 10.485940049559543
Ti 14.343155678162992 10.017566088819615 7.956005916815443
Ti 11.067917352499402 8.325689159677255 10.534996731654752
Ti 13.345177833839463 7.668118894771807 11.907683465636634
Ti 9.86024338868763 7.728799277958272 12.838835179473232
Ti 15.930227536076455 8.717605695200284 11.910919341133306
Ti 7.218480549604608 8.41094732571778 12.878314966128826
Ti 9.935716394994587 11.684847469541982 7.3399531958358395
Ti 9.74683226821371 10.649208408746691 10.45036089511889
Ti 12.044883233367358 10.862579692712908 9.068714313462095
Ti 16.36988630124142 10.193722524429228 9.763149935054837
Ti 12.750594999217073 12.476333571886196 7.186815373405004
Ti 8.484696164186143 8.84364535858606 14.952847773129372
Ti 7.843688206938037 10.885954579143878 8.869048668438857
Ti 14.24900253872204 9.639714106562856 13.554142616017753
Ti 6.799426156052837 10.307910005814788 11.287471737083667
Ti 13.885436830539527 9.862511082015954 10.656488971609003
Ti 9.193248488303679 10.322892901137706 12.926932516089787
Ti 14.625626580702919 12.254656318655668 9.39973602499579
Ti 10.699344622225631 13.100242590803925 9.945979266338567
Ti 6.962925256517974 10.900055376079782 13.96372365893232
Ti 11.009782761416334 9.159127159063837 14.770528326924326
Ti 10.743337440248792 14.10820324371488 7.440452694292559
Ti 11.851296691750253 10.008238878792875 12.458138632810803
Ti 15.785775459460947 11.438209060258771 12.001478838200807
Ti 12.824346119487428 12.474381626019172 11.53968125990993
Ti 7.731933072956018 12.492719257735597 11.431079640173735
Ti 8.460005279787719 13.615433061898727 8.835552002825882
Ti 12.894838723363957 14.441944698589625 9.223275581792837
Ti 10.500513113146557 12.851437961617453 12.966987076332549
Ti 9.023554723962919 14.623871329173872 11.537935741107052
Ti 14.22888074796881 12.191544705377181 13.832067528818035
Ti 9.242951627252852 11.320949730380345 15.51074441321174
Ti 8.186461819790853 13.469976102804951 14.099907244287724
Ti 11.987954834800863 11.51843636601566 14.953789174915615
Ti 14.589315470057935 14.082427468137737 11.860134871175198
Ti 10.381598969584665 15.579717814853176 9.417424530605418
Ti 11.834908271654784 15.040839339663448 11.645935221836561
Ti 12.616215470547917 14.203283634178677 14.050140490331456
Ti 10.177868140935779 15.328152360203587 13.80287719645927
Ti 10.438697201058948 13.582673352978919 15.575133105989062
