46
Energy = -307.06656431 eV
Ti 15.34603905498389 13.877415952030479 13.034445837402393
Ti 15.886944793416097 11.273132086882688 13.390471057410583
Ti 13.111071612185944 14.805763359210477 14.657562241957216
Ti 15.009827594322063 12.860962223206293 15.404168548497365
Ti 15.965458970796343 12.249952050548378 10.851384500727509
Ti 14.711238410192575 14.519325582525413 10.601511907873808
Ti 14.866967048100152 13.20662167294771 8.36655658212465
Ti 13.058297859219133 13.513357129855905 16.910896893561315
Ti 12.411377023308578 14.925018739798867 9.328350967520324
Ti 13.584318701403854 10.865905100347547 16.720714346284872
Ti 10.180405937607533 15.521225428019875 13.46749977787919
Ti 12.594305328706385 14.605229714243986 12.080123749616583
Ti 13.69975867567758 9.621539491253058 14.08379463752657
Ti 13.635878337245316 12.050064710432437 12.284379753896502
Ti 14.95750021048518 10.335766245636005 8.994025100265427
Ti 11.66762046169953 13.354037086038852 7.687346259752663
Ti 10.506400124322273 15.788271186719552 11.00709925068628
Ti 14.737645316119492 9.686781694790604 11.495242461109374
Ti 10.63988605141962 14.041085046039182 15.728812010620523
Ti 13.094850821209253 12.292670116172456 9.787620183295072
Ti 12.551026863313519 12.143157333008974 14.735944836628489
Ti 13.453960388986793 11.327396943660581 7.205377304669009
Ti 11.186271372164967 11.831331334125688 17.125359391167926
Ti 11.56044160449268 10.3019448488733 12.683074917261951
Ti 10.544117930314007 12.915886989454064 13.094080459052238
Ti 12.297683471578098 9.813721763390237 10.069758280557814
Ti 12.872337421711746 8.941413451513297 7.68165109414275
Ti 11.299733304272936 9.792918176263495 15.439124365523472
Ti 8.391896466101093 13.767791522730718 14.259870162327061
Ti 9.09454275551325 12.635593604271612 7.850650302501941
Ti 9.40659048450176 11.562172084660784 15.211638175262236
Ti 13.160328049701503 7.729889187802662 12.161048206553913
Ti 10.581036679087086 13.09454163639846 10.322303296145334
Ti 8.389489868038906 14.376439824005823 11.711885463897945
Ti 9.8575777837631 10.613628924952394 10.491045437784488
Ti 10.894668187468284 10.779505068512421 7.686430323717386
Ti 11.343218549629622 7.8809162698715545 13.759116523173493
Ti 13.371403463961611 7.611116144565388 9.724068876100995
Ti 9.234331030390317 14.793077465631626 9.032870349279637
Ti 8.142699655608352 11.704765344427631 12.458396706253557
Ti 9.16626836061665 9.393841634846531 13.230301416523282
Ti 8.287944461424853 10.341031285528468 8.297486187767502
Ti 10.519887663386324 7.969828514196113 11.271092601224137
Ti 7.607888133984105 12.253504615006422 9.964858064646288
Ti 10.283227058836259 8.507717404779891 8.790655753449197
Ti 7.745372398618372 9.463786574608068 10.765339989689911
