45
Energy = -300.56860538 eV
Ti 12.798678945463374 7.701390215848122 8.654151932864721
Ti 14.448040414578255 9.032690495853686 10.534660490834998
Ti 12.232556241688933 7.665013152581757 11.208922510834954
Ti 10.2626459001789 7.988969962836582 9.436713488615391
Ti 13.913862257015621 9.87805701329427 7.749703998812769
Ti 11.161759770654122 9.148046629532738 7.120399922238021
Ti 15.33584888762542 11.136396714615103 12.12818214001864
Ti 14.424538830344407 8.53823486409081 13.17841692564811
Ti 11.948050182456731 7.502044320061849 13.782913832024372
Ti 9.860852057536999 8.319750234836762 12.333233674777745
Ti 15.343657736892835 11.196873819716151 9.542055849700537
Ti 8.93683297482488 10.14554775593114 8.411109213361796
Ti 12.035377312775418 9.942250790130169 9.618578050073761
Ti 12.464880446790502 11.308627892232593 6.185114440763778
Ti 12.995988336481197 9.184760785686274 15.298044995740042
Ti 13.821623022573855 12.640563450528587 8.035647562041955
Ti 9.987498421600778 11.237526616198211 6.058345132044374
Ti 13.099339873269372 12.165402165881138 10.832928525656525
Ti 10.315050775325217 9.36368759706216 14.744462990651177
Ti 12.310551569970727 9.93952214402876 12.732674173692503
Ti 14.440216338516048 11.109165244265164 14.498241901756428
Ti 9.96981310304679 10.60291921623423 11.133571349079038
Ti 15.045070959473332 13.654965755398345 10.451735768238406
Ti 14.652585768810512 13.597307794369009 13.289077140015891
Ti 7.880724729545591 9.536440597040576 13.90077601508458
Ti 10.957649874173391 12.073136971677316 8.486336707497959
Ti 7.351354700210221 10.654406084817994 11.597005887659492
Ti 11.543955567108377 11.281705189878855 15.869858173510407
Ti 9.500198153379182 11.797286426926513 13.5477733788231
Ti 12.176124924539856 12.57914796769314 13.475825717767204
Ti 12.806618707291673 14.771967274070231 11.71510356599857
Ti 8.65797177119209 12.8073282116971 7.205943645588788
Ti 8.472893047314505 12.317514391368993 9.73211441168227
Ti 13.420527260426725 13.218710491031965 15.738063735607598
Ti 11.202671124923985 13.640927762853972 6.527778797645646
Ti 10.677088016784396 13.229536107092425 11.064374609722442
Ti 12.494513947869505 14.358568427231589 9.102171692263818
Ti 8.528248636857482 11.29448310109869 15.848046743047721
Ti 7.867875682624938 13.414401269548629 12.047443704178358
Ti 12.583471302335798 15.07245203679152 14.270799722659838
Ti 6.755567067100674 11.776653561682124 13.856470563282208
Ti 9.8200269299561 14.490492543791195 8.813982507238496
Ti 10.642392132214187 13.569265784884598 15.527353350016753
Ti 10.058719496880244 14.622458542938533 13.246213893681743
Ti 8.034898121987522 13.732213947281416 14.706488490168063
