46
Energy = -307.75073644 eV
Ti 6.6953981163509715 11.26082851709291 9.739398940747018
Ti 10.705266457639793 10.173220481523051 6.117381644146709
Ti 10.270270077668952 8.065185424505653 7.576501880233277
Ti 8.735824863131123 10.464454602057076 8.047549892375125
Ti 6.661133213345272 9.847888849932524 12.117926729806035
Ti 7.359103738181003 8.693659882346795 9.680268350316103
Ti 7.718348490964026 12.620523198678102 11.91384597494965
Ti 10.694290460885162 12.531423438511153 7.29557944635948
Ti 8.83461065243713 12.944344176425117 9.276296429889483
Ti 9.922185645547977 8.175483110801807 10.114760444947784
Ti 12.766525931114572 8.7412181550792 6.951909566049499
Ti 13.016690677422412 11.24076501509779 6.762640581297497
Ti 8.865113148208096 10.545005690412705 10.762685079914501
Ti 12.378632465807549 7.749007318865567 9.387613579291799
Ti 11.483055624211637 14.637017187802144 9.65427134271964
Ti 11.3790344943353 10.23220145075224 8.671412048332899
Ti 7.695725645533477 8.928628507144632 14.480621783358394
Ti 7.774617446334548 11.319274515619236 14.03407411864432
Ti 8.206105841448649 7.54407379467422 12.241995536033663
Ti 9.89321580879765 14.560628726996574 11.533536448629548
Ti 10.996557382485951 12.159029627184042 10.610597483975525
Ti 12.983512536359633 12.767866398126758 8.778699081611698
Ti 12.328627470530941 16.258757238654816 11.795865824984558
Ti 11.019007018871696 7.183729587084106 12.318511570236804
Ti 9.821785821964559 9.56754490957078 12.953131352777843
Ti 10.668861694941272 15.329519623075873 13.844269556160127
Ti 14.21774206368473 14.68825815457172 10.211309690530557
Ti 13.999950469872537 10.067585451389352 9.259338023428779
Ti 10.292117603900783 12.275571174178609 13.18170696949189
Ti 11.963691836693197 9.62698169433556 11.380834595336067
Ti 12.49372242641989 13.809953217266347 12.363743602485712
Ti 9.74227273413475 7.60023074637433 14.604135147660571
Ti 8.984429243466991 13.567268233784647 14.732862122679277
Ti 15.511473254683606 12.425875117504711 9.305784623422259
Ti 13.87192413623138 11.758008429191117 11.311567346260198
Ti 13.066646450783608 15.502746827754335 14.36874225163971
Ti 10.077535369558698 10.439098439084596 15.320640335107026
Ti 14.749156163498663 15.414182993590284 12.604109361135825
Ti 12.093694831417508 8.660670435451628 14.146453115931187
Ti 12.676658072011637 11.048324254036713 13.825891156398205
Ti 14.195846845776817 9.130065365516407 12.014354138552665
Ti 11.902001433050383 13.253689402676484 15.169686395838086
Ti 16.014852105931407 13.220417180565004 11.86710303470573
Ti 16.224232133556924 10.627608769627132 11.012631650272343
Ti 14.596458243126369 13.296429821903294 14.21044077093748
Ti 15.407125650401252 11.000786655902044 13.402352773117268
