49
Energy = -327.88332997 eV
Ti 12.815612585708092 9.877602904184691 16.285060411744535
Ti 12.498418954078742 13.664663832817288 13.846070768525758
Ti 15.163604188699471 13.28319700021633 13.002802278516738
Ti 13.975112022838006 11.456671825845923 14.468693391896275
Ti 11.241179705567458 11.637731640979043 15.304011085980825
Ti 14.674901909275992 8.953351562941837 14.46211968197053
Ti 12.697915030794498 7.540735822352399 15.671772940656556
Ti 15.495750713277703 10.732783800732918 12.136811085592285
Ti 11.476250126513774 15.938385098886684 12.947375145328921
Ti 9.843965300559876 13.974231775465665 13.98394079380555
Ti 10.31200205356108 9.056098785652074 15.435113836404557
Ti 13.462172717326789 14.765944895330632 11.535290919494994
Ti 15.370035372501725 12.985131946802408 10.390308500151994
Ti 12.206790899203602 9.284267889548591 13.652091537044566
Ti 10.716909550124651 11.540252783431404 12.66492249951969
Ti 13.261315018077966 11.928653540794636 11.754278189487328
Ti 13.25750490409505 9.078803518947794 11.228980093024074
Ti 13.56078193923843 6.907262875274502 13.161476950299777
Ti 8.541560900708015 11.071134335557662 13.962242919538653
Ti 9.088430846877408 15.826821064029586 12.161794952471398
Ti 11.079039143851977 16.213225473503538 10.331012093127267
Ti 10.899342873780494 6.863431362114304 14.084512731577261
Ti 10.797207511972868 13.855453104327742 11.325533889603983
Ti 7.995595988356319 13.405128675784562 12.15881350936696
Ti 13.518004554515935 14.764795802620144 8.9919316587575
Ti 14.85715651279942 10.508754242197568 9.349049791822576
Ti 12.634960576740575 12.17664968889228 9.132738218934865
Ti 10.764003071105003 14.320342009966058 8.292206733700315
Ti 13.781346237741333 7.022228784962178 10.028729672131103
Ti 11.563477733442296 6.71948869292518 11.650969613915665
Ti 8.5696089167594 14.83013650170069 9.782801117434355
Ti 9.527895715742924 12.255348223190385 9.497267066640052
Ti 6.136242026954624 11.424749427751323 12.417745666852392
Ti 10.914836346953637 10.043278453072372 10.214385530740385
Ti 15.002456870846137 12.806880645673102 7.867193737400833
Ti 7.146702075679328 8.95462982405073 12.583894814174599
Ti 12.740769260824973 9.158854512035715 8.313160134916831
Ti 8.384925434975575 10.810070424841472 11.332437002741537
Ti 6.7179473551671975 12.520180115958137 9.820188446812313
Ti 11.173456131869614 7.46911567365791 9.335679435561433
Ti 9.807761002325506 8.726766550183518 12.40557155110012
Ti 12.746465714042007 13.49682876261277 6.776520965558156
Ti 10.773495532154342 11.596398105156895 7.230461614007208
Ti 8.358150330257757 13.12221555260213 7.480138707532317
Ti 13.56353401399986 11.055455587114512 6.804283264441115
Ti 6.1656315624925995 9.884272369407416 10.25477037408892
Ti 9.996842823410049 9.163629527030327 7.786419265521013
Ti 7.808418968262594 10.52976600612041 8.276063720792084
Ti 8.496440433918274 8.380128460724242 10.00229114926182
