40
Energy = -263.63975607 eV
Ti 15.621131272343156 10.782551523183985 14.011213963175166
Ti 14.439016562309108 8.505776420711355 14.511226875518563
Ti 15.485070276108463 10.829815279443057 10.569679403032481
Ti 15.148155517248448 8.921419645965242 12.181666425997845
Ti 14.346045270013054 12.721234691386107 14.764194843785333
Ti 14.322647894917173 10.513621634449903 8.344854095939194
Ti 12.051743182208856 8.47583155383497 15.08439251698882
Ti 13.7853299152891 8.572656459735661 10.080505107828394
Ti 14.558532346358076 12.74623119663297 12.179258017849305
Ti 13.451346612760268 10.601745182821292 15.90399177620469
Ti 14.229997606039097 12.955209319511491 9.443160844545988
Ti 11.748702837252381 9.470710278382953 8.331711217381674
Ti 13.051304704596655 10.449180967176522 13.258389096947798
Ti 13.23889234172618 14.836094369248332 13.656502922746077
Ti 12.738398167680666 7.744374578324941 12.585031852011412
Ti 12.7612605298361 10.971278281051271 10.487871356739737
Ti 10.94620572590036 8.556169458622504 10.726505810528648
Ti 12.906583017097946 15.181253215646684 11.158192986868055
Ti 11.85038140076555 12.766748120825437 15.045442586422993
Ti 10.555586604762066 10.498899723084754 15.395881775918603
Ti 11.925451715349109 17.153645537786236 12.441723043205224
Ti 10.70648500861442 15.126890467772233 13.415159609234236
Ti 10.145344973765026 8.28819298690526 13.517377577562378
Ti 10.388837089048161 10.741913104354637 12.674511770056393
Ti 11.81459650988735 13.00542137702954 12.25321426428942
Ti 9.139131312360712 9.083019629360013 8.665081326020575
Ti 12.365996517460186 11.992781631045547 7.821211103475795
Ti 8.274518030600689 10.103697615233703 14.040699734117736
Ti 10.377158728816683 15.640082600159174 10.777592805519918
Ti 9.190872539123362 12.576735336799194 14.253549153738168
Ti 8.46459608988129 9.324316761227514 11.325613000420306
Ti 10.059618431109874 11.179282368404802 10.026580429451647
Ti 11.437914613905178 13.564479943843535 9.631810550605996
Ti 9.73317944581391 11.431500353195942 7.3854454074172144
Ti 7.876461329470722 11.707432696752454 11.936250359126745
Ti 9.017299310318553 13.829862118040579 11.976119951538571
Ti 7.593855134894787 11.043368150438434 9.05111394966592
Ti 10.129915082124334 14.1257376625143 7.372869676437131
Ti 8.60873228705303 13.432737493377138 9.34778314728455
Ti 7.870082200430134 13.072000813219992 6.934120827204384
