48
Energy = -321.73629409 eV
Ti 16.86089657997985 13.893079839382253 13.580895885061597
Ti 16.531590054587262 13.696535495381948 10.962507345795496
Ti 16.513125547988103 10.989285753681202 9.976900996513272
Ti 16.56610105672956 11.482242594452375 12.679636624435453
Ti 14.873201138821617 14.999290216953721 14.749650912815458
Ti 15.656207362579751 15.840174586314745 12.46014816063294
Ti 15.063272357235041 12.34615794968485 14.993709765852655
Ti 15.863141987112275 9.106182606755903 11.769791589143363
Ti 14.899176610677921 8.808135789734484 9.57550825141562
Ti 14.41871262910226 13.458918110792322 12.562218582769969
Ti 14.449272470622303 13.136318159808393 9.2393891754011
Ti 14.56286747657909 10.689687589192987 7.933533375652555
Ti 14.439717842273764 10.02267209156978 13.807815774577575
Ti 12.693553924269555 13.682403501759765 15.190041665550725
Ti 14.140260382313416 15.318774437870818 10.516659686929742
Ti 14.1677503550445 11.014982520577805 11.059284914873354
Ti 12.975150715516236 15.69754389356567 12.871462471398566
Ti 11.557856786348143 9.383417230761578 13.84835402719317
Ti 13.166037175408185 8.551211283700754 11.765642804525001
Ti 12.255970154202943 11.801122239206506 13.141655227799298
Ti 12.761741598220366 11.089802536078196 15.639150714044366
Ti 12.349169223703061 8.84844683421414 9.233468950429382
Ti 12.067363229543284 13.655790805521422 11.129642945272092
Ti 12.246933357219831 11.53709628611347 9.19135864115527
Ti 13.066679811507052 12.535867150517856 6.864099169679927
Ti 9.316118709420369 9.23534946510762 15.300516244362193
Ti 10.954689143801248 10.339039089414568 11.27118590067607
Ti 10.508950034272727 7.8287741607404415 10.838504837976862
Ti 10.727471923167055 14.425561451093653 13.669382494562976
Ti 12.069393948228102 10.116198374953854 6.8978867869752465
Ti 9.582194003955992 7.623482603621036 13.207724819646321
Ti 9.877685275677464 12.657620908142322 9.807608911143568
Ti 10.304898280731443 11.785122204901459 14.938453749407685
Ti 10.016631483677891 15.190213620875218 11.077145708179778
Ti 9.332064934101872 12.882174790956919 12.371076515951456
Ti 8.959565597745176 10.26608122407971 12.896644444430176
Ti 11.780154195228842 14.10768069955848 8.494297100538104
Ti 9.877262498320599 9.8022708213883 8.974149484217035
Ti 10.470057376290471 12.096985927947012 7.255306476431219
Ti 8.125328739276824 15.128113532954965 12.944511824553633
Ti 7.259237262775483 8.488301264663594 13.747895571740266
Ti 7.9831312920640185 8.57954847860699 11.086761712315589
Ti 7.331025793019653 11.055490521531683 14.778213907301513
Ti 7.621004150433749 11.33538466356824 10.425147403327776
Ti 8.360620090168018 13.533156557110978 14.838758256071051
Ti 7.680197031963076 14.051745434604413 10.577167779614252
Ti 6.658822674286842 12.837996952151483 12.794639246134885
Ti 6.305727741916124 10.296549756542698 12.312475173632462
