44
Energy = -293.00517219 eV
Ti 7.59325451688578 12.208765914671638 13.407070388793311
Ti 7.39871840380384 12.07241071685091 10.63656881698404
Ti 8.636753104900672 10.240040575547786 14.585217139559038
Ti 8.701115742621875 14.367905861055181 13.826668934085315
Ti 8.518390857083725 10.15129054691624 11.826097028046934
Ti 9.279960217624225 12.50824061268706 15.645641118935753
Ti 9.39782830462126 13.619151429569923 11.166541861034716
Ti 8.142080295761398 10.137569616012927 8.9765868155728
Ti 8.51419693933094 12.937436991089209 8.640036543262712
Ti 10.359326768224925 8.891100753210761 13.25156639594114
Ti 10.21325110462425 12.004887718160054 13.184703955603398
Ti 10.89016302314919 15.092584158558212 12.870710782684439
Ti 10.035020091805157 8.411974118404904 10.523165682121965
Ti 11.171190983317516 10.361700534859517 15.497610304504935
Ti 11.056570176558344 14.59699087903368 15.456199272156962
Ti 10.942034239000312 15.628655683303206 10.133799541453813
Ti 10.286585895407299 11.314641125172098 9.832554038655198
Ti 12.126978277197567 7.730200496697861 11.944433497454062
Ti 10.464060524753256 9.135079847574724 8.096197722790649
Ti 11.65757738654148 12.483855335752445 16.81435830216496
Ti 9.790907001131862 11.409767485285675 7.200342459244727
Ti 12.100619628261082 10.38727928044647 11.490552669273741
Ti 13.589606624323656 13.989271216294712 16.212999779212257
Ti 13.107494670279939 16.284331206183882 11.521686655216802
Ti 12.599521228274218 8.70252653790574 9.521168665942174
Ti 11.199172855988671 13.490974729041207 8.537616179289213
Ti 14.459907489704568 11.540482736813885 12.140602099564987
Ti 13.057031591642334 9.623129809258751 13.861540678748415
Ti 13.952579823851519 11.33193977843225 16.00956775181686
Ti 13.360712615282036 15.142249278249377 13.820164683270336
Ti 14.499847008761712 8.824849003233627 11.898617748659492
Ti 13.416192657490097 14.969679450554326 9.356857806804978
Ti 12.616428282018012 12.568649968482454 14.184230616971949
Ti 12.17444702127 13.572231972337756 11.341833075247955
Ti 12.333236409533358 10.834911802856178 7.79354360034563
Ti 15.955221477245203 15.651146859556997 13.096892187083583
Ti 15.36172789754511 13.22095675965274 14.432466941476509
Ti 16.74072323399888 10.26834189198575 11.498939609210945
Ti 14.90788500246081 10.091246604108877 9.673265201765531
Ti 15.87619492385778 10.521263070002949 14.034618651884864
Ti 16.09611853306155 12.382961332992735 10.052951694698972
Ti 14.783254274235897 14.148334472290419 11.650639384435943
Ti 13.401471715616273 12.247735449530607 9.530359228482178
Ti 16.93695705209381 12.60881023616104 12.531305127419293
