42
Energy = -279.51178097 eV
Ti 14.789275756955714 11.046713520406561 15.519589951520805
Ti 12.568338225878277 12.421882157194766 15.163036916121925
Ti 15.171726649860808 13.31729348579066 14.07655568320051
Ti 9.879014644124624 15.680031011468882 12.540995206954818
Ti 10.015200080358477 13.56061111209839 14.83798546378491
Ti 12.632483210975682 14.60963146361349 13.847312354783204
Ti 14.996476243265873 15.013101195749597 11.920921496464771
Ti 12.512324799289564 16.061133916478 11.86084333687947
Ti 15.089139676998718 8.980789129845329 13.931748251955634
Ti 12.652867675656713 9.583960218103197 14.79031920692585
Ti 13.498841581423896 15.370712212759834 9.58029017725277
Ti 16.53673219923034 11.041768133325872 13.608145547832494
Ti 10.218589327587152 10.847923262928182 15.678600750117628
Ti 7.789360477900118 13.43938426610763 12.554223460816335
Ti 13.888641063664865 11.1933949750887 12.994397887079323
Ti 8.117520598765104 11.797411268205858 14.316215262945656
Ti 16.067669295048017 12.472269228875383 11.556545535337367
Ti 10.824789772303324 11.205281724524042 13.45667288272402
Ti 10.647297593423946 13.505473715938429 12.212331939551493
Ti 13.195866344993997 13.389658805663851 11.323182054148633
Ti 15.380737791717772 13.671254537434297 9.472203362644953
Ti 10.698805002223668 8.401075656937538 13.210853329003127
Ti 10.929039247391726 15.396942288854268 10.02397753351693
Ti 11.53268797775633 10.342270270660828 10.960619033118656
Ti 13.376780675429563 13.103469934110434 8.033476812298748
Ti 8.524086917614703 9.480714606291459 13.879839896116511
Ti 13.872844312250994 11.262304722926814 10.144830835112415
Ti 15.114595629142803 10.99097988357017 8.34790936422054
Ti 13.209970266154093 8.548549841903418 12.154959690320311
Ti 6.756098136723148 10.64923794756309 12.168756680527224
Ti 9.037932181915695 11.342038196700983 11.279922719390926
Ti 15.613019389480883 9.65577525724462 11.426384496358944
Ti 8.759334698195111 14.073493116682492 10.323778543994713
Ti 8.714278388158982 8.575928670127894 11.390154157545515
Ti 11.174611563775795 12.746158204499437 9.518435188210256
Ti 13.062136308367684 8.836507189558727 9.383103671443944
Ti 12.240955932462292 10.835376448254694 7.966672052674926
Ti 7.487833945015382 9.931687258238123 9.603556167135105
Ti 11.099493740376369 7.683692910179322 10.733310664641925
Ti 6.857332431333508 12.336372096806876 10.137698215073307
Ti 8.98915327424522 11.827471987288982 8.566591243965227
Ti 10.053407348574883 9.318972067954139 8.982172476500038
