43
Energy = -284.64555012 eV
Ti 12.416618906528225 13.260723953200289 6.658479729803629
Ti 12.031704589375437 10.84352395882764 6.261775397450156
Ti 10.034843676199634 12.43566900766999 7.235929416263821
Ti 11.388961421165453 14.389427487306143 8.882594695257035
Ti 9.160184514973356 14.318321717604695 10.218431062687488
Ti 14.030455677639718 14.159213540819113 8.217268250940672
Ti 10.161915307451796 9.854730098918768 7.725761449094816
Ti 11.263780358803658 15.64387274198496 11.348952440864075
Ti 9.040612200276213 14.933632056894993 12.609912572852071
Ti 12.036027359047708 11.548030672943934 8.776686638335324
Ti 13.908661503819076 15.360895667085398 10.318816300473665
Ti 12.893654300171107 9.18210058495569 8.207619247733016
Ti 9.783225520436686 11.682446733621422 9.871907212350061
Ti 15.636589790422786 12.92422439016203 9.730051935007209
Ti 10.610930648770584 8.828746151955936 9.927083309496371
Ti 7.927153519458539 10.188577291125402 9.74313522213229
Ti 8.171266232617432 12.387645968913079 11.970027203157557
Ti 10.83998580933591 13.080878674593032 11.930916631564195
Ti 13.22608153094242 12.924476256256648 10.568451131601558
Ti 11.178460326094381 14.61327119191381 14.168733997451453
Ti 14.413011739830548 11.543472128635905 7.599258436848272
Ti 14.682580307318421 10.293010262279171 10.043383960225803
Ti 13.083375810052589 8.209677480750267 10.612530425517278
Ti 8.845027942982167 13.288331904042995 14.555734221237044
Ti 12.194428109242617 10.595023341250117 11.539542593081777
Ti 9.372303537273163 9.912255168226025 12.064982422156403
Ti 7.844219212489089 10.727236110402078 14.010304097774181
Ti 13.4998751542538 14.48550192073382 12.74591401549063
Ti 10.618663788869387 11.187066284812095 14.132378852906395
Ti 11.504493646545455 8.378969570668849 12.680285597283577
Ti 13.372471583577978 14.40382350907606 15.565677174361136
Ti 15.147188500408367 11.793874862530265 12.209481303688587
Ti 13.13939488504939 12.188097893438695 13.92236949210264
Ti 14.193618533212183 9.308412206653141 12.679826947986573
Ti 10.948824007618153 12.915231987973797 16.314512779022742
Ti 8.863821286482725 11.177382999286198 16.194951129443762
Ti 9.604662192388913 8.91889126185166 14.848031986627557
Ti 12.691146709332713 9.269096832215029 14.89325131161582
Ti 15.513504550069912 13.49148101569917 14.166269012500107
Ti 15.037472675528619 12.857505918302136 16.452440096227033
Ti 15.197662354128573 10.766762057665892 14.8355869787545
Ti 10.958827576030057 10.133877756480524 16.693657024176915
Ti 13.163875144524058 11.235442574236659 16.515812165327954
