48
Energy = -320.24804406 eV
Ti 9.187300666499498 8.132516041834126 14.034441714699634
Ti 11.60302280473258 9.2160076259722 14.94487453206153
Ti 8.789356883242272 13.10919881568069 15.822080979172984
Ti 9.226156300959614 10.579709931407276 14.973319407338213
Ti 14.876352145559371 9.804396194835435 14.43316692919469
Ti 7.051604175796316 12.202602541058999 14.154487031732936
Ti 11.102410722338696 12.11840566026936 16.315022356275087
Ti 10.898824202434895 7.182006941711831 12.67104097662099
Ti 8.907354553879614 8.163047011842195 11.303732901998147
Ti 7.404000779688646 9.67024609866726 12.937239083078712
Ti 10.715477902412747 14.678958351721535 15.270460793322108
Ti 13.115660825538674 8.296606907658191 12.85305883233718
Ti 10.49126099898992 9.934213533353383 12.46375512290377
Ti 8.458524189504546 14.61084692906045 13.69239189365681
Ti 13.619902035843443 11.180106244379044 16.30878235676711
Ti 10.432599675910375 12.731273735345798 13.689026843358384
Ti 6.548453192586535 13.880235177003666 12.211808271403278
Ti 12.690947301868558 11.306659376455654 13.957192548853504
Ti 14.172574264629368 8.230289974524945 10.200754251541314
Ti 15.079341175937127 12.48990634710245 14.517877253612937
Ti 11.611704841889853 8.448746616734999 10.446388393099356
Ti 15.577640615142126 8.865158931822371 12.142617994532337
Ti 7.541614403509741 10.248410193238925 10.1516208877527
Ti 5.92855534302797 11.456218012253135 11.785973784266455
Ti 8.571151705963366 11.9971843757699 11.849443929427721
Ti 15.958909610257349 11.401679738346033 12.505472613156472
Ti 13.393128386401377 10.51117343467206 11.38966531882701
Ti 6.918548889876465 12.931388361194013 9.907029628331257
Ti 10.231454132536424 10.155705939812762 9.517463752367583
Ti 15.878678887005798 10.392097334029895 10.128197788441131
Ti 13.032596645484096 13.613534430037085 15.398884357260739
Ti 13.113322244266163 10.185351652473955 8.651486291648263
Ti 11.379426615559574 12.439329758186389 10.895972910184534
Ti 11.017976792517247 14.939558940202698 12.315365636532702
Ti 9.236875905073294 12.402289477341686 9.177656516785992
Ti 8.838231876006969 14.566585803525527 10.96551110461733
Ti 13.249616662471777 13.448587877846775 12.532403429677606
Ti 15.6647191808441 10.920674735957759 7.741002343271415
Ti 14.236484287482273 12.632694736857488 9.413301203651285
Ti 15.578962309753337 13.860063967132412 11.47952850623217
Ti 11.73355757487843 12.562718101841586 8.168813470538618
Ti 11.066165678690965 14.675221859968286 9.406051054968334
Ti 13.394503223876868 15.083153415390546 10.377362162610812
Ti 16.99035047765651 12.70069747444203 9.361424788216853
Ti 13.689699456963726 12.1186513315901 6.725085763524981
Ti 13.454602634838082 14.631217257264487 7.655008128072944
Ti 15.646282714637676 14.958383624235447 9.140831502983932
Ti 15.8230357376023 13.440541394289628 7.139974436769825
