5
Energy = -26.57140052 eV
Ti 4.784441098167157 5.437307483374992 6.10163653246399
Ti 5.111200155655826 7.833223785858413 5.930324014859434
Ti 6.733612808746901 6.314623067949218 4.7684448166992635
Ti 6.7883668673602475 4.1367034200424255 6.150474130204556
Ti 6.7780722909734505 6.458733240477079 7.247343664791393
