53
Energy = -356.74463056 eV
Ti 16.22528493070741 11.237496093726344 11.09694755754158
Ti 14.98237679677367 10.617699688284826 8.728509058454028
Ti 16.2730764872274 9.242049664357951 12.897091630643317
Ti 15.255078892811408 8.564233738151447 10.521179644663258
Ti 15.928366169404391 14.000713073270349 11.766614127486147
Ti 12.52832946031281 10.360489814949805 7.381164205060478
Ti 14.228413929983418 7.635611108594645 12.970031757203158
Ti 15.814430144759234 11.803527981659231 13.728863951554704
Ti 14.674199440342266 9.693158710199326 15.029579532132596
Ti 15.28709415393143 14.416015613626477 14.400153224660597
Ti 12.099610644029191 9.8242217506111 9.926510026179571
Ti 15.718814560861382 13.067440004462101 9.265672680354648
Ti 12.88602026397121 7.2503166370990675 10.510182798174029
Ti 14.222132287134125 12.44518858482096 15.904656764819485
Ti 13.428194615404147 12.191274166768382 10.390466103767658
Ti 12.301709399804329 8.621036960564872 14.682585127840332
Ti 13.889657516263412 10.090830842217317 12.245283183652688
Ti 13.677819260803185 8.30516731654941 8.368230281318475
Ti 13.579693006064796 12.848253957868211 7.875202477575215
Ti 13.682324939962214 13.292946555615211 12.806526605277183
Ti 10.989296811007803 8.119800700164223 8.435279016486117
Ti 11.514532360058205 8.52057299973774 12.307451400508311
Ti 12.600138010035293 11.361791970167914 14.167343186130541
Ti 12.386864170320386 10.354053191136147 16.468010365610624
Ti 13.983198809715548 14.911136958659874 9.979377330140919
Ti 13.911750964046865 15.867198119496251 12.562650037677418
Ti 11.139042710537092 11.113537321078768 12.008439423942727
Ti 11.129677521683064 12.693967396739271 16.076154685067248
Ti 11.453056614128286 16.195027269660947 13.371558482885542
Ti 12.623000402529053 14.565085478736874 14.957320896129561
Ti 10.18998057303926 10.430169712443822 14.629341689833277
Ti 9.579159892504567 7.396191392260625 10.758216964301058
Ti 11.612100762585237 14.202207325599183 11.439855884418481
Ti 8.98237490146765 8.607969709543669 12.939806754953644
Ti 10.425610098772458 13.242223287149564 13.602389510159918
Ti 10.887094560906668 12.164548851664865 8.859736344913049
Ti 11.777521755933394 14.593703425743104 8.721268851273067
Ti 11.608110000809875 16.537480428172955 10.686676516061413
Ti 9.33639805533438 12.839929220846516 11.071860488465287
Ti 8.330020169806424 8.116299159337217 8.68076696210237
Ti 9.17489602005077 10.084040228788917 10.359247268375345
Ti 9.245155400174577 15.585890196378347 12.156970613370746
Ti 8.50227866238542 12.466965671379514 15.299269364861454
Ti 9.488879944586499 14.996046716451405 14.963260883079961
Ti 8.021723821200704 11.002056081090606 12.996681838967746
Ti 9.527975063260428 10.220926918185059 7.570585837560602
Ti 9.45501826848975 15.113354554337493 9.495009747736816
Ti 7.131414126272148 8.724284829620567 11.012130697260192
Ti 8.218526699129617 12.572168515099499 8.68857319264217
Ti 7.580650400976336 13.782395216935681 13.250313421151338
Ti 6.851035534048869 11.697903704093124 10.940148261184005
Ti 7.338214338846968 14.357332063916436 10.628183801646726
Ti 7.035637968359507 10.2394453024206 8.743740692199928
