51
Energy = -341.01935088 eV
Ti 9.001902331226919 10.949374051704606 15.275636660885425
Ti 8.558078138489272 13.511307597177051 14.553315879019474
Ti 11.731896802465444 10.585111838457168 15.84038739119086
Ti 8.228848182196108 15.421309299518141 12.626908404014928
Ti 8.074842370423095 9.766595837505065 13.333681591217296
Ti 10.524449802108565 13.267747472171514 16.14363542566267
Ti 7.496795733842479 13.966144063134381 10.535133760604637
Ti 14.540192931140599 10.272372583753025 15.55389532467547
Ti 8.152305658470622 12.239012221647876 12.41486477090491
Ti 12.297801885287088 15.199781973213447 16.088776770013286
Ti 10.168414397528945 15.608066536911533 14.634111263575312
Ti 10.642397566709683 8.86860785426529 13.783146494953707
Ti 12.803401527436089 8.297132569011493 15.301454309536558
Ti 10.655374379028103 11.851652880802911 13.665031695224704
Ti 13.119522569674757 12.688626891627708 16.006371721310227
Ti 10.494996805485082 16.701377607812912 12.370717272322763
Ti 10.079243140256052 13.858571692698803 11.50369094803106
Ti 15.032441816294352 8.143253048329017 14.187139851059237
Ti 7.592131564600702 10.18244314000747 10.828942736160144
Ti 12.92148352143551 10.238396753580801 13.437461337209093
Ti 9.239528414079508 16.065414447179304 10.251690747085002
Ti 12.802220512134376 16.464044359084376 13.822155342901011
Ti 12.197788497595363 13.987497103024275 13.644581364290762
Ti 8.694771211697937 14.303778420741263 8.457357640979781
Ti 8.862361403315125 8.050494118691914 11.81324879424589
Ti 14.510063286256289 14.64422150533061 14.940258594149022
Ti 10.352429329909155 10.29488914429108 11.457700522067357
Ti 12.677091138199694 12.645255242899346 11.335989201431262
Ti 12.453424127964187 15.469128233321884 11.133941769183599
Ti 15.672516478435917 10.118960724459683 12.497821220628156
Ti 14.48595093670946 12.378408930687954 13.539920517221374
Ti 9.185436093546727 12.035859480423346 9.59635498535848
Ti 13.418948650895105 9.7286471254985 10.677496128388617
Ti 11.384663070446853 14.332253229960957 8.980511315113183
Ti 13.091654746283371 7.474508570325151 12.684717431876914
Ti 9.306738663505067 8.884025549911279 9.389855742861243
Ti 11.23353109579859 7.722714884635632 10.90637512458241
Ti 14.486257155837869 14.586152589038884 12.271722076812349
Ti 11.807592096956409 11.464544313144712 9.060586207002368
Ti 10.56882803858922 12.740838146556952 7.019145244627379
Ti 15.900587196629571 9.478234521398575 9.823317187353611
Ti 15.433040085932811 12.085775886377775 10.832968194791706
Ti 11.716321891363927 8.642868046074703 8.471390562384448
Ti 14.069745422607797 13.947921403420047 9.397042158966606
Ti 15.505050023600678 7.747281477168346 11.718626724809678
Ti 9.857628131075787 10.45296697017734 7.350794145423493
Ti 13.017729635114353 13.196433457917305 7.1546412657553855
Ti 12.423119735895373 10.69224989575819 6.681160943482459
Ti 13.894675054581771 7.35018292227129 9.788711703018068
Ti 14.634299562317903 11.507419041841528 8.430402044920513
Ti 14.158725023740068 9.053116106495207 7.9362771385868545
