53
Energy = -355.39373821 eV
Ti 8.75396399067518 15.298861389169396 10.52945773124115
Ti 10.505923592659915 11.607052118049435 14.104523434758905
Ti 14.577964954586989 7.929006336075885 8.377258106945542
Ti 11.892711694345305 14.608036042077194 12.82029205423931
Ti 10.628894745498837 12.585858829753633 16.614292880061658
Ti 6.965699426605659 12.117808854819733 13.173034805714865
Ti 11.12999885565262 9.477072823584592 12.315472312429351
Ti 12.467247350458418 7.083654136603418 12.850483560487264
Ti 14.863275034995699 8.311309775183675 12.883365520865699
Ti 7.095688849672786 14.502601617418827 8.658689528409518
Ti 11.19912711301103 7.123626683909308 10.719342373341911
Ti 14.7878989897583 12.012394660585201 15.32949871108571
Ti 12.287512557565579 10.52778539574968 15.900451568567432
Ti 8.762834461390277 8.669392402186523 10.880390859055206
Ti 15.815747390645587 8.990404725506576 10.420370303699071
Ti 10.111743125906889 14.51069803963606 14.983797447792316
Ti 9.402289395172106 13.479014559744986 12.52738224819947
Ti 9.314005851913013 11.230489208864574 11.213127442890045
Ti 14.704138495780931 13.064445145972318 8.425490174057632
Ti 12.538938556673584 14.457756123685034 7.898126984283809
Ti 10.841955574589395 9.684062028218229 9.537545094712101
Ti 8.29087112080976 12.689836463151025 15.317063138998025
Ti 11.988492743265935 12.172196970999842 11.645526458464573
Ti 12.354441849644857 6.986735144409468 8.645443542141264
Ti 15.004582750719676 9.571860656400258 15.274525655186238
Ti 6.91857830315871 13.452843113277787 11.076417688167874
Ti 12.568414897875305 13.183936296424918 14.788551086252312
Ti 10.4890121194041 8.658893969441712 14.708422343899889
Ti 10.237537078435633 10.82801314768179 7.103847245923782
Ti 6.584806344007477 12.070483670208292 8.812661779571672
Ti 10.718253647106895 13.24624396443537 6.655350067406432
Ti 8.146381149333502 12.931150210670673 6.811752584110161
Ti 9.404278146323644 10.365872718742246 16.17325185257096
Ti 13.040787417841639 8.13372133678866 14.871991225528813
Ti 13.224992393012977 9.144231554342012 10.50370454573772
Ti 10.000366430765727 7.982352144792006 8.037311024322415
Ti 13.089561947699064 12.056344968870851 6.557118197892446
Ti 14.146582539129069 6.731205617465332 10.711050203756896
Ti 9.299105236533078 12.803930078382928 9.098410680905273
Ti 14.602434645200539 13.15680018691671 12.981997962705453
Ti 14.601360772507785 10.518375520134637 8.383828717426134
Ti 8.207732479846998 10.073880187926315 8.668748710121259
Ti 13.385943191082976 10.672812889650285 13.460210194874374
Ti 12.508770947498116 9.279841965439735 7.284313168297237
Ti 11.105470939530084 14.404908679713973 10.205072429293036
Ti 16.01489085328632 10.825019735737763 13.223510638029147
Ti 12.284840459565594 11.943325305802205 8.958915832026406
Ti 7.598549635545295 14.683886955078934 13.506240223373702
Ti 13.532259704484476 14.109067776169702 10.441392221056647
Ti 8.4381633551831 10.030348259608955 13.518518886853611
Ti 14.63720461649771 11.53825963770227 10.887817387807138
Ti 6.784283633057505 10.603578489832795 10.968043948840783
Ti 9.444265207146895 15.179488050066107 7.857373778678832
