51
Energy = -342.52946047 eV
Ti 14.414441756629108 14.997474272986258 7.89197735938247
Ti 13.727197849482497 12.812064225733577 6.483798356166131
Ti 11.914541515576472 14.43222193984561 6.713071505952387
Ti 12.004322863286024 15.954559794707174 8.72152344351055
Ti 15.340735970640651 12.441210705614484 8.475534193106196
Ti 13.809703655912713 15.701735861584984 10.558487771965764
Ti 15.537401551846521 13.96929675297692 10.361590959358454
Ti 12.78423892115941 13.341386871926806 8.995775281021785
Ti 14.681989645904906 14.484137288784714 13.150167673476673
Ti 13.595132422284106 10.57568954039639 7.806893550010348
Ti 10.038415044232801 14.098437828907002 8.452078560314115
Ti 11.239435204731183 11.850388962769044 7.313237606613701
Ti 11.100205745242297 15.067687529388557 11.07318071928714
Ti 12.334916127213585 15.622775829143016 13.496946489798473
Ti 13.248824435071826 13.191557059757377 11.507544520005224
Ti 14.774808143464552 10.81996226473138 10.637348691297342
Ti 15.772501831067979 12.037352199252751 13.043969069914256
Ti 15.530819447600445 13.32256157550237 15.391958135951942
Ti 13.73273000768433 15.093290596159932 15.635754549102698
Ti 11.248360661327874 9.06854333988744 8.088173580380452
Ti 9.779825860297356 15.513560549017125 13.539684056448932
Ti 9.013881146279399 10.590247547240633 8.761469033959068
Ti 13.569806329149529 8.532885980392686 9.338005992371786
Ti 12.989519403633917 12.754320109582704 14.60511199869524
Ti 12.257872628208725 10.695322334789592 10.12828090033087
Ti 8.492991941785963 13.940897888945889 11.824378093222238
Ti 10.383182979172448 12.501139008106666 10.285231876033897
Ti 13.35745295782291 10.880613253960618 12.90725515282104
Ti 15.40437180397055 9.407417409043044 13.087319517977651
Ti 14.916493975848976 10.810475739762133 15.42643603034315
Ti 13.425015512252596 12.786406343832944 17.007152925050658
Ti 7.622749421142419 12.20370908307874 10.056496184337826
Ti 11.099726484067988 14.523816401069181 15.638872825135303
Ti 10.946726916056509 13.200910384587015 13.000382725433042
Ti 8.893975619440775 11.314066729119311 12.196833373074572
Ti 13.146944759995499 8.472056013783773 11.8384729731321
Ti 10.15824790620079 9.280835706938037 10.988828223163754
Ti 9.004569429352236 7.9997383229819965 8.964060174486763
Ti 12.447078975917773 10.390884070921013 16.19517509759231
Ti 8.658698647946506 13.231346618060153 14.456308386923398
Ti 10.919091065105224 10.297019909052146 13.696040936304609
Ti 11.342183201317157 7.134940952637445 10.06788367224328
Ti 13.200238446223423 8.658386558297158 14.576682893134665
Ti 7.465245401882354 9.376950096978344 10.722140213790642
Ti 10.59011252504204 11.959854138725774 16.012994531952632
Ti 6.761062853521909 11.74790164976614 12.789676500514497
Ti 8.447800401455991 10.681951072740278 15.010627353341988
Ti 10.98231374430856 7.560801716473284 12.945663020339264
Ti 8.8989218550857 7.020063552702438 11.285553431438279
Ti 8.579157374670551 8.812363395841352 13.257530077093755
Ti 10.334253778329328 8.757019167361664 15.510675958539752
