54
Energy = -362.12692173 eV
Ti 17.683755533245165 12.78025378165975 13.221797564553203
Ti 16.50013668589333 15.229903551095495 13.297556851444282
Ti 14.480817678989963 17.538929374921945 13.18670175560739
Ti 17.49810113141503 13.92772459264829 11.04688472746934
Ti 15.742684515761335 13.188024044774533 14.999663147126052
Ti 14.393488421573728 13.124596057080499 17.33898900404356
Ti 14.001907966814427 15.317382340501116 15.854218133032566
Ti 16.779268613185167 11.29667951404488 11.15155144553272
Ti 16.328369689360255 10.725050634662585 13.824028540255897
Ti 15.605472827758712 15.555865718842014 10.689533306786492
Ti 15.21044237943076 13.220210998662846 12.136275553708987
Ti 14.646599527463238 10.840433556976002 16.01170143039192
Ti 13.744058202694086 14.975463206452847 13.413590268833799
Ti 12.180560801266768 17.18159252864641 14.25827980961383
Ti 11.895921846922773 13.999432920901134 17.295341457463717
Ti 15.16714077020468 9.075045924258905 11.998904839290164
Ti 13.274062116330535 16.31620572028431 11.261031707830323
Ti 15.565388977930942 13.14897332047631 9.376460893902333
Ti 12.981383624918085 12.863075316793871 15.112898811147124
Ti 13.903630370204562 8.644982270740524 14.14095889487721
Ti 11.173348681821986 14.940971201803336 14.956254548742455
Ti 12.369102224345069 11.442550278370208 17.3663328018308
Ti 14.03008964552344 11.031905449499911 10.224723217419307
Ti 13.782881159581665 11.208582575361687 13.104285087294556
Ti 13.616190731163698 15.107463712652907 8.497657531272628
Ti 13.451582574694527 6.984551569573964 12.160198689502835
Ti 11.613510969553603 18.222444909128594 12.079890584552126
Ti 13.849160513687506 8.229452079684435 9.862568423270337
Ti 9.270416995094202 16.488689080617707 13.984723634738582
Ti 13.016032797700367 13.694718626708553 10.34021016868045
Ti 10.884637421595263 15.67823910734674 12.25011904810069
Ti 8.773549493757626 14.441943577511488 15.881898802553653
Ti 10.315961967610713 12.307397489622504 15.686186560398927
Ti 12.411857521545496 9.396303319529434 11.811659195722353
Ti 11.719825673784536 13.1261316893928 12.50953329405032
Ti 11.503334305731766 7.2002008171378105 10.61910354813253
Ti 13.072802160629692 12.045981494468927 8.098683784203665
Ti 10.415924596811907 10.825729076408411 13.276557861129438
Ti 11.285422146005931 15.850517176412712 9.67269911223712
Ti 12.174634029537923 10.03033836161737 15.143453533561503
Ti 11.014907992579918 11.606949648590701 10.120687699135427
Ti 8.067596162593802 11.537298883459894 14.371600041462047
Ti 9.563909018549344 9.670571369987808 15.479759935933274
Ti 9.295795531250604 13.71598271004835 13.417266544431147
Ti 10.899838643746941 8.046768414284621 13.49008059052046
Ti 11.779632498196644 9.342615689571767 8.87426066206055
Ti 9.49358809988958 14.112760291677038 10.583289863016317
Ti 11.043914851385853 13.791682864956089 8.144468620024965
Ti 8.563246959683129 11.529938919463671 11.426225830450816
Ti 10.614463309101945 11.304533351262801 7.445823164504471
Ti 9.775305067764101 9.025293564570044 11.126507703596221
Ti 8.309629656277478 9.232646042905984 13.157535127799541
Ti 8.775610773613176 12.48661003318711 8.78808062847769
Ti 9.091519605273286 9.980635565781437 9.003109563196979
