50
Energy = -335.56953201 eV
Ti 6.294064312582784 13.12466369205208 12.643162805100209
Ti 9.982301663200833 15.589590782519208 12.659303188130986
Ti 7.377659762592831 15.175513621407468 11.3282906739608
Ti 8.262107543929904 14.046641950471036 14.05539710402745
Ti 10.910107932088321 14.098652300901065 14.889367952093847
Ti 9.301958651822583 12.25658190460305 15.833852583691668
Ti 7.3321555039721655 11.390438358653695 14.29526152675898
Ti 6.315900194051891 12.936154683352736 10.119532994223736
Ti 12.68728004434881 15.453297115524922 13.350598302456579
Ti 9.744270148653579 15.478459454736779 9.988836209411433
Ti 8.658901137970513 13.070035854873657 11.291103463749987
Ti 7.006911063383469 10.762815157219242 11.548785858577276
Ti 11.508701088010678 13.399771309216629 12.363996674430588
Ti 12.144948873914208 15.351920425238724 10.710181463522021
Ti 11.806030013933572 11.403917788783522 14.976828444453355
Ti 13.458810927872195 13.120046603462555 14.26609283449914
Ti 8.283807895123058 13.982304083820141 8.795852615158255
Ti 9.645580518929432 9.669312452820222 15.213698120918448
Ti 9.682686917453895 11.582642081032224 13.326385654072018
Ti 8.565681987197827 9.029197684889672 12.823081715942655
Ti 8.17069580341317 11.193682229481748 9.127482566656955
Ti 14.232545544127058 13.74027361261797 11.830579612022715
Ti 14.329996268783834 15.215308900778018 9.418667241737674
Ti 11.946737308465627 14.589874684261142 8.02799254592568
Ti 10.676482329635345 12.882543761567055 9.613751179700683
Ti 10.061486460171261 10.288603798987928 10.728035456042882
Ti 14.352701351596382 9.93007197788065 13.613701256722168
Ti 11.171083899887542 9.347143903525486 13.141837532535613
Ti 12.56122136924551 7.99938693188986 14.75979169029391
Ti 13.278742292003129 12.756309422618301 9.65132828285417
Ti 12.703026782266472 11.29491861526854 12.166778790937796
Ti 8.026021928102994 8.592534004090433 10.187046087556281
Ti 14.435229622325176 13.645695131704946 7.364397427251646
Ti 10.136972955179163 7.10136800983476 13.875700731562732
Ti 12.589084287291053 11.991190517263856 7.01812553283716
Ti 10.410761180976307 11.126736818449773 7.626180216250437
Ti 15.858869178826273 13.106131655051616 9.465043744461589
Ti 14.584641048321954 7.159254545287271 13.404190419972466
Ti 12.40878837413021 10.122600191138247 9.359228800317235
Ti 10.308850381141497 7.593973687380832 11.069679487805185
Ti 13.200110938971571 8.57254349535678 11.567841349939211
Ti 9.94295798074962 8.767031922923207 8.393023827234598
Ti 14.949373443586966 10.813680069477595 10.822515513585406
Ti 12.256107364509461 6.234998622172854 12.756981685498939
Ti 14.756780793699809 11.012242511416998 8.034616030697322
Ti 15.844445776280933 8.358330185059144 11.598530039295559
Ti 12.460984974783218 9.21842258873873 7.09872907646374
Ti 14.497851587553413 8.394266294776212 9.209416539185089
Ti 12.190470858835937 7.346949263612487 9.27296980150374
Ti 14.311661072961794 6.3065246806638156 10.94077668682718
