53
Energy = -355.32598981 eV
Ti 16.287376028430895 13.314402497418165 15.840862333156728
Ti 15.05790687770326 11.431650828166484 16.844607716282102
Ti 13.909335070300997 13.915105547363309 16.91689595699123
Ti 12.598672511964502 11.430526786747055 16.941426266657423
Ti 11.308218966260887 13.117413965703538 15.75723087795915
Ti 10.930861008949126 9.851763091833073 15.680375241492857
Ti 16.574670653437206 13.460117964092188 13.351097611702539
Ti 15.92198645434036 10.857178503060732 14.311685465768901
Ti 14.842340414927428 15.321977362605434 14.677098029671576
Ti 12.204268547194566 15.455738212031381 15.337476012297559
Ti 14.011054094925516 12.721671951704431 14.675525140899783
Ti 13.701139307605068 9.568430044404266 15.384373114076894
Ti 8.998131367402642 11.866302082190877 14.989365254249611
Ti 12.13682931668929 8.388263092858853 13.541011382179331
Ti 15.192573411110903 8.111195232912396 13.180544166924724
Ti 16.784363111293786 10.257896856890095 11.939638792153655
Ti 13.046146387935591 7.7912610353938225 11.15810079804286
Ti 9.752614052283882 14.526741208292401 14.364600363678072
Ti 9.413027547196863 9.677738489140955 13.405691278425724
Ti 12.02829054309333 11.166412171231693 13.820833137084103
Ti 10.114602480292803 15.814155634955766 12.010041194292166
Ti 14.875585838130956 12.276606628030072 12.109644920984026
Ti 12.779600236917393 16.572155738174658 13.157975019596472
Ti 14.710116410630377 14.928477456869844 11.944488344698062
Ti 14.039099330714208 9.99902492648496 12.28382858482449
Ti 12.214140496819045 14.055030265975775 12.943460111597041
Ti 15.41320766260219 8.49124646227619 10.504858214521303
Ti 8.229078733414074 15.252012640828033 9.969190190351378
Ti 9.922956543368779 7.832575797139841 11.300449855475845
Ti 12.982529793326654 12.55625391223283 10.618259696851824
Ti 9.908422543333174 12.344222098414596 12.67882093924766
Ti 16.024989845900034 13.2493614120358 10.02355118262877
Ti 10.365267861619152 15.993452308561649 9.09078319863074
Ti 15.711047561845781 10.793033684072478 9.617515982562958
Ti 11.486127791296724 9.994579349634252 11.37716212447393
Ti 14.198003117057413 14.705275596719614 9.226101463165564
Ti 7.955113781078673 14.040176938883992 12.259766672048203
Ti 11.12823370026115 11.572217084283762 8.987072437781608
Ti 7.296615603093306 11.29561854603831 12.50839966473526
Ti 12.399341010102521 15.669425636097138 10.697509398645646
Ti 7.448470367807511 8.704386602607746 11.830927608670468
Ti 10.325416703254081 13.690385986106408 10.419103322892386
Ti 13.326531082384303 9.857408223489704 9.278319391594867
Ti 13.984873590826338 12.273929983936556 8.143147331191043
Ti 9.076901401500518 10.478863063533236 10.684120561490234
Ti 11.94180836068132 14.027877138666492 8.07952545364309
Ti 7.637293654980485 12.711370002505095 9.92211028112099
Ti 10.564481005094127 8.926680169942916 8.815447375616033
Ti 11.307769965604853 11.380111109847647 6.7891217760834275
Ti 6.570381173688331 10.316094050801388 9.973686689795967
Ti 8.138007295537017 8.361554216982656 9.311222949214406
Ti 9.328761285583578 13.640917544339018 7.966092220411355
Ti 8.578807012620898 10.7469496471319 8.074327056224556
