55
Energy = -370.41355849 eV
Ti 8.81317512149731 11.675722481690514 10.863109212764959
Ti 18.025948117964557 14.031513526114628 12.817894540701543
Ti 15.12688952407052 10.747001739254516 14.796044182505431
Ti 11.321274174089043 8.547228346954777 12.681014538810812
Ti 15.917895958711261 13.817826601438536 14.535044231631176
Ti 11.630394431391979 11.27882594027807 17.24894536153773
Ti 13.642802612271415 13.009446093842417 10.483410344424444
Ti 12.751622809639969 15.543551481300778 16.98463795260124
Ti 15.448750550151358 9.781162423321772 12.164049726196271
Ti 10.972271648815399 12.525920186208317 12.155503636210234
Ti 10.9916840900024 12.34424509465842 9.402425972393848
Ti 12.122171847729154 10.981383763997004 14.45440704109594
Ti 8.728072932843709 14.321547551374152 15.434246072602466
Ti 8.537822429473978 12.982586052583699 13.175807191306538
Ti 9.50153440231506 11.733448808011795 15.552471088226833
Ti 13.086827967910796 17.10513035020396 10.674632910043853
Ti 10.444897985207275 16.64999145796263 10.696350242319133
Ti 17.013292460743116 15.069363268168322 10.5010090949381
Ti 11.50840943266134 17.41738801783997 13.061231987252038
Ti 13.60528810625575 8.716423274536005 13.676321384691429
Ti 14.969343075922238 14.895080394872425 12.055171765422498
Ti 13.46026093049098 9.493595524675289 16.349174796577326
Ti 11.011705614588143 9.131501588276157 15.347668687124331
Ti 13.090994651107922 15.358889324809757 14.19788832646683
Ti 17.432091506194087 11.642986697665423 13.944475889229844
Ti 16.22680468574258 12.335440628502377 11.670118977194596
Ti 10.606056025925549 16.223703108036286 15.621756860036887
Ti 13.540566189725247 12.983766603355173 15.868855742002795
Ti 13.84524809816941 12.566065257438996 13.138500007128096
Ti 14.411714171926 11.423257075916744 17.71912350880499
Ti 10.629484383065776 13.83982511381228 17.24955442223099
Ti 11.09099622666497 13.680781107921822 14.653214301288813
Ti 18.673874348725395 13.384401758441268 15.264664601067665
Ti 16.7665987931478 16.352050152730857 13.256680498298408
Ti 15.700573849130032 17.149794475685315 10.860819083647048
Ti 15.265040670421865 14.254105492545607 17.388382385455284
Ti 15.176205600228505 16.31074788615215 15.527527853918135
Ti 14.217216045251543 17.585047812742395 13.071983147325074
Ti 11.805780109087083 14.904437784860388 9.120148325613716
Ti 12.847520396243565 10.613235573951695 11.663831144854983
Ti 12.884151811375947 17.683336785578142 15.381405880383998
Ti 12.601778265803402 10.356032795259129 8.886000510115943
Ti 9.531552172907029 10.369837448929148 13.086961213002901
Ti 16.74039398851601 12.162676649578051 16.51508243450443
Ti 14.99768570757054 10.65024332574671 9.676445978700649
Ti 14.55300038374831 15.348122082199763 9.176491358132028
Ti 12.934581901288515 13.317700930759615 18.438205705432047
Ti 13.631925578299867 12.670304347700194 8.09810188319118
Ti 12.018203580210015 14.935517345342845 11.713339147030002
Ti 17.549217963134005 15.358656157057014 15.900882888710944
Ti 16.020092224608636 13.11437955953616 9.142498680871805
Ti 9.652846063669521 15.458288593489561 13.093763153278726
Ti 10.532348659115788 9.846606428206698 10.505413112835107
Ti 13.432336454317085 8.511773767539689 10.812103849912535
Ti 9.390407382241778 14.23772807325508 10.674831280266018
