53
Energy = -354.11272555 eV
Ti 13.341215641504032 7.086678972403141 12.804292555429411
Ti 11.191765546146284 7.787985485336703 11.421646073840293
Ti 11.150043599795188 7.0861009477195775 13.987845389066022
Ti 13.843919103363087 9.165310682354189 11.140219485590364
Ti 15.058359175204659 9.084606263168538 13.348216076332896
Ti 13.276266005006113 8.126023864329653 15.222095320989391
Ti 15.514375753275507 10.663096643411608 15.404016602514783
Ti 12.053118965526439 9.57274623230617 13.132626966458107
Ti 16.900045308022367 11.429998176249143 13.357714101969588
Ti 14.636776333674403 9.958084451578761 8.745413071965608
Ti 16.309220055237265 10.182714254249268 11.000299366066383
Ti 10.110402457924312 10.165642398930013 11.098607508511035
Ti 9.450641297547941 8.88155981203046 13.229403525649468
Ti 17.196568481616413 12.367316758178086 15.891364588314515
Ti 13.809253731541492 11.849248110002254 7.891490105477909
Ti 14.613827277067234 12.06759667356039 10.479519210143392
Ti 16.4600418308106 13.668066761545223 11.679332136965499
Ti 10.850595517666333 9.144189658281155 15.569692452466905
Ti 17.938727509606775 13.867189775695381 13.959783461250929
Ti 14.056759597763238 11.530547182776136 13.040514062414584
Ti 12.9882575847847 10.770479872867023 15.513139909978626
Ti 12.296180719267424 10.880479703824289 9.946773167841673
Ti 14.482938312816477 12.874835490919542 16.75208199982351
Ti 15.295311848782596 13.559708632609897 14.216485698933004
Ti 9.942516438530545 12.495715101724372 9.686880701848018
Ti 8.787695666589046 11.812435996741158 12.323977359774757
Ti 11.657513900051574 12.070015752062641 16.991985125993367
Ti 11.352476954019723 12.711329501794209 11.893551403835808
Ti 16.70757195268803 14.824941734689586 16.11113858608144
Ti 12.551553510885206 13.576199582231112 9.312732605357441
Ti 13.698031006478164 14.390828694652459 11.887154804048834
Ti 10.482132601188132 11.477773842030423 14.417380293200887
Ti 12.270527709433987 14.596970015097195 17.32555264987154
Ti 14.248800284162515 15.52441876766922 15.983854743513241
Ti 16.45112787837081 15.985224122340554 13.649274224925277
Ti 12.421235279669606 13.554355298653316 14.779332254769185
Ti 15.049232766253006 14.450326620214469 9.486826576604752
Ti 8.982284266200287 14.393931465983814 11.504207124424562
Ti 13.729512696452009 16.69783352871012 13.711815498191285
Ti 10.037299824993653 13.907247445427975 16.269346181498577
Ti 10.673097384677591 15.023633625935288 10.036271443350158
Ti 9.74733023089328 13.935283678883009 13.781140836711941
Ti 15.455916653059457 16.445900945181894 11.201137208217931
Ti 11.19777626912266 15.969151588618196 12.418790546717409
Ti 15.486900033742087 17.933511936318023 15.361012947299884
Ti 11.364486211471593 16.012381913228115 15.167558675796853
Ti 13.125125895480801 16.1465389049093 9.92052855161613
Ti 9.020981805958035 16.383984368132722 13.970271375899319
Ti 13.2082794425405 18.184349391554786 11.625187896427084
Ti 12.943717889657812 17.96383901668967 16.01526877199227
Ti 15.673219862603348 18.45216005127256 12.835482811221484
Ti 11.454482872842226 18.250602875743652 13.749171163378266
Ti 13.737483433384513 19.41265444379254 13.973154757115964
