54
Energy = -363.91952063 eV
Ti 17.10350566897633 15.035415361786226 10.99841232417506
Ti 16.748699925997354 12.838169495138029 12.342743247332601
Ti 16.465091173943495 15.237066364737363 13.582950056808217
Ti 15.970629972553878 12.977181584680022 14.958535961093316
Ti 15.479010402755994 10.626185025279389 13.81789997345948
Ti 16.00613068075638 17.168080539880293 11.738963404973726
Ti 15.68213440253555 13.178717865779918 9.788427739659191
Ti 15.05642207000802 10.675474673563436 11.116959442738025
Ti 14.611076053397893 8.327495055406235 12.321560230430975
Ti 15.183203216959944 16.018163952529378 9.439384881619924
Ti 14.46390378826213 15.008151251157217 11.666062590347261
Ti 14.016306237443665 8.392890150773894 9.189600033183837
Ti 14.145301317708451 12.794295373876105 13.109317609483451
Ti 13.655647918643217 8.917256768073727 15.03314152352031
Ti 14.270378149897883 16.963157260397708 13.660790197723522
Ti 13.943428709504355 14.736836898253683 14.961964823762923
Ti 13.467227405092077 11.690672339955523 15.437265569659248
Ti 12.897032605622737 6.739709260065042 11.08969185826005
Ti 13.688490493301298 14.024737320333884 8.432080338320745
Ti 13.613024666073715 11.24333071883272 8.821290413786453
Ti 12.942322851144699 10.405139965674147 13.041785664296565
Ti 13.439500686447712 17.4483765076701 11.24055129784792
Ti 12.99872291522882 12.710529417625606 10.747434683066428
Ti 12.338199743834148 7.352796707472754 13.431060512804681
Ti 12.570619107339558 9.460487970723683 10.653112252471955
Ti 12.275825390124512 13.840435162960455 16.884854448353558
Ti 12.124430634568961 15.534283921859352 12.804981415560352
Ti 12.210522590892387 15.665359663808877 9.81990420869106
Ti 10.528502616221715 13.943356817096426 11.22357224341147
Ti 10.696676490045089 11.252165275393605 10.114469219022304
Ti 11.845531300116662 9.765134703761872 8.014464704921112
Ti 9.851269636788814 7.497648201533528 14.221174288431396
Ti 11.021201859453422 9.847148744325391 14.716531925453078
Ti 10.775940939577364 11.761334099864214 16.535266049894048
Ti 11.594453957619898 13.283302324391093 14.36469133687005
Ti 11.22882959794093 7.382262350836139 9.242827761966325
Ti 10.271214553934955 8.83939477840118 11.870307553702462
Ti 11.4509623830085 15.870901157245008 15.27831895204186
Ti 9.595592485767463 15.314637370367047 9.14516977131023
Ti 10.32934180314126 6.247336778002177 11.8094650646405
Ti 8.47256069198807 9.819063110432909 13.775180663947031
Ti 11.268040078794911 13.11189952790095 8.625256389972492
Ti 10.130693852354453 16.561961981738495 11.432701033774299
Ti 9.788640636603276 14.124430903442672 16.228768317090996
Ti 10.29683323966883 11.485530390495098 12.710536197311626
Ti 9.522183546411362 9.387341217098486 8.858751108908109
Ti 8.736910533778445 12.381654164618347 14.822596649143616
Ti 8.011841478526344 7.621824623524051 12.425912243718825
Ti 8.650742787825486 7.488744538490037 10.09335049314168
Ti 9.327740050128156 14.820337636572306 13.60635003004006
Ti 8.136086467234632 10.142983777600183 11.076674562886279
Ti 8.054708538833967 14.959446719392899 11.1643150935679
Ti 8.571367731100347 12.820767205044122 9.658481224178109
Ti 7.928604195336682 12.712255255352337 12.307400648438499
