51
Energy = -342.67926582 eV
Ti 15.501673867521447 13.769543034931312 8.172241755214207
Ti 13.390457063203074 15.049168683951912 7.245773027425359
Ti 13.886016431047782 12.513322381231607 6.673827246568847
Ti 14.166317055983152 15.661988040431146 9.655125770678273
Ti 15.466024012465095 13.60267377233983 10.800540565124377
Ti 14.673926720595587 11.084891034376348 9.099351026551513
Ti 16.484947636997187 10.978641703002328 11.149559362792594
Ti 11.291012806941806 13.430548077187884 7.048345113817673
Ti 13.220646035018301 8.783579275842728 8.674297129454256
Ti 13.117205918834065 13.159660987924896 9.107913226376482
Ti 14.444870248798356 9.062083944893352 11.043301799446043
Ti 11.544895571212038 15.50754504970665 9.166673467949623
Ti 11.977305970383519 10.939461120055501 7.613170584785924
Ti 16.319199188267397 12.529317614867573 13.2008733163071
Ti 14.31972133700067 14.307137563258449 13.57874065680481
Ti 14.133582640795325 11.799421911954244 11.763489664405192
Ti 15.467196283661842 9.983758003931895 13.52440813084258
Ti 12.331188087921367 16.386114403855505 11.851412808621768
Ti 12.180342032783773 10.59168444498628 10.3427050959271
Ti 10.388705204116507 12.635930327459635 9.670020766509781
Ti 11.871464433098216 7.914889839757404 10.810595685712888
Ti 10.544334825269265 8.810545208602653 8.53298701293272
Ti 9.341537880535078 11.140950569409819 7.564823289059967
Ti 9.007156403222194 14.101697869090678 8.635999871981584
Ti 12.629133312174138 14.106845853641627 11.476993199757114
Ti 7.541252746939579 11.868687897228298 8.960026478120762
Ti 7.71425337264772 9.1635420831934 9.02909227237684
Ti 15.017151472647644 12.109817341577708 15.394234627015424
Ti 12.874318654126386 12.051655963958781 14.08907184704226
Ti 9.306327092504892 10.287554586438134 10.76168119478266
Ti 10.692582772295538 12.327009504143483 12.179306057850498
Ti 9.987872367168743 14.891360280202422 11.379190114526413
Ti 9.33622108554916 7.562124538027001 10.443178046765173
Ti 12.589810591059983 9.71504409902315 12.950453868746038
Ti 13.990674864655825 9.591149172797486 15.51724317479056
Ti 13.527639039266713 7.7329698597004235 13.542332361938149
Ti 11.346162177966518 14.419017790794182 13.849448777253256
Ti 7.996315360210381 13.070130129109772 11.194014009670408
Ti 13.020894056673301 13.84651500016826 15.932370323554974
Ti 6.551983916955667 10.700075034296482 10.875521362569225
Ti 10.053721831240027 8.720063759318258 12.914467840837158
Ti 7.551015415340237 8.572353039186622 11.798807110576874
Ti 10.279905688260246 11.089540957153927 14.395934545668354
Ti 12.45604376260579 11.31294938815677 16.695468859015072
Ti 8.775967054345825 13.516391797189689 13.877030418842605
Ti 11.46818965987506 8.899163702429254 15.467245872813278
Ti 7.89924311544677 10.88949608649156 13.174762135483794
Ti 10.463133472154562 13.138507569787647 16.1825594161246
Ti 8.66844597100268 9.20574315117616 15.194254300425566
Ti 9.998692327266697 10.622891259244396 17.002693395241923
Ti 8.107400606963605 11.758924735532382 15.71052145593577
