54
Energy = -362.72330065 eV
Ti 17.19018947377599 15.137618848829748 10.876752758716442
Ti 16.284845715222758 14.29703655623005 8.607119127835636
Ti 11.907041669609363 16.010964761256133 9.43092277058572
Ti 14.064928223569293 16.137983946253687 14.85709306936442
Ti 9.538897545280586 14.945131037306542 9.876464100791368
Ti 14.7223541882103 15.882310094117825 10.18831384522235
Ti 13.17220865660105 16.79990116012994 12.407873897038462
Ti 15.34976782283699 15.245932511863705 12.777372553193636
Ti 17.78719976148151 12.761818484012622 10.059890659084608
Ti 17.35840715395999 13.207550978049817 12.668355999818008
Ti 13.726245258678746 14.017554661006345 8.514139642112523
Ti 11.329099080362603 16.40990630396985 14.496500770932535
Ti 15.242938391020445 13.207003381752177 10.853477506343898
Ti 8.054742039524958 14.539448845440049 11.847409179051496
Ti 10.260511823099877 12.949231345957147 11.811501016518188
Ti 8.60815408224528 12.397425589527334 9.89583388313799
Ti 15.688385612649759 11.71720676865758 8.66083973842514
Ti 10.52361060965613 16.027131827461126 12.029146091337298
Ti 11.105292208641858 13.27829234865507 8.803571103960634
Ti 12.8284873652686 14.230403104215684 13.583974804483066
Ti 12.53755879698193 14.370550920176635 11.041861764071598
Ti 8.731406683123787 16.022224715135543 13.87608422252418
Ti 14.293655716773628 11.830541622747068 13.029218228899994
Ti 16.74069889499083 10.823973456322339 11.426307440603184
Ti 9.142800824021892 15.05103018709296 16.271473282658885
Ti 13.050929396684381 11.468375361089322 8.168208581214806
Ti 12.643024487910296 11.76858358393066 10.735135594681068
Ti 16.684408132003078 11.11684592312678 13.984856452858189
Ti 15.441163668724178 13.503807657312413 14.822834312870325
Ti 10.605621064943362 10.622158029831414 9.170644080619592
Ti 14.603741721043416 10.055772489371112 10.444857982774211
Ti 14.737800071257972 9.21234955867001 13.199229587171418
Ti 12.950430848580723 12.570625284343812 15.791234260919309
Ti 12.050469783555334 15.035867091614376 16.305145467596507
Ti 10.26105074558696 13.653438354223146 14.486881574140506
Ti 12.18596658778537 9.20974271103834 11.912214844480111
Ti 7.548669682044175 13.709956856193312 14.393438245710453
Ti 8.053182814057942 9.581987694964578 10.412093287450299
Ti 12.750773927760445 8.807039742815132 9.152732146276522
Ti 7.60075020041972 11.980225089604437 12.228909180908124
Ti 11.64801054788816 11.390595903726059 13.742262987673367
Ti 14.81068935868668 10.875440954334051 15.49332318612255
Ti 10.78539321626354 13.151527676854073 17.21578890500789
Ti 9.722409801454946 10.259119589243806 11.834262755362465
Ti 10.259327220230473 8.191683589012072 9.782474966099313
Ti 8.66631584049647 11.029954929698253 14.229618958930558
Ti 14.235051537875007 7.605615451712054 11.15641556139318
Ti 12.602296410730425 7.112005527082631 13.331149372263916
Ti 8.54732035661387 12.424539619387684 16.369865040700038
Ti 10.701923856148447 10.809526598525865 16.148669041820625
Ti 11.99884227162879 6.691856775097991 10.754270216384347
Ti 9.969484903873944 7.466283345335075 12.21225127231035
Ti 12.806160402795669 9.323174007949964 15.056682480702948
Ti 10.527506785941684 8.807019909589881 14.261662578889801
