54
Energy = -363.47491584 eV
Ti 16.28970455315418 12.762198664296058 10.250888833567382
Ti 15.110534242267638 15.235489383145651 9.990227909580888
Ti 15.888545267899337 13.807094883256562 7.930380113633113
Ti 16.412935160420023 12.062054954075128 13.092772059964219
Ti 16.399438820375256 9.64725750013897 10.163991831378334
Ti 14.4619681873637 13.68119348605558 12.155879655046864
Ti 16.495294510009675 9.594994008525466 12.852358171807747
Ti 15.758506917629942 10.589319400823038 15.385199002388013
Ti 14.892612708101115 13.100544045633617 14.822236338669013
Ti 13.749717126546106 15.247834869756765 7.745893801772619
Ti 14.46392087609704 10.963161853493196 10.976535922371152
Ti 15.312677252393955 11.212477366246356 8.210804949779769
Ti 13.670119299614496 13.051719953532707 9.423544205881786
Ti 14.659757931554061 8.20766560203935 11.538383787252371
Ti 13.852715333829842 12.840700986960487 6.695170928121821
Ti 12.266513141783049 15.222333537987657 10.11715568298325
Ti 13.786142094711753 8.950973252682061 9.159030451610166
Ti 12.063958875868234 15.285727435912664 12.698605076415967
Ti 14.89660557890616 8.200296953707666 14.155802648717742
Ti 14.037438937486577 10.825283557913949 13.597910779389592
Ti 13.314767912829987 11.738270276222979 16.438747313621153
Ti 12.157009256110669 12.522890087098027 12.07569392620955
Ti 13.164806619146455 9.249403056448529 15.708203202915902
Ti 12.416351587471166 8.728403748123196 13.130198983546737
Ti 11.578146914805577 13.583559534474867 7.594164468486801
Ti 12.388497168705273 13.767301904675575 14.564565900372923
Ti 12.346853988911802 10.989658058869901 8.117460973445015
Ti 10.787621444345652 13.070501570412828 9.920553797919768
Ti 11.499324649424493 11.103711430878773 14.529035262524426
Ti 9.795134293409266 15.207987817842918 14.41305613449386
Ti 10.447476422668629 12.962550385767878 16.239808358007103
Ti 10.99323942898247 10.431364399502897 16.94856598286553
Ti 11.128277265912292 8.653476518130896 8.568385403120837
Ti 9.922776068449272 15.324885643056195 8.735089388341043
Ti 11.840352474204888 7.455790106325716 10.646791459117578
Ti 11.669701169575863 10.113697601476009 10.724468473514957
Ti 10.186079121180269 8.702829730480593 14.906887189841488
Ti 9.9755866215882 13.069231025596538 13.297203038548403
Ti 9.73180972159609 15.226562307034472 11.465033156922154
Ti 8.869167196413063 13.119764768165798 7.878862391154998
Ti 9.530073861276065 10.71037062021713 8.882661126569218
Ti 10.128323789607782 7.545808860752451 12.625526249407187
Ti 9.65861780948398 10.319606381944721 12.62680316333208
Ti 8.658813302845582 12.286354909502684 10.942480666862608
Ti 8.822296278829109 10.78439232517006 15.460507528208298
Ti 9.172933257580466 8.48870246607257 10.489390026490293
Ti 8.050016603290802 13.202043614706817 15.061080943162688
Ti 7.5593167006449535 14.47824326413852 9.76919191755762
Ti 7.598183126380202 14.321595148998414 12.64655153505727
Ti 7.851262342495014 8.80626638652766 13.270330441753128
Ti 6.979412588314241 11.927305798055905 8.874979620766855
Ti 7.100989605744923 11.565420240384949 13.246634026296464
Ti 6.991291256690071 10.210231895767834 10.977379801551738
Ti 6.056975434714782 12.684088520634594 11.101528097324191
