53
Energy = -356.82853764 eV
Ti 8.7506447545134 16.046562284396718 10.41161541240164
Ti 9.114816148619218 14.24872963111956 8.681173582681371
Ti 7.513113984700201 13.580621196490851 11.260885519206548
Ti 11.194352782485659 15.722199768545904 9.443191952819939
Ti 8.332664849166683 15.791440733426581 12.754918917238923
Ti 10.711698135266458 16.731588169834556 12.07871098745999
Ti 7.135288564307055 10.731187764603387 10.917593889270236
Ti 9.928854765857254 11.212217893235593 7.297813543477349
Ti 6.513476626021332 11.876320793038229 13.203861228670698
Ti 11.603238095127873 13.145408353183736 8.688082342622073
Ti 10.195871317508692 13.81850049228486 11.021933523753109
Ti 9.049765354220892 11.738533657190441 9.622709566442744
Ti 12.476979892402069 11.093956983090214 6.740132026928907
Ti 9.153284088611384 9.082807331205641 8.794977492646781
Ti 8.116913135395297 13.721470537898108 14.131320667010623
Ti 9.03366449196837 11.580301317068134 12.579619894325647
Ti 12.821868657997292 14.92485344383014 11.520388104745171
Ti 14.235938868763164 14.233058801518562 9.398980364512559
Ti 9.92803717212318 16.093866535802853 14.813127553893446
Ti 9.577284520359623 9.326450763103544 11.30371357416998
Ti 10.78992051572955 14.285666322351647 13.42767856378962
Ti 7.502851450696085 9.423421163870445 13.110147271837919
Ti 11.107246140848163 8.83065486585807 7.224499706065651
Ti 11.364978007653475 10.449523382012435 9.408523124386576
Ti 8.204006389427393 11.10524696665502 15.16238228936926
Ti 14.125499851651455 13.119968914402033 7.352347714968656
Ti 9.852210469883115 13.23866403369882 16.04704529035747
Ti 12.604919653415296 16.161933272567666 13.850041285574322
Ti 12.019990436649204 14.724571980490273 15.801286020029583
Ti 15.056940199340945 10.706360297617032 7.15839719828045
Ti 12.436654087158848 12.209886310773404 11.497045686740318
Ti 11.221539564471149 11.696091240980843 14.04414588461698
Ti 13.528377707082342 8.753852744621879 7.776748302955556
Ti 13.97939111468513 11.458091450231256 9.50031593551473
Ti 9.959516819368643 9.09389754255102 14.201758502454158
Ti 13.633010012577166 13.705966512709722 13.928442575918178
Ti 11.987766206659067 9.420911135216352 12.601975511914539
Ti 15.08377036554039 13.20345011791819 11.521824533375524
Ti 10.48093416015771 10.657652559710844 16.423496605617963
Ti 11.529614587667593 7.646183417544235 9.715293557133782
Ti 10.567794914695352 7.103416323400191 12.242044200555261
Ti 12.506872177546404 12.31366430164292 16.17636680620764
Ti 16.188106609068495 12.282561890747305 9.051640454365375
Ti 13.625872451027394 9.020936005246597 10.796756639034925
Ti 13.990568624770825 11.158250400003295 13.458287685083842
Ti 15.809681998005567 9.265306378830095 9.298404360119761
Ti 12.613805678763207 9.688765110965484 15.222398803897867
Ti 14.29581378102556 6.9187214318110515 9.435679934104087
Ti 15.762987740478215 10.516152011547897 11.531601478591735
Ti 12.146841518129735 7.283452929687482 14.233213178926185
Ti 13.246612560203351 6.604887959773177 11.91167669393476
Ti 14.508644581984514 8.421674153382726 13.58080382469762
Ti 15.719662970252735 7.670299972342464 11.483139787331305
