50
Energy = -333.46439232 eV
Ti 7.926588558237686 8.079556144242174 13.128414501678774
Ti 8.134476702947365 9.724595131778512 11.046202044470524
Ti 7.680898992877302 10.706885778509696 13.656132940646028
Ti 9.587333613477648 7.420567484969792 11.418439873400375
Ti 8.776351158982685 8.853562631652316 15.243985191940457
Ti 9.282454422548192 11.503171053335722 9.359430612428813
Ti 8.508171767591442 13.55343630028538 14.22159848591763
Ti 8.850180066156168 12.33297685277179 11.899643963612558
Ti 10.433846612396064 9.077488928433306 9.733096400836606
Ti 10.463173955330994 7.261375610280508 13.875867097647207
Ti 10.119124137177863 9.676888713095165 12.936497170820621
Ti 9.456760240307661 11.293321763648992 15.708534886644022
Ti 11.900479112667137 13.44115109206118 8.222363455879407
Ti 11.43674052065838 10.90444280257356 8.151825312934893
Ti 9.207161936876545 16.160776050955754 14.528066720808772
Ti 8.518658743183169 15.473441662769966 11.878386430940264
Ti 12.116509370306913 8.262759070635544 11.65764620633288
Ti 10.349228061343457 13.67188062710287 10.379524408429774
Ti 11.28773206999602 9.182527114334123 15.716126799367336
Ti 11.521156705480163 11.222292072603784 11.039582947247862
Ti 10.607992065675612 14.078948224854319 15.607976952599046
Ti 10.981537294027579 12.230229582114655 13.740836193341165
Ti 12.80437702289763 13.088676716016932 5.860525953259388
Ti 13.326534916661798 7.967216268836703 14.103675618764306
Ti 12.751068356925822 15.38430751357802 6.75936018423377
Ti 12.845807260040766 10.427384103516772 13.704808805522024
Ti 10.828705513624834 16.074669950004434 10.478906680598284
Ti 13.386953849191126 9.575080372965925 9.462140971746235
Ti 12.157936278177704 11.716195893139304 16.292017423245735
Ti 13.181299952499108 15.393573233230207 9.461210722989275
Ti 13.877601819234334 11.313826542100674 7.517083613000216
Ti 12.818910664744985 13.92518357367144 11.75468495093366
Ti 10.635055661340411 14.68652773920384 12.92260815574877
Ti 13.846628441455856 12.441294713198857 9.93405523681724
Ti 13.800621679990842 9.65809354765202 16.069271747468296
Ti 14.572513775413425 13.77767406608336 7.771961271100565
Ti 14.696132128013787 11.977559249941958 12.455645199275914
Ti 14.69826794868931 9.20729572570085 11.689338914326827
Ti 15.551885460309748 9.968115696096115 14.062389409806368
Ti 13.059530535067319 13.83253883155587 14.454206532171595
Ti 13.014632987514158 16.42693324090774 12.196394592199226
Ti 10.460709677359425 17.32505292265241 12.657740129228117
Ti 15.858712071721222 10.891028618233907 9.683042132223783
Ti 15.11574524506758 15.02660724281488 10.639289001967779
Ti 14.66270713786573 12.039531227299737 15.276906226519259
Ti 17.0248553517472 10.605449319185283 11.912839273139742
Ti 16.753880229116508 13.119701100522185 11.201284912090266
Ti 15.3768930070087 14.525267629168251 13.187016598891443
Ti 16.942604810018942 12.39522114297381 13.720250590751647
Ti 11.900438450464097 16.315541221156465 14.674082510179739
