52
Energy = -347.47606056 eV
Ti 18.630970565170326 11.20115865025668 15.833409795436335
Ti 18.191657298518987 12.98129787527769 13.961631757035372
Ti 18.18777160568638 10.334493582562306 13.653832485610419
Ti 16.8835066359495 12.76478497809747 16.501040233610787
Ti 16.4278916804825 14.223384137865821 12.291951734632946
Ti 16.990251418738406 11.664121623112692 11.784647573112721
Ti 16.462853280364534 9.74407603430984 15.863710608425228
Ti 16.325769387135477 13.867010980702421 9.740885271160163
Ti 16.0704341013358 9.208460500487783 13.060665105950887
Ti 15.992359965585882 14.443669790475917 15.070099250147322
Ti 15.603013845696461 16.38973580639042 10.620108636895143
Ti 14.970015406474474 15.460382967155814 8.203543084705608
Ti 13.81951542624782 10.195220096557238 12.093064538948509
Ti 15.833114919442224 11.656324142777162 14.21936298328048
Ti 14.540923996016119 14.477902935072782 17.468800448509946
Ti 13.976669829386703 9.59759863963691 14.733308294149719
Ti 14.95532078933487 11.603352203273419 10.131320014185158
Ti 14.072452502683756 12.903797668811162 12.560957471910779
Ti 14.400053305520753 15.590741859828332 13.109284343468365
Ti 12.490681566057905 13.08032680037116 17.69175776521751
Ti 14.423407964187835 13.028211705385683 8.159104628135289
Ti 13.40839468892362 17.03414138870554 9.170791031220741
Ti 14.46573754068064 11.778944786732433 16.591462187232878
Ti 13.595715556032696 14.537377524384699 10.406029136242418
Ti 14.416836512169054 16.40580253409475 15.871429387708782
Ti 13.600432333057498 7.76582204865037 12.723511879494033
Ti 11.802736617255233 14.763043891866726 12.705359930389058
Ti 12.317827007902464 14.74476983796208 8.117644745625155
Ti 13.098025412860052 14.198218045999443 15.156824155213178
Ti 12.033648408191869 15.628878640178247 17.001293587953974
Ti 12.335112413006541 11.701210136411198 14.458886213017724
Ti 11.982003836848826 10.578643113029417 16.63432987347896
Ti 12.269932195415803 16.892803091069034 14.585089105092221
Ti 12.449338727328588 11.970483022285952 9.429323409652842
Ti 11.654874931928708 9.37328787328401 10.75660867320116
Ti 13.118650624328478 17.324920425545585 11.692483043349169
Ti 11.579570841055997 11.77236754320392 11.849023860197821
Ti 9.772724712092916 12.964519603724101 13.43618195733286
Ti 10.633702921917324 13.152393164855722 16.097219661506834
Ti 11.55965951066463 9.229419884708582 13.482301245465601
Ti 10.623359523905405 17.14725643066696 12.601151572627579
Ti 9.946297987367172 11.102482400089142 9.864405385838765
Ti 11.161501040003413 16.316261794496544 10.111365020604964
Ti 9.832373524695301 15.404452503545508 14.55689212084647
Ti 9.641360875008896 10.745395268591476 15.02435961267962
Ti 9.20435724047506 15.112726281886754 11.810383183244177
Ti 9.32367164587184 10.145164710968636 12.297232140682313
Ti 10.557177071525025 13.705134163988722 10.098867963812578
Ti 7.498863048631457 11.534893993052899 13.615838122857381
Ti 8.19630323784854 13.091954687934136 15.550207956297674
Ti 8.218204343058227 12.480467337320837 11.265975242025412
Ti 7.417203338869044 14.124036793934636 13.362474225410791
