52
Energy = -348.67196337 eV
Ti 13.304730456513967 16.683684758486695 9.61421431878468
Ti 15.05375280577471 14.464330953283422 8.446978711373337
Ti 16.86709933242385 13.59109624161771 10.215646425860704
Ti 12.522058590882116 14.603717639548806 7.739027448380391
Ti 13.157585559859882 14.57642711520747 10.455486298847935
Ti 13.461558597975458 16.834540470132094 12.542036628063261
Ti 16.00557311191438 11.991921757250452 8.306713605055865
Ti 15.474730843237944 15.51546624130546 11.252698510830719
Ti 10.788598956780675 15.275220441809154 9.091500511435623
Ti 13.414975887176519 12.18249067828573 7.885573354094966
Ti 16.801960645159422 11.050310749537793 10.579288540972316
Ti 10.05610335077995 12.836355603007194 8.037000727536633
Ti 11.027204137473374 16.15179448269292 11.509084201017707
Ti 14.527782898973628 12.315302649537404 10.487228289646403
Ti 15.766275869375306 12.920477820308669 12.783608417712866
Ti 13.298614840370753 14.386641031403967 13.077682177185157
Ti 15.381883328911744 15.434041971171805 13.988709019534733
Ti 11.789982411556473 12.60741350716786 9.872205367024765
Ti 14.506438917373437 9.92677316082938 9.26532400298542
Ti 8.789562728574849 13.99542165995488 10.058235159421656
Ti 10.809161889910433 10.328360610224724 8.685359187314472
Ti 13.04340870315519 11.825203564079095 12.850555227869952
Ti 8.111077641106185 11.394036662174411 9.331151686852488
Ti 10.56643155894136 13.587221180744569 12.144743511287842
Ti 14.948113943246257 10.079148502284262 12.047281387225643
Ti 11.392535974542634 13.373589527558973 14.622712430282778
Ti 11.13315695748743 16.19167781040354 14.064659152379045
Ti 14.403778597400597 13.219695020445945 15.321490550111733
Ti 7.707554909918849 12.892029048282147 11.79835041937967
Ti 9.922375139674001 11.389274645141713 11.067037530091914
Ti 13.936406909556034 7.834860294522578 11.300237008307837
Ti 15.056035307580736 10.852498251807358 14.560197244056704
Ti 12.459790716429952 9.984613495079646 10.928367402901976
Ti 12.914019066836468 15.499767631850819 15.575971304247638
Ti 11.679656686470349 7.600243556251412 9.945635010560862
Ti 12.805712465953661 10.960192368755518 15.859972386392839
Ti 8.957484066363856 14.997652271181689 13.447462935097883
Ti 13.158830766453837 9.01565957627375 13.693207390861124
Ti 9.105906108851302 8.838805288959303 10.012526148929778
Ti 10.784132235584902 10.805680147036567 13.842297782638404
Ti 12.369256948294035 13.255501704413977 17.064637713752507
Ti 10.100761290025297 14.596812505378132 16.157873686634048
Ti 7.972723955517533 10.29915478595531 12.30095492642895
Ti 10.41957099394524 8.689015667118301 12.371184511133615
Ti 11.983744029794098 6.590107420477145 12.55220554324954
Ti 9.763076205141521 6.418879026665476 11.140152561394991
Ti 11.119226790352142 8.372266156971754 14.99485637913154
Ti 10.294481403128074 11.64450567803374 16.299660363368698
Ti 8.749225576922663 12.466937880905512 14.151312899964235
Ti 7.846739322513559 7.719315212910203 12.23281045629194
Ti 8.722022663541214 9.107730131294067 14.482499182698326
Ti 9.555148079643436 6.600100231270646 13.763556846622482
