54
Energy = -362.23949999 eV
Ti 11.324769866158315 7.55200937863648 11.675660200486023
Ti 10.150258552112321 8.65863453115923 13.881841161254009
Ti 13.584622317945488 8.723571237565773 10.967872988990079
Ti 8.974452755678202 8.364676887114653 11.358492937713931
Ti 12.711058671283082 9.160888031074368 13.334024523910093
Ti 7.669640016572885 9.689738932210211 13.247070443591292
Ti 11.650565790007136 10.107422173277026 16.47984181449246
Ti 15.565393943813879 9.270180456345637 13.229662784878608
Ti 11.321076915756171 9.238216717266456 9.333129974771717
Ti 14.075684556032707 9.46012463603248 15.411993730669181
Ti 13.939590785534667 9.561969453797802 8.604207409841903
Ti 10.833010200153 10.196559442226144 11.643709476870509
Ti 12.2359070723562 12.490532135848424 17.8893216675495
Ti 15.78983313280351 11.359328635865918 15.244539681795462
Ti 9.075240746373321 10.214036436139025 15.551511080551679
Ti 14.140448361230597 10.919873687744461 17.450358598455338
Ti 15.572214427656977 10.470462955123812 10.669751772809922
Ti 12.873856770122384 11.395988703110694 10.258015021563146
Ti 10.266740416580966 11.94415174256848 9.408547173374334
Ti 16.926081180459022 11.693059043085269 12.623648633260164
Ti 8.012165242353362 10.616117499950558 10.60920936271655
Ti 11.270005798955399 11.410971042439977 14.084479018074653
Ti 7.50386135889458 12.001731396457163 14.913925637221043
Ti 10.119406388600018 12.503199100471425 16.281734797075433
Ti 17.459091246087304 12.095048455919661 9.990525309192828
Ti 12.33204412814258 11.156508515179603 7.638979200388741
Ti 14.126987482596505 11.414417105841238 12.83561060683285
Ti 9.0693023651706 11.968724134565916 12.86599697514234
Ti 16.908142728562197 14.204240758899532 9.075794484799763
Ti 6.486159936801006 11.862615793977762 12.39831590191932
Ti 13.177289042071282 12.192032695412722 15.43307567017526
Ti 15.383457543556604 13.342412770199505 11.186793300877522
Ti 14.769818911198861 12.34080219610889 8.570540185316421
Ti 12.984285394939098 14.017512931581008 13.443582051876811
Ti 12.215841063420347 13.606714614810947 8.156829818620661
Ti 14.549522247049413 13.590195676335941 16.989432594434202
Ti 11.003600602844603 13.231510450995046 11.69969760562459
Ti 12.025324380477036 14.645457357707809 16.334858835543365
Ti 7.954850850025081 13.300133587262836 10.681409043030076
Ti 17.674400552993475 14.232774110931976 11.665592378499946
Ti 13.176419186583665 14.391406115074973 10.505508178694413
Ti 10.23855652819031 14.299666888265774 14.195696312259921
Ti 10.205364248058311 14.697943140848267 9.601431791050263
Ti 7.4126915738814985 14.070493273216854 13.248945633170395
Ti 15.750573213287943 13.69794515229137 13.993460522785435
Ti 16.123509354959815 16.078128246172557 10.448217623438603
Ti 14.3281454171565 15.535309007218352 15.35785425312735
Ti 14.564415226068915 15.26752177832289 8.4035012645093
Ti 14.578416806956827 15.863808233824463 12.713551503602522
Ti 12.210555644759248 16.40324872187939 14.30502281650537
Ti 11.6456426290919 15.908172676023135 11.802524220819103
Ti 12.138661807165194 16.28291546466248 8.940277525702466
Ti 9.102465258461269 15.289694451027607 11.952572667567473
Ti 13.851907603316395 17.028584872298673 10.427628630032844
