50
Energy = -335.93664065 eV
Ti 13.737885384548203 12.948374366550444 7.098416716261401
Ti 12.637360684550597 10.855394825768636 6.52036300614834
Ti 15.049415136471929 10.517556731428888 7.726177573883661
Ti 13.156355638226369 8.63226968187443 8.017135527104186
Ti 11.0418518303449 12.748374286267397 7.940128755317117
Ti 15.561877301645017 12.91519919299326 9.070350652892857
Ti 15.321039872597467 8.41562129225521 9.409990287947066
Ti 13.143714241651958 14.22041696289619 9.416647220428597
Ti 12.949742276771525 11.400720788069695 9.081012852404347
Ti 10.60700761142813 10.073403035739863 7.795157927091683
Ti 8.294204800028178 11.941096881446347 8.940778221793753
Ti 11.210623269143817 8.458813558398058 9.7771753915445
Ti 13.380527008752392 7.176497904093906 10.45859397459759
Ti 16.244092850542245 10.56495188496774 10.378364800712912
Ti 8.446076029272211 8.939223307189888 9.530341319811756
Ti 9.10003631510757 14.233969896203092 9.647035732534055
Ti 13.46792434552407 9.767766705039405 11.005437366134059
Ti 15.342609385419463 14.846402641844163 10.96728507404977
Ti 16.854401142055966 12.805987396408495 11.459746357193834
Ti 11.42065623563459 13.127561621138753 10.853801487011337
Ti 6.841843695196396 13.295929960936974 11.034915803953648
Ti 15.409703334688576 8.47541963834792 11.994875166678812
Ti 6.917068431000113 10.569031200558761 10.66504772213604
Ti 10.407181382064657 10.841272585589033 10.206426172767697
Ti 11.087161264217634 15.714220972025306 10.846249070053911
Ti 15.53807181481879 13.825320847949635 13.396305524235455
Ti 9.603927816115155 7.138000859479504 11.11116438227133
Ti 15.858480925714105 10.975501847089623 13.052488523588277
Ti 14.160042010812317 12.507415479109296 11.53058422193897
Ti 8.810950321369429 12.33930700270479 11.81080946661006
Ti 8.788542495282826 15.21674754803235 12.120480278545896
Ti 11.786903277676501 8.26577766506104 12.518955772365853
Ti 6.800926241194414 10.874544964258046 13.100222231391953
Ti 9.226665649970982 9.605945498659487 12.372633032376834
Ti 11.617960169875984 11.03037913980794 12.80546689690817
Ti 11.062656531596827 16.308874324830935 13.23992393562126
Ti 7.227204856067659 8.136566585867268 11.998508170367984
Ti 13.605703944178599 9.817620856600902 13.870550314097306
Ti 10.680300258033835 13.566546476505975 13.53197516998998
Ti 13.480596658919216 12.56975166099429 14.137921400510505
Ti 13.145532100082205 14.83915397418664 12.529160894555373
Ti 7.841512175460761 13.535026496377428 14.035483739544665
Ti 9.32507069329 7.172747280992868 13.50658110994079
Ti 9.04923585064705 11.300240521785154 14.828949717048705
Ti 9.390969976817493 15.573109064229836 14.810754985114444
Ti 10.636065782061113 9.212653643284641 14.74070767761737
Ti 7.910202082876256 8.95443568175633 14.567741301586787
Ti 11.597978550196844 11.894995122442173 15.59867064084825
Ti 11.996630419440633 14.785964288928984 15.311694526774156
Ti 9.673939906838584 13.514325827254723 16.077241881918564
