50
Energy = -334.95145409 eV
Ti 8.582623958990139 14.46128886794275 9.499131793571655
Ti 8.495417428070454 15.25127906888902 11.963220412438224
Ti 9.967277897250415 17.020467478130207 10.134250006372742
Ti 10.379281892892976 15.144641096321015 8.043367608354453
Ti 7.689921656176455 12.56894947507529 11.088018379260427
Ti 7.892652891330224 13.629399869306145 13.7565447205611
Ti 8.570468521005404 11.282576924771288 8.781940669981791
Ti 7.719258786079333 11.039188151987409 13.234632109321353
Ti 10.56001239613215 16.682394936746903 12.764646918287797
Ti 12.33321127010133 16.550476704061985 8.91690816833826
Ti 10.999888065224294 12.494525947333866 7.144781184588688
Ti 10.758053092547957 12.63729743002633 9.600097029323928
Ti 8.862786896577276 8.617470304237417 9.043163452627038
Ti 7.4441334844387 9.626248593163773 10.886836535358112
Ti 11.112204412793098 14.901168846370455 10.79054459787613
Ti 9.570336490857617 12.06405591428296 15.070611836070666
Ti 12.532786918725082 17.05937201329407 11.345157470182
Ti 9.938239498308814 10.346368167533209 10.757952902822014
Ti 12.724325759501621 14.135105316157569 8.053625571710567
Ti 10.009022639621078 12.819009472103824 12.368324377262258
Ti 8.669897073895774 9.541585030298135 15.312897230826925
Ti 10.461054584807094 14.508570891477646 14.239651109425546
Ti 10.89636318909419 10.011773221459565 8.13830765437816
Ti 8.016486762673642 8.458577846974775 13.240524543279319
Ti 10.438918199790622 10.003711782649127 13.303840978067152
Ti 12.720420768591996 12.540724174002495 11.609988906764832
Ti 12.026037114281577 12.064283754057083 14.406454584608575
Ti 12.82597275201937 14.875454853291064 12.995928523381567
Ti 13.7975335411957 14.72529524118274 10.43763776202501
Ti 12.628144760187347 9.770008718058595 11.063953197957003
Ti 11.37475857622051 7.719185169573307 9.555894992850893
Ti 13.122560688619702 11.649047604700145 8.921553606079527
Ti 13.381848083018369 9.15599966516769 8.44142944941966
Ti 10.345559353548108 7.6860818019170525 14.357018952847675
Ti 9.53495897932399 7.639937469539045 11.51671380237867
Ti 11.15599366477026 9.959998940668601 15.867814939480494
Ti 14.6234554084194 11.147876429607672 12.992246949183395
Ti 15.252849346523679 9.978978458745427 10.436081891360384
Ti 14.261539548230724 11.203612674352753 15.77089034838593
Ti 14.268663781654698 13.395749724078556 14.770065564911778
Ti 15.487321661582698 13.890190923890817 12.558582361006037
Ti 12.074555320563247 7.322258402344287 12.178445432912465
Ti 15.274128622128975 12.63908556325564 10.17820481510896
Ti 13.908820410752858 7.531754157815962 10.218547515848428
Ti 12.915005683732211 9.130638774182879 14.269460048703888
Ti 15.622160351977076 9.436011232525818 14.876794388384468
Ti 16.60370853434843 11.984304083322412 14.38537737035595
Ti 16.932168644252208 9.743800016552623 12.774635146691276
Ti 16.94538174931939 11.856858297607843 11.667283572251398
Ti 14.620114537709465 8.365337685679469 12.581599191324008
