52
Energy = -348.24459862 eV
Ti 16.80054267432692 13.53292048559967 10.641003586737837
Ti 15.625152437041882 12.50140348516655 12.939145822918263
Ti 15.296499574067164 11.484118027137528 9.614643061401967
Ti 15.494758457269745 16.045947124973022 10.126818872444217
Ti 13.250035504530516 13.629074706592602 13.555816927547838
Ti 15.636689330965025 13.839691728585667 8.476597306496469
Ti 15.865235629846664 10.323249869149096 11.634875992353374
Ti 15.055024443892577 7.952261225588126 12.668835780596476
Ti 16.136478934305963 9.892812451044476 14.188604656015025
Ti 16.110877974637077 15.035096951344855 12.536072359967317
Ti 14.400794657160622 11.9868705710977 15.372191857786694
Ti 14.888288135775644 14.712640519353448 14.883416237078073
Ti 14.079625017725968 14.062165490884128 10.722412335135578
Ti 16.087072171499745 7.1647213842433635 14.814505768266946
Ti 12.419749211990196 7.805829035861486 12.422759822269626
Ti 13.644323062628198 15.213659764061477 8.270801972173233
Ti 13.06288151549399 11.896141728393637 11.446547891229285
Ti 13.223821797677399 12.396814804285174 8.618541704683167
Ti 12.142605738337329 10.893890564411956 16.026743462744186
Ti 13.297708807425108 9.610190491141127 10.521254469923683
Ti 12.51521829868787 16.38081171444813 10.342816864566233
Ti 14.228211276687983 8.755256275878024 15.462108615959346
Ti 13.799607290694205 16.339399900700172 12.624507047341838
Ti 13.532348564549936 10.276801289309192 13.44002872521539
Ti 11.532774934698992 14.49405725684429 12.062738736476199
Ti 13.637383103224405 6.501973145221352 14.381299642127773
Ti 10.903810498012668 9.914931029530269 12.379772322856923
Ti 12.429439489866324 13.68661332601311 16.17477900397432
Ti 12.481775915476783 15.993922679220722 14.80923658130144
Ti 10.89084795741906 16.769835658881096 12.782935575969601
Ti 11.023330546156389 12.094138205290351 13.90946797818096
Ti 11.599309649434806 8.576850539550612 14.755935503227523
Ti 12.035796655874991 9.984236559549034 8.055193265766206
Ti 10.6906454895504 11.335136518304076 9.9817498173693
Ti 10.088354195206819 12.509103308131294 16.34706228721387
Ti 9.527552231262348 10.167272707133069 15.077127687997692
Ti 11.372612188811953 14.1388715848198 9.206189429663784
Ti 10.916119645795767 8.549015352377332 9.887669964496688
Ti 8.087500778055645 10.509587205594226 12.767551138727864
Ti 9.310509792268904 12.827833472899503 11.675259035637467
Ti 9.64151778633294 15.428416165366164 10.403527905811115
Ti 10.304394116030403 14.639197760322148 14.656394139841495
Ti 9.553964808524354 7.9785314333913835 13.039269849420933
Ti 8.397846339709412 15.038137455121168 12.763719846650913
Ti 10.920918509120375 12.155902058080994 7.369545190534695
Ti 8.341854713539007 12.659980610417369 14.416640350996458
Ti 8.882766169852795 13.055716154506312 8.593113966253835
Ti 9.250701879421728 10.229801978298923 8.206382004710832
Ti 7.472963200568653 11.486911755061557 10.12626432637027
Ti 8.75380594348144 9.251537242569418 10.68202034878985
Ti 7.37164884500997 14.170631438052192 10.44644674943757
Ti 6.733366598238154 12.841525792455009 12.403309809561058
