55
Energy = -370.80516522 eV
Ti 9.298955631347026 11.627767359145752 15.966758883296338
Ti 15.524927444941149 13.588119026796143 11.92577220124076
Ti 14.340842989173503 9.937618026244479 15.116908930880896
Ti 11.378807142150551 11.620133429986621 9.600366150889876
Ti 15.284907115699468 13.723843741764057 14.864048410622727
Ti 14.256010576484595 14.80239866826263 8.007851223657456
Ti 10.794710795795284 11.672660758253619 13.626659084022112
Ti 9.13298017272909 11.79080408067639 11.377961294450989
Ti 13.349734199276853 14.613288568969137 10.515118923261134
Ti 13.797072001894415 12.018035529813654 17.463929117466957
Ti 11.300023694001272 12.541681524721454 17.26674771077797
Ti 13.1602882922024 14.493645706361278 13.390245531081415
Ti 10.736475521912856 15.979160144517248 10.332403899846863
Ti 8.943004670689694 14.447585516932664 12.103547114377722
Ti 12.913558700084861 14.574460988948253 16.237431083728556
Ti 10.982102772159068 16.21301829345357 13.005234529414157
Ti 13.833522734042573 12.282726695397896 9.156995184461358
Ti 17.86396659783922 12.547957919494674 10.77408960207649
Ti 15.807560841259711 11.021328654431528 10.556420983312254
Ti 13.41408213336329 11.554841568514394 11.971493824176939
Ti 18.49231819368067 13.242184058986082 13.132516043000622
Ti 16.09832498343008 11.6633170446336 13.610645049480908
Ti 13.115419902447094 12.156121119709045 14.83203492467258
Ti 9.570521091632363 13.650404471909974 9.681259642094512
Ti 16.173118484820495 11.563602119880814 16.430607975617868
Ti 12.820237552525336 16.663906160907935 8.923017482092877
Ti 9.063231114553828 14.304148303377943 16.596200505628076
Ti 15.267504374017586 16.38611565472045 9.986712237333935
Ti 13.023389936487785 17.178091897880083 11.504936194040733
Ti 10.980163911787423 15.251350180686426 18.055204342779376
Ti 15.193855033458004 16.194478870881582 12.731114731405095
Ti 13.074260693846936 17.04273376530801 14.674260792172385
Ti 13.006495851642104 14.089768030976467 18.81214483919281
Ti 11.018505298913944 9.941623441149071 11.513060706535176
Ti 17.956492860801234 10.443144257816511 12.430026304800444
Ti 17.727736426813955 13.592765690864859 15.664416873744882
Ti 11.446676321819258 10.10726109576128 15.86566763231932
Ti 18.45725445450518 11.283150697737632 14.927427867317896
Ti 15.291744953295876 14.330542620106272 17.49670255670575
Ti 11.721420608966293 14.279862172350509 8.414326171607536
Ti 17.545465954949922 15.12452053819392 11.288569334600046
Ti 8.657855103142197 15.705164298506473 14.435881195133037
Ti 11.321998841636447 13.394902219692558 11.667159612416734
Ti 9.508433470974738 9.744026826743243 13.93032325439939
Ti 10.739599768431063 16.623582829875208 15.897714283732121
Ti 10.741452002102152 14.160640980479467 14.697306270711453
Ti 8.323984665994526 12.960954132878827 14.124779818972142
Ti 13.273373012484731 16.627742571452202 17.561331527279258
Ti 15.183694526310687 9.361177736117215 12.537436009938979
Ti 13.395788485556299 9.688265885942146 10.254702287522647
Ti 15.21156926704449 16.22519553281386 15.586458018394652
Ti 16.793063133538137 9.429200310790433 14.722008504445338
Ti 12.319070390296819 9.346854625239189 13.50083139762307
Ti 17.307597393653115 15.450545836754149 13.912650123169598
Ti 16.092969086687436 13.76969899548576 9.368702985371595
