53
Energy = -355.91714657 eV
Ti 14.45478089546326 13.765165845469511 16.064152579975175
Ti 11.828683436633378 12.929208306009818 16.640212424772947
Ti 14.059817233272751 11.190131954294367 15.974585403522319
Ti 15.556927918504723 9.429925896039995 14.50048279955171
Ti 9.345973877976785 11.24061710586659 16.284039392322963
Ti 12.390319556687073 15.463597876890578 15.266612538438922
Ti 11.905941630126803 10.308883093889564 16.950398834658778
Ti 10.040859448857582 13.857477089202689 14.81677934643097
Ti 14.764407502759534 15.189673617212716 14.062980327962446
Ti 12.903384463442046 13.033418357496142 14.188638010512022
Ti 13.261788772383417 10.105871900723907 13.587024143906051
Ti 12.98984524203639 16.518926233654945 12.789906076404337
Ti 13.33650567909211 8.459721934577008 15.675799272289549
Ti 10.918177226879974 11.19181346076847 14.571983065891168
Ti 7.977875224718978 12.195481102233265 13.991538783640816
Ti 10.462072769027461 16.268569130675644 13.563546854583059
Ti 8.669516267807625 9.467240669875586 13.83373217905419
Ti 8.940209653347788 14.517632654370802 12.15800999205627
Ti 11.542701868376943 14.146186194558368 12.414531790545652
Ti 13.988252195584755 14.260981584816241 11.559150518597779
Ti 15.215567405730328 12.10848996130727 13.551451177594569
Ti 10.507201370018183 8.610814230325357 15.63677039542366
Ti 15.534486802855778 15.871847170868705 11.362737231530774
Ti 9.720604841348495 12.040858066678421 12.397437376717221
Ti 15.295586059121513 9.865618606188693 11.878481551613556
Ti 12.086190022828442 6.752302631244908 14.355429392724306
Ti 8.53851125920223 15.30327373139241 9.62029913157289
Ti 15.218363393311938 15.069807941712423 8.888203447636908
Ti 13.45896915424783 11.690950302688172 11.41114936437312
Ti 14.096008079217622 7.614176505620151 12.98640799674649
Ti 13.023897367776321 15.990652950680333 9.608266380777529
Ti 15.77245795145511 12.737639489837965 10.395945900909352
Ti 11.046387889348685 8.805514974941245 12.703863959657687
Ti 10.76420254921779 16.1501884847742 10.85110721134696
Ti 10.517452531717582 13.520050073363713 9.96119914032254
Ti 13.102000120398479 13.109121444461966 9.078607311112613
Ti 7.987647731504134 12.698297992338585 10.270230631129582
Ti 14.53877432082223 10.76358404770958 8.995407333632103
Ti 9.68712446858994 6.809974623540934 13.855295770182924
Ti 15.474519170192792 12.981248242914763 7.725299524656656
Ti 11.17364587590568 10.807243739803543 10.788405551330817
Ti 8.64887937860484 9.869387811600161 11.04880363803125
Ti 11.483662497927494 6.476559137579942 11.760511622183582
Ti 13.108023445795101 8.764765366161036 10.744368068657163
Ti 8.82205482823809 13.536553938999106 7.881413732882295
Ti 13.340106083063963 14.658249693251115 7.03097196236699
Ti 10.779185347997185 15.417838549619628 8.039852283468408
Ti 13.511685973481436 11.942816923233197 6.692977656562825
Ti 8.882198363114952 7.461106073206519 11.739817108804179
Ti 9.5753663887495 11.152503172850238 8.600752888212638
Ti 12.063226102092866 10.53629258965012 8.287835753909855
Ti 11.14684531479515 12.951375748375233 6.962023675409701
Ti 10.561249073552974 8.424112759942883 9.983241415448315
