52
Energy = -347.26766399 eV
Ti 13.966760434271524 15.45218973107428 15.313289520000309
Ti 15.269402636913345 14.359938025613896 12.941581746230366
Ti 11.936233562112067 16.945304388623974 14.64805476578322
Ti 12.704439690471942 16.36914791642606 17.335498990301645
Ti 12.242315136396869 16.762679785289688 9.988389030172154
Ti 11.149998320427247 17.544831381156353 12.109745362262087
Ti 16.042098290379702 11.633556353266302 12.980781376982293
Ti 16.019594594052467 13.010188175149912 10.905037341131822
Ti 13.33919567789675 16.147372108274116 12.53377640351165
Ti 14.327951454761225 14.92966531388272 10.482123707893232
Ti 14.29498111463941 12.65786481215646 14.908911912523864
Ti 14.3997039374665 12.097110490069301 9.323529854223619
Ti 16.61011024580488 10.396064633020103 10.515105557579501
Ti 12.063687738042345 14.050003139038958 13.922584321967843
Ti 16.345549116605333 8.955798833682309 12.508631451251073
Ti 13.312599821998791 12.751964453614278 11.828781755542074
Ti 12.383138461024368 13.842746185131853 8.923823929978822
Ti 10.646505060225213 15.609772594918097 8.45220303476796
Ti 10.872366256559912 15.09454634852036 16.108381318562838
Ti 12.955019973263662 13.761540857950898 16.94806120022428
Ti 9.793883590791955 15.795516570263814 13.540829824117438
Ti 9.4653592200383 16.456296203362733 10.638372422938014
Ti 15.251983473573883 9.921281542892238 14.787416950432707
Ti 15.16153816528487 9.751514865859532 8.507994634887055
Ti 11.25102889722836 14.703463169798903 11.326389893905993
Ti 14.13704894537893 10.209086039902058 11.386871031377241
Ti 8.232755307401375 14.275361634044401 12.180472025768683
Ti 13.397237125041071 8.374420872366374 15.568881793769753
Ti 12.713499140942115 10.593160246995163 13.914332374774594
Ti 9.40047106966672 13.660344928820496 9.594361652950981
Ti 13.365968993757372 10.748814935507367 16.55735441406049
Ti 15.099198827950383 7.9677448682381575 10.446152419565298
Ti 12.958905242308301 11.352909896116683 7.373182164739163
Ti 11.559125883029365 11.458405800827446 9.730924803336451
Ti 11.252972434442592 12.169313167387838 15.66965570254883
Ti 11.333698523837876 9.679690619358437 11.78024521072552
Ti 9.182158509332721 13.35146925292355 14.55000338712507
Ti 10.160634582018984 12.293079629813272 12.217633205285585
Ti 10.493266174913941 12.525518597620264 7.49878449166335
Ti 14.074540197417598 7.8895983025276415 13.112094714536218
Ti 11.543218678874249 7.804927756479928 13.860822347977429
Ti 7.6128520436937785 12.296215599231946 10.719265614066773
Ti 12.862804851887995 8.96390312945892 9.007146846599731
Ti 9.75619636580776 10.197275280493152 13.87641091756236
Ti 7.665399837207987 11.829085367944263 13.141587399003036
Ti 11.163953458125013 9.519247886595696 15.958754116662496
Ti 8.961026213075435 10.882586154411035 8.969133676142604
Ti 12.272051307516431 7.306447148519169 11.178644995319612
Ti 10.906286023462453 9.939842055833571 7.504654367900824
Ti 10.264697884309673 8.49067313992367 9.617695617707675
Ti 8.547634234250761 9.94634948683473 11.436037861389316
Ti 9.717790145066804 7.717698648993651 12.120055205098776
