50
Energy = -334.93521343 eV
Ti 17.128247833294527 11.492569337964023 12.696179011115552
Ti 16.681999013752556 11.256719731465557 10.067982731279159
Ti 16.65466820550549 13.582033851352344 11.618239596426074
Ti 14.236689118881461 7.4341480949823024 11.95790579730252
Ti 14.161638553532958 15.336536831191836 14.202114453364068
Ti 16.191060779118374 9.248222839454987 12.219591005262147
Ti 15.803350516395565 10.517512930775805 14.586085684443749
Ti 14.678558127957787 9.253874467137937 9.883025413499583
Ti 14.687416733023488 8.439462698882494 14.550134807179768
Ti 13.51817869513115 13.543384409671633 15.933523825531388
Ti 15.168540161319383 12.942570184039754 13.906273629058814
Ti 15.577044730891883 13.598221978927429 9.461309410008537
Ti 13.12978701138929 10.972324009554606 15.222447254632161
Ti 14.524454246061385 11.910602562830512 11.399630074908044
Ti 14.071737556383157 11.422159020518617 8.7476043077172
Ti 14.110001006171618 14.613226291815403 11.624628143511355
Ti 13.105229660561276 7.19593847371039 9.47503674555842
Ti 11.020891080931516 12.583381824517815 15.786191946237588
Ti 11.794827686661215 6.618981939979779 11.590579100933699
Ti 13.599934877577073 10.086657348732514 12.916191160520095
Ti 11.668582617705496 15.286213453253065 15.163298580347695
Ti 12.09753095163757 9.247019370226356 10.849674752337659
Ti 12.260960664033336 7.898873051149256 13.769722540970548
Ti 12.35818980297449 9.32335200943342 8.129959703858846
Ti 12.496359352278242 13.224793241020048 13.493911764179563
Ti 9.96947316334057 10.154415837858755 8.585335837151542
Ti 10.496589786766473 7.749691660804288 9.531530711452914
Ti 12.4060887600293 16.5230032892229 12.740823681756826
Ti 10.58856720603544 9.687655825589626 15.118849636081798
Ti 10.006612527022758 8.294314364149354 12.503237864380955
Ti 10.90908496467689 10.964270680827926 13.100150587700055
Ti 11.439424774244728 12.019863777819255 7.795564657356687
Ti 11.683406665238332 11.856818535761487 10.487419434036855
Ti 12.605019118269036 16.185563489220037 10.0966855364874
Ti 10.925284328099531 14.506764484410724 11.57538318585837
Ti 12.992905048870767 13.719192786799745 9.200339127027812
Ti 8.714973292362764 11.75299484464281 15.046796519035151
Ti 9.172511643864997 14.24680036524211 14.644188847103104
Ti 9.155321118324283 12.514715923985554 9.49911117545234
Ti 10.062535296049802 16.432796543249047 13.50647772293673
Ti 9.314063189882445 9.998368188928323 10.940993671975226
Ti 8.07775841594185 10.29781337464234 13.357072915186764
Ti 10.711153428723911 14.870759027606987 8.872005422436962
Ti 10.14309404690791 16.824097733083605 10.884327055489177
Ti 9.042875979808752 12.69305687549653 12.251305165252123
Ti 6.8667992821819475 12.91766885070838 13.425875820410159
Ti 8.014700611732783 15.387583146402518 12.430231114319914
Ti 7.0495703954798286 11.267309947032217 11.121689751290157
Ti 8.530300836085784 15.104554118999554 9.85731243491332
Ti 6.911210050941734 13.624429173306481 10.858808716612206
