52
Energy = -345.05787482 eV
Ti 14.971934298988973 16.68134779754732 11.751779396632692
Ti 13.5166901746088 16.790016535956234 9.503158055576284
Ti 13.330610138705381 18.609997454039675 11.427186469836586
Ti 15.381267767774743 15.122858263940714 9.826071509310985
Ti 14.72634467323038 14.69960146938825 13.631706092363535
Ti 16.698771079855966 13.994133847010943 11.77720910147037
Ti 13.031392662303215 16.868333374061578 13.448872609097585
Ti 14.770077106835684 13.060657421345745 15.878906893190539
Ti 13.14754888539979 14.480574778132384 11.454884707845018
Ti 16.61209568642272 13.065338757053148 9.337967908318355
Ti 17.173553698560838 11.376669369300561 11.329537825087959
Ti 15.959886686863697 12.294974306193692 13.643313751235693
Ti 12.821766927832916 14.674340924355468 15.664059043524073
Ti 11.782102912016105 14.783040472616937 9.306262732266626
Ti 11.573416973159096 16.770974608975816 11.210775462809998
Ti 14.0839892495359 13.259914441108776 8.45126740298278
Ti 13.19203409947631 12.539212929819039 13.753775548060638
Ti 14.637705558154284 12.102838901160824 11.133928000231693
Ti 12.551261966664423 12.155528001178855 16.936466463663773
Ti 11.229480882536878 15.024396445102303 13.332404364511675
Ti 16.016664372932606 9.274125308821931 10.688452048096105
Ti 10.750477970378459 14.11247649876479 17.83663555171037
Ti 13.991369376771848 10.435151301487286 15.61125106628387
Ti 15.03200090219405 10.05822183389889 13.064694368211516
Ti 15.603400934155662 10.920669388029264 8.81447028687078
Ti 11.168426239670028 11.112297465209908 14.620350971039617
Ti 12.214419467646634 12.021989174134712 9.807989463696503
Ti 13.599814406999906 9.446798151182687 10.02782091712014
Ti 13.081429126813934 10.522498304455933 7.726476720281014
Ti 14.269248528627381 7.905477495711237 12.045585988963232
Ti 9.740132036427639 14.592931508590777 11.017653653968184
Ti 10.072746679335657 11.690205346630819 17.556224245991196
Ti 10.493517326363222 13.552814650251161 15.475032547330867
Ti 10.951826859271058 12.662987378412108 12.142658334095499
Ti 8.364898166685881 13.474820376405079 16.761275384844325
Ti 9.53285822155439 13.122625429101495 9.014645193915195
Ti 12.793460764641809 8.581426431291836 14.218366343278339
Ti 12.184678908992387 10.247997545304568 12.199533580573979
Ti 8.643559715982427 11.067809114923643 15.621566308367886
Ti 8.698071108314487 13.104091676204945 13.757926062558184
Ti 11.496641390115025 9.572334040908213 16.471231955940535
Ti 10.400647123131275 10.944836687607319 7.741099841399989
Ti 11.297000795906477 8.587978617857539 9.09966479564033
Ti 11.786740748831154 7.601591920367969 11.746476840407544
Ti 9.99052067257732 10.623636436328907 10.44570899795066
Ti 7.926171249780591 12.490217491903552 11.052978499822522
Ti 8.732357647475142 10.665750540244336 12.956948311924295
Ti 10.2839728052694 8.734683559201704 13.714494561059107
Ti 7.8810342301885 11.294402397473633 8.73639487625521
Ti 9.369882161338479 8.104726990672608 11.129221923793574
Ti 8.846413880385585 8.943827688770488 8.710534748081722
Ti 7.420392684127272 9.84511040277153 10.79535567414558
