52
Energy = -349.40367466 eV
Ti 12.428090506460675 11.199874470350347 6.312696554268139
Ti 14.718456326240517 10.951888891457674 7.581718062044402
Ti 13.494557578869722 13.212820330046544 7.423102421112684
Ti 12.731103218715912 8.94760858462485 7.717035689336038
Ti 17.098394143208868 11.395984089553078 10.1441320467066
Ti 16.88070203988052 13.657841464759178 11.065769007492195
Ti 10.842076350743008 13.094771792947476 7.466329232846887
Ti 14.72702543100959 12.65666418299012 9.722681006681192
Ti 10.186679141095645 10.44352196204388 7.500225517645949
Ti 16.980090768369802 9.463514456880755 11.711492938436864
Ti 12.550746342485038 11.101718903024977 9.086706614247133
Ti 14.884720889753744 9.689250443458212 9.892362359985833
Ti 17.833644439505456 11.783246831777614 12.852874419921061
Ti 12.682489258200965 8.17150941627003 10.436810037127437
Ti 10.545458801028031 8.88606541715842 9.298704336694277
Ti 12.224335216541554 14.166600576778906 9.458647633146933
Ti 14.437700367075065 14.627512647231159 11.523753104585193
Ti 15.368507986442664 11.64031708728418 12.231186326703954
Ti 14.646777852517626 8.614478655461097 12.65486786256521
Ti 9.51736468890233 14.444346555214748 9.791862551852327
Ti 16.242492988109063 14.109697223380232 13.51983958061993
Ti 10.265897974461154 9.542603661587709 11.716797007445965
Ti 8.475041183602208 12.435015242357785 8.214657342615991
Ti 10.225560930503768 11.826866788913954 10.086194295709538
Ti 16.28354761811098 9.910092281995405 14.156260863775406
Ti 8.195166916167496 10.280231618193554 9.726079586964635
Ti 12.387554509956427 12.800335826200007 11.564494647222427
Ti 12.893742864217248 10.291292449880352 11.806035570415363
Ti 13.77094747576565 13.108089648616884 13.77034273419923
Ti 7.430417132358337 12.880307633476159 10.567401517321608
Ti 13.17910674490505 15.850496296678198 13.758474108386325
Ti 11.775290101828613 8.75378433843808 13.759243931845173
Ti 13.588775423073578 10.481947212385723 14.455734872817827
Ti 11.036074579920996 14.983784872721042 12.241751830973005
Ti 15.94906341718328 12.160358738548979 15.013765536130759
Ti 9.256314727481566 9.322178184979592 14.140098135746495
Ti 14.195436459777193 14.446106772930378 15.867110367421398
Ti 9.39134719743373 12.863080608924694 12.394768707146838
Ti 7.767417786692933 10.731972721852 12.446654451006818
Ti 8.20793223659152 15.127477913564256 12.09881625152008
Ti 11.051076003364635 11.357030664057271 13.796250367566689
Ti 11.489018150308448 13.931133897557219 14.903525012945373
Ti 12.885520663958053 11.970142963513725 16.547705081412595
Ti 10.829401430467932 10.14295407861809 16.07434757501441
Ti 10.52825422573867 16.390846826572993 14.342606122407403
Ti 6.943155706560292 13.054280708795924 13.227559569129678
Ti 12.342869091490133 16.29767792992588 16.187773586475682
Ti 8.809985957067891 14.328494009858932 14.605952867783593
Ti 8.49734205165311 11.621199929729782 15.012335213261103
Ti 12.18915779397096 14.127322466730858 17.58633223350128
Ti 10.256338397774133 12.572363972441897 16.940645106160797
Ti 10.031478302398126 15.300943147199293 16.7471355915955
