52
Energy = -348.10190745 eV
Ti 17.15774334888424 14.701554478749912 12.065851637015632
Ti 13.841325852642486 8.194292101915535 15.419731914360746
Ti 16.827941966404964 14.481007727831614 14.546966557756525
Ti 14.610786059617714 10.026295578114729 13.809940989774638
Ti 14.976343554310139 12.813460896117277 15.316015701646947
Ti 16.25124439583897 12.369121245965667 13.002418315927866
Ti 13.912584690292618 7.764292085029493 12.690423951196022
Ti 11.368488000088922 8.203929649734116 16.224856838764033
Ti 12.745156337875754 10.74225012578659 15.844683289067975
Ti 10.686415251551184 12.311829710122815 16.433376531074575
Ti 16.216112877991023 16.68068434803951 13.30578272794992
Ti 14.819998871680642 11.00845489523293 10.992925865945722
Ti 12.67936061612558 13.749260123643259 15.356879290803883
Ti 13.990833573831148 9.178228570071179 9.309626034757802
Ti 15.813678741692508 13.368963022416361 10.497918622826282
Ti 14.46802580665929 14.538892588883261 13.108691796609282
Ti 15.24626876088696 16.047019361611984 10.88842021435468
Ti 11.900547286604692 9.199738109756748 13.82165026243422
Ti 12.092327393565514 6.586594948465605 14.355186376199189
Ti 14.744050058959036 15.8926703606785 15.346167904212527
Ti 13.305465867539686 11.969759382826618 13.344467906096918
Ti 9.610616777391423 9.974375917620675 15.736005458734732
Ti 12.963158061125652 13.206123828313395 11.014321839264555
Ti 14.099333655404422 14.0262130257577 8.723109528367754
Ti 11.625537148646204 8.53910957107081 9.274418006189215
Ti 11.515010431648697 7.258758143543435 11.945362294247058
Ti 13.766721488504368 17.199183423403117 12.982411330308805
Ti 12.579215338846003 9.876365542350634 11.460730377741953
Ti 9.66770515237619 7.872172062074079 13.987820813893524
Ti 14.834088166551465 11.401577623498994 8.171612817112548
Ti 13.000665146078905 12.635018115114333 6.836001386634093
Ti 10.598385079959622 11.703699664108507 13.781270161281022
Ti 10.505029453108348 11.918663364141118 11.10125587388804
Ti 12.273522548775452 11.394500294196098 9.131899673152983
Ti 11.488810132837141 14.106243083285525 8.521796797123287
Ti 8.375624607422678 12.240373954250297 15.124974915694805
Ti 11.305968964901497 14.47055488180382 12.902315156675462
Ti 12.671310306893576 15.730746909735217 10.82046916384731
Ti 9.846423472106245 14.38447888137642 15.035233360510174
Ti 9.847289128079431 9.063039439771888 11.372637653542975
Ti 9.631685130979225 10.241646368806459 8.902116965186872
Ti 12.190538803076938 16.267296755800476 14.756460056550129
Ti 12.676795655770427 10.009499959327217 7.097247955540657
Ti 10.951358713912473 17.11260478221673 12.170134783387436
Ti 8.067662512490392 11.005869030951834 10.81615994479166
Ti 8.302548522957085 10.304206643484312 13.378480345821423
Ti 10.623156936742072 11.946464512394035 7.049460331001405
Ti 9.136691080402363 12.813709287785816 8.996349132837466
Ti 8.624906663115821 13.128726514913675 12.51735788797444
Ti 10.110226574663612 14.742008109806042 10.659395635055597
Ti 8.559570979805958 15.5476093561522 12.811267044436464
Ti 9.754103297231755 16.940805007449296 14.245906974059023
