5
Energy = -26.57240661 eV
Ti 8.309182878426071 7.4673310717786965 10.177995727992327
Ti 7.962950265203534 7.089193097876225 7.711162572013237
Ti 7.236228847689272 9.237891628665208 8.745094338449974
Ti 9.68939845113249 8.69117216214256 8.593598584146166
Ti 8.582566243369957 9.294738725358267 6.552475463219729
