5
Energy = -24.73432769 eV
Ti 10.451505234623934 10.51706192900186 11.137484741589235
Ti 8.89279569910088 10.429858377057487 9.121971517971796
Ti 10.634028045415638 9.27766449733417 8.887526684698237
Ti 12.42234996736861 9.435784147506183 9.991956162051984
Ti 8.189480352754181 10.851736775301985 11.340257941124532
