51
Energy = -339.61660561 eV
Ti 11.654539300410415 10.825059524512927 19.228450490528534
Ti 10.638581470679394 12.769779452543922 17.762004706194993
Ti 9.424357122614476 14.874320521197664 16.131119855387563
Ti 13.17631148143561 12.804585852133881 18.186489070382336
Ti 8.776183890134103 16.14642651237664 13.886686386846717
Ti 12.305994104748855 14.780816524519453 16.529410977917372
Ti 11.200975451599483 16.737279347669535 14.915792152414735
Ti 15.132359621082987 14.903538798730985 16.370162020605648
Ti 10.490547908112626 10.291141981561289 17.100244514002014
Ti 13.179448129984364 10.487858045608094 17.04964507158627
Ti 13.866946443479371 16.737767647398094 15.343915592462558
Ti 9.182586111594896 12.174438103472458 15.61944065774701
Ti 8.06420898682794 13.794474487321407 14.069596130382507
Ti 11.945577229669816 12.264408774279794 15.30742740288215
Ti 14.726501444860833 12.326155522007932 16.097374601615485
Ti 10.63802569339627 16.568183163891458 12.261063641123378
Ti 10.719360573982932 14.308667662614868 13.87024459901084
Ti 16.653542893741406 13.399245023367016 14.828940364023815
Ti 15.564440988557374 9.597251235250202 15.945562146923852
Ti 13.536369195907028 14.321153235919722 14.211807165996532
Ti 11.00158871748441 9.95975366568729 14.350878474671573
Ti 13.108855230947734 16.621269402613187 12.793459896456413
Ti 13.147771919152476 8.545086096537439 15.3441146419936
Ti 9.593395700963859 11.947659599963005 12.83770021273569
Ti 15.858583761614605 15.655137586747767 13.844259010424935
Ti 12.215389225924895 11.511511126710456 12.43284330022421
Ti 15.103238361848028 16.723878865281197 9.61936601799481
Ti 17.32711072684194 13.654035715880768 12.189942019366548
Ti 12.00716814915177 14.190193412141252 11.488100086338202
Ti 16.621210661131965 10.954982726291885 13.516277947159566
Ti 12.504560526151131 16.362748731939533 10.004575977193873
Ti 9.21426949459291 14.422570892351125 11.698784925143192
Ti 15.223826044688767 8.445473438951725 13.694780311887685
Ti 15.046846060264137 12.771820851423458 12.587606885154791
Ti 14.055028186233667 10.738272170837622 14.115906348585387
Ti 10.448720109336916 9.698130657579245 11.715308963543482
Ti 12.680470748823797 8.552781823733271 12.6885830532313
Ti 14.736739158600242 15.028549921552925 11.380191750656042
Ti 13.71540736285352 12.286564744754187 10.260659546876811
Ti 13.936899722054946 14.483993249406291 8.761857385795597
Ti 11.251739723330386 14.264065006529007 8.791480713624415
Ti 12.58746495652327 16.20011456064945 7.415437424735721
Ti 12.61047997747705 9.877966854618197 10.106035437201774
Ti 16.833024098511128 11.381469510073451 10.806034891545705
Ti 10.886298744524908 11.913683360515666 10.199989123282108
Ti 14.814716482291715 9.954293624936483 11.511803729592703
Ti 16.249119140839426 13.535973594683448 9.646784214420116
Ti 14.982034469671182 12.629229213303361 7.276590726721829
Ti 15.136759992338249 10.786467353655922 8.791353243546908
Ti 12.519182367768847 11.80689900318709 7.877396942700564
Ti 12.688318561244355 13.964957664020345 6.51786414004394
