55
Energy = -370.3929974 eV
Ti 8.399545297648324 11.497804752737549 14.692657094359937
Ti 14.968825010483334 13.070202628625092 11.251436791195355
Ti 12.744791607411464 9.516685527102595 16.185357137424678
Ti 10.73681272126019 11.206220442893684 8.840332536034435
Ti 15.227630078955704 13.091337939746257 14.026016437318805
Ti 12.348137309147939 12.770786241255376 7.047287276955272
Ti 10.380626465599345 11.109318104437477 12.682027719918734
Ti 8.75096568427199 10.712758295363185 10.411909444363394
Ti 12.441365170588835 13.284148121349102 9.665153241189863
Ti 13.231596928618377 12.065762757613193 17.33159180430573
Ti 10.656549632667211 11.530386304039984 16.32839680389463
Ti 12.672845018465571 13.560298097914453 12.641576382913591
Ti 10.239331303159128 15.548521979804834 9.756419779714289
Ti 8.121726766079737 14.960773767003204 11.30826771171685
Ti 12.934387255912872 13.881551124072809 15.381321501928737
Ti 10.070589008220976 15.883810270059001 12.696856933920474
Ti 13.255070035306076 10.785541821918923 8.202662753014929
Ti 17.048960886305505 13.032953765446546 9.934329963080547
Ti 15.16622536674361 10.746289842178395 9.66107334757293
Ti 12.441023686249276 10.98126841118185 10.989103486385345
Ti 17.711385674961818 12.662696733404081 12.626132892418395
Ti 14.66141025430766 10.851651611458625 12.501574026074287
Ti 12.696352269359155 11.226315332611206 14.399092307565422
Ti 8.545611409322367 13.22039838949117 9.4887088463759
Ti 15.202142219830503 10.951005618127665 15.894718587381291
Ti 12.72803963997247 15.253526892884661 8.09663408058267
Ti 8.830535533137924 13.500253366635857 16.33971396078652
Ti 14.847872805395019 15.233292284843255 9.875285115929774
Ti 12.492618230267432 15.734720218098577 11.077129956179194
Ti 11.117256111351136 14.04685240449569 17.390334594187795
Ti 14.67702803546532 15.55740532649222 12.758130836770743
Ti 12.328342357197986 16.203596057678737 13.910006890201318
Ti 13.684291411510744 14.719407057726963 17.75893760553401
Ti 10.56134457734597 8.966634593263175 10.948034821418474
Ti 17.151905480951587 10.620299157105118 11.205085654994198
Ti 17.4790833804654 12.339501051142491 15.267778781907381
Ti 10.396387066376521 9.475930458248556 14.64610999316734
Ti 16.91601321093165 10.253614391525337 13.827487468245558
Ti 15.709147240100569 13.635554323029728 16.632443746222688
Ti 10.409693516136112 13.911403648613073 7.842072865685732
Ti 16.925620821349295 14.984154927301518 11.653351017075297
Ti 8.118619500950714 14.302466585810851 13.885990209839566
Ti 10.239581737424242 13.363204975509703 11.343809341410353
Ti 8.396767250204372 9.582766349691434 12.69641003164865
Ti 9.972589419709113 15.718523556633187 15.479093959455778
Ti 10.471485040213658 13.40211525210845 14.233920696448935
Ti 7.754557462077953 12.239786421357389 12.140901561549873
Ti 12.276871052559013 16.297628979049396 16.502717268000836
Ti 15.392674006094436 8.687250216220948 11.715269466691547
Ti 13.306900482760177 8.7421455017529 10.15449057762247
Ti 14.737463272032421 15.868221575172065 15.50654135425787
Ti 14.681474428618563 8.882628868740548 14.381403084324395
Ti 12.531967423090812 8.966123175872992 12.840654393794344
Ti 17.081215345893693 14.770399568312214 14.367458811301251
Ti 14.703417099538504 13.166774934846119 8.153467047740978
