5
Energy = -20.66994223 eV
Ti 14.029697487118863 10.44892452791749 12.804283225812219
Ti 15.734210288574841 9.492048556562363 13.133609021860675
Ti 8.183911938078117 14.651853999323118 10.155826785884054
Ti 9.55014151525509 13.514629709826883 11.002465887339818
Ti 11.752625380847919 11.988898442519055 11.756227523940511
