55
Energy = -368.0934864 eV
Ti 14.369355807738238 14.801784312905596 14.361842834889757
Ti 9.206020999759081 10.036331049606556 12.612519984630516
Ti 13.22527435503155 9.222118484201175 16.38167837833537
Ti 9.87461871536752 14.029036128558245 15.02163613020449
Ti 13.836498554863436 12.864926301650648 11.598773426408602
Ti 14.60761531225992 12.898835856957092 16.17461623348218
Ti 14.090895251976924 17.407294353279294 13.926636957627196
Ti 13.811616533987928 15.827615639488926 11.883010538092455
Ti 15.906007704729369 16.771614516311498 15.619554206498165
Ti 14.32117983990343 10.916526231625744 14.360015771882951
Ti 13.797364058816145 9.892661635778042 11.843516756308837
Ti 12.04353153499561 14.192562365774009 16.346666173250547
Ti 9.817823254838347 11.553483087953108 14.916909398354921
Ti 16.172547059650988 14.233411916706894 11.294619596238594
Ti 10.632901800779315 12.893137952976316 18.014194849216217
Ti 14.00508711783122 8.301957611424625 13.912820233891228
Ti 16.122975247411425 11.432717950961129 11.275889679290662
Ti 16.908253579398096 11.293878050515355 15.503771588405481
Ti 12.139485870224464 12.888840266007938 13.863839417197408
Ti 8.805705608924772 14.242480300771854 10.315696150344126
Ti 15.75141471051104 8.912635708438387 15.674313119002848
Ti 11.786888159074392 15.79820267808188 14.124370713911992
Ti 8.810983180180889 11.543773936861015 10.245350150479354
Ti 13.420077541661248 16.48607639119452 16.451431895942864
Ti 11.753953928866643 9.962404836931515 14.052919246755373
Ti 11.539192502245028 12.912674337782896 9.430953849713916
Ti 17.005318073792047 14.365192916529564 15.445052581731959
Ti 16.04768296362811 12.830454322632885 13.536947994115268
Ti 15.718625631384244 12.879956853952097 9.331196108557856
Ti 9.624632793177662 12.925785833322989 7.7605665369496375
Ti 16.368804725635847 16.064502827896163 13.257229638777897
Ti 12.238220489630734 16.72897327670986 9.67936442727433
Ti 10.235891471154348 15.356108391182705 8.492832575443853
Ti 16.316449471354975 9.611186955562355 13.303817637586988
Ti 9.746251699632284 16.716493784832473 10.418113631482582
Ti 10.301524960320283 10.470159200343378 8.443734064572785
Ti 11.392212579367387 14.718321814517061 11.497591480814226
Ti 12.238217766089829 9.007376437064638 9.654960975622815
Ti 11.98979937458233 14.328379050525188 7.128931240758927
Ti 11.484139368192382 17.318609917194763 12.156621061717425
Ti 9.735090874206806 9.06582027987598 10.330122823385256
Ti 11.993850912099267 11.580487287936457 7.0699495475617535
Ti 11.385781226274771 11.040604729340949 11.451283819468314
Ti 13.761539490197393 14.652020924093314 9.40288504356028
Ti 13.991422345992174 12.935086459162772 7.4831305511838195
Ti 11.449820195415986 8.42630724197539 12.094135377939882
Ti 13.708805821672632 11.143391093603473 9.36592547164589
Ti 15.982525354356287 12.858697945917404 18.255144022907125
Ti 9.563937588950921 12.85951910929707 12.593127694496685
Ti 12.033126604127002 11.651101391699113 16.251708425526655
Ti 15.56498585976781 15.283185683427181 17.462156394787158
Ti 9.273591034159434 15.711423687624226 12.71200872165583
Ti 13.560600219423065 14.177817880889862 18.498223852928117
Ti 15.32140637787051 10.465993029078268 17.454315328433093
Ti 13.444665905980262 11.746249180532123 18.497565098221568
