5
Energy = -26.54625697 eV
Ti 9.934803106929374 9.416660065639563 8.971680689487455
Ti 6.715406200766884 7.315647613603 7.654804934751323
Ti 8.133557782120814 9.290385428362537 7.304112524587971
Ti 9.190831935336435 7.1656047750233 8.107875107240753
Ti 7.702263554530615 8.48856453768759 9.638389243932497
