50
Energy = -335.09850459 eV
Ti 13.1760422799938 7.563367784410067 13.660204831310011
Ti 11.495452079059717 7.3679512536205 12.09833885181897
Ti 12.887684406169203 9.471254873518301 15.584735780890203
Ti 13.692096311108777 8.770591529648689 11.114748210478702
Ti 9.145860889693289 8.511678969541764 12.307466897738488
Ti 10.623899459935057 8.402308506104548 14.463808503488055
Ti 15.121421501853558 11.115611164399455 16.471184053387333
Ti 14.816380330023511 9.54696968360371 14.012204171145587
Ti 11.03001209055624 8.987710756198211 10.275939068497783
Ti 16.115628859331544 9.7287140819635 11.806240709650659
Ti 10.803867116323653 11.066059127670538 15.392596396964555
Ti 12.565169182723535 11.474749808525406 17.366057453194014
Ti 12.156379275843728 10.009554108870045 12.882679703908508
Ti 15.154817265391141 10.294580827841536 9.333275816977253
Ti 13.015453964021184 8.944434033239071 8.429631678576538
Ti 10.812730225914265 10.237732613380068 7.758893701242518
Ti 9.051459566978796 10.124427074693358 9.943338028633798
Ti 9.72423963089064 11.325908376453508 12.344063788248684
Ti 7.248930858212317 10.168141869198227 12.003946659425344
Ti 12.479792569620555 11.199323465280187 9.762083034773228
Ti 13.563618452729893 12.130920734715577 14.809158036089748
Ti 8.394404760442619 10.180477699549035 14.375909912468943
Ti 16.12063986620712 11.640606114120132 13.711626852964123
Ti 13.997745048156697 13.479191796963192 17.22072323077375
Ti 15.749536955199034 13.60753876709716 15.506729644080234
Ti 7.315843663407448 12.375354800846347 13.13361604210117
Ti 14.238061011693688 11.714803774279737 11.681540642529301
Ti 14.974174792667162 13.96156164755946 13.024959334625338
Ti 16.586394363885713 12.285002712923625 11.071893067760746
Ti 10.206736285372704 12.807712824409355 9.787602610389325
Ti 11.542707224982056 13.648078460651796 16.23603048746621
Ti 15.02955699757154 12.635197770286752 8.915962349251425
Ti 13.272224207594537 11.323401739858722 7.293752008593857
Ti 8.572939780541473 11.549283142925251 7.891652100211563
Ti 9.276793274209492 12.893841284396744 14.649534241645965
Ti 11.745862150769442 13.179263018847664 13.433210412471725
Ti 13.400934292680745 14.96400554119645 15.071447774021614
Ti 7.702747425253932 12.453328218747421 10.402575115657747
Ti 12.412255057527146 13.951525378795028 11.067589416491339
Ti 10.951191456561567 15.560520107229003 13.832959546690976
Ti 14.90187932292499 14.642623048828007 10.484420091761146
Ti 8.46483123025935 13.925284706235825 8.032783802831995
Ti 12.920550412479995 13.845711796148333 8.463040739468752
Ti 9.328999467561337 14.030094511043758 12.279392470549102
Ti 13.264921397578421 16.042034633809735 12.456284700965133
Ti 10.78367381553917 12.85346377413015 7.100330648201385
Ti 8.553115403302682 15.087499767377183 10.22927876653642
Ti 10.816213181428022 16.21341640235106 11.227620268542365
Ti 10.676579080012587 15.304321399717853 8.607709641807876
Ti 12.923315645279532 16.20862840426355 9.794992590164744
