53
Energy = -354.59852052 eV
Ti 16.000949126243434 15.414285407193107 10.85862857264967
Ti 16.291709718641837 15.083276956499601 13.384551673254768
Ti 15.995744294547215 12.911457225875406 11.635919436930461
Ti 14.81517365203645 17.083966822211664 12.451637463220488
Ti 14.160955221196636 16.014704027820436 14.605437526533876
Ti 14.246467167484068 13.87022173120102 9.550108282810426
Ti 16.63775353833989 11.629474795667127 14.006761497550139
Ti 14.718183481763862 13.327313857013095 14.60197370968764
Ti 16.701556026789433 10.291307346804253 11.884233183483412
Ti 13.721955640515969 14.53802459457072 12.287652469490643
Ti 13.691262205255132 16.46223416305192 10.285574061016222
Ti 12.10244613175513 16.63703260260115 12.691669641454224
Ti 15.153067736227682 10.825942101327444 9.938156453400756
Ti 12.028082867276725 14.566626374257666 14.705427746299545
Ti 13.034438065695058 10.998577106824134 7.903200474201195
Ti 15.453259981222821 8.961674189474456 13.960265543487942
Ti 14.498563246268848 10.788640779947297 15.630557360317216
Ti 13.069544071499474 12.961690013232458 16.706572432698092
Ti 14.368516438303331 11.21942975237746 12.667230792821234
Ti 12.169342359993431 12.091323663279608 14.330709627366714
Ti 13.515566415147388 8.87079487988366 9.317127686376178
Ti 14.680857660591576 8.469269188617442 11.601141992994094
Ti 12.698967812554978 12.272248949219854 10.544320088655379
Ti 11.809882664963382 14.935999788084212 10.23704105255643
Ti 11.67064000959746 13.107835933671623 8.042713624908611
Ti 10.449295638534345 14.469942842951472 12.544799269587498
Ti 12.689900534315177 9.442551860349404 13.872671687520054
Ti 10.568993173632064 11.867529835766963 12.1233906735448
Ti 10.667944496003955 12.940116280372077 16.483267530193707
Ti 10.713332394315504 10.798765403543829 6.6092272836602
Ti 11.913987369562667 10.258954022664888 16.322561745764762
Ti 11.411964413597309 8.718224601699877 7.842598470386198
Ti 12.461145118480163 7.051508606845048 10.991632185947429
Ti 13.196107603442893 6.94996331540705 13.593884694227517
Ti 9.671086421866292 13.441574796162639 9.834354291769989
Ti 10.586435263273243 10.882449549624727 9.291305241775
Ti 10.009724944439029 15.76242645225407 14.91097484909559
Ti 13.678295628285728 8.242426076216617 15.94126000234206
Ti 9.43637933384056 13.062499754457487 14.464956247028491
Ti 11.90184620668412 9.673929609695804 11.315120732735645
Ti 8.678235648808144 15.735474366898583 11.160436845293574
Ti 11.204673742541921 7.856663028334313 15.276473839387785
Ti 10.168685043872808 8.016488925694139 10.081094973812077
Ti 10.545862406606616 7.666837675239262 12.79588816965033
Ti 7.852816068642145 15.120104672261295 13.601592545902456
Ti 10.064248417622553 10.129564993064449 14.247352292542734
Ti 8.876129218989808 12.183468272907955 7.5878256621364235
Ti 8.832381580430127 9.515394643597213 8.03435169711412
Ti 8.047030342058225 13.153339749976752 11.916724535494183
Ti 7.291274534909405 14.308074083679726 9.43770254550667
Ti 7.736632553563589 11.507358019722545 9.652164709104763
Ti 6.175131357447434 14.949489162395535 11.441923855639482
Ti 9.071199863871492 9.807739139800873 11.430099444162417
