52
Energy = -349.68623355 eV
Ti 15.434375197275601 10.813488096215389 9.227625179819743
Ti 15.151821123815425 13.451638298312194 10.0299053917866
Ti 16.948174837707793 11.97607075782881 11.111377206110934
Ti 13.767164881401984 12.56581140687381 7.734593367706814
Ti 14.279778732802212 15.324918616695335 11.377741488069583
Ti 13.119960448405719 9.894743149797618 7.778334356087323
Ti 12.49358680327687 14.550627238242543 9.37601270710996
Ti 16.02006620065029 13.904270573108063 12.671710145676164
Ti 16.105744042689015 9.597790399704543 11.445657966266548
Ti 11.860585752343658 11.538926284532453 6.258669159843503
Ti 11.663678849086168 13.979114564400897 6.754572504051851
Ti 14.586761613955819 11.698260170549453 12.448364418099992
Ti 16.68818192880224 11.17243684919598 13.619669497896405
Ti 13.637768813154679 8.60424266624857 10.685720660511093
Ti 12.454976997528416 13.24969619405065 11.721214157398407
Ti 14.958262591682994 12.905542015426438 15.206144905901885
Ti 10.93599861644442 12.31583453491955 8.705482472374655
Ti 11.864877590063553 7.821831094914659 8.733684820233755
Ti 13.60370712779437 14.805449412603062 13.858666971922315
Ti 11.890279046384313 15.947660041307403 12.285797332906451
Ti 13.132884467339762 11.264391678706364 10.113015780825128
Ti 9.924697273705608 14.812207632750855 8.172519602072303
Ti 10.386132560667377 9.695368775838467 7.444478606670196
Ti 9.328139120069448 12.43818183541232 6.8051477562563045
Ti 14.833911996260388 8.87807429576517 13.48944072921368
Ti 14.7205668629076 10.497929931387135 15.365819457765731
Ti 9.32723388320542 8.059941085330754 9.300516465521477
Ti 12.846591380253436 7.397437284403918 13.165491623038655
Ti 10.002125770738784 14.71245776519356 10.883381808295777
Ti 12.353633249357562 9.934253439052624 12.63204694612801
Ti 11.098600035067177 7.3195347038633995 11.23287570231286
Ti 12.83277934959267 14.165151795422059 16.29574009525037
Ti 9.319233515829595 16.142451793405936 13.063964461241222
Ti 12.476570898368898 12.085021179028542 14.532215223270775
Ti 10.96302807162818 9.779462182996399 10.287066293445433
Ti 10.57814554566104 13.89168611482772 13.539138444227145
Ti 8.228025494777125 13.281579351845988 9.278633998396662
Ti 12.51750293800729 9.190919773874045 15.240918859164525
Ti 11.026886346204746 15.761672212459331 15.198879901504258
Ti 8.579124598619103 10.716214868368695 9.197293338079435
Ti 9.853298925660582 12.131418979446416 11.052611225790201
Ti 12.750862628581384 11.648610410973145 16.887995989429463
Ti 10.37518175719096 8.358320807501489 13.79048685888138
Ti 9.936284026920209 11.175685824959263 13.342659797961689
Ti 8.82254399196332 9.141137938271836 11.764580626485838
Ti 7.965686193390551 13.855878485922506 12.615741520801151
Ti 10.370385974661847 13.221245199400405 16.31146120112047
Ti 8.581375290505589 14.845490973610707 15.06747091815631
Ti 10.198584103273326 10.557694227398136 15.83788540566975
Ti 7.482709703097837 11.328073123688066 12.281854377956423
Ti 8.091747566987902 12.311879116076074 14.911462394237025
Ti 8.067707032707144 9.720206596360514 14.304191629525276
