54
Energy = -363.36650293 eV
Ti 14.298440485611396 14.56722003249758 7.316542399139076
Ti 11.832925423297354 14.717790687048208 6.77995583372191
Ti 12.575514334811608 15.964745993279507 9.092934169294974
Ti 14.94576100074898 14.532370934866032 9.979770990208646
Ti 12.994776128974918 12.284001757928172 6.530330773832052
Ti 13.665869994448743 16.779657458441182 11.647668297917862
Ti 15.11870874268597 12.335796986468171 8.454712584742385
Ti 9.965042028579184 14.913666353029763 8.639148676931976
Ti 10.759208860243993 16.3242563830989 10.86858732939111
Ti 12.6977484681927 13.364905881648697 8.937470194778234
Ti 10.258185178151807 12.644458412719377 6.982430877220817
Ti 15.48185549408801 14.808320236294232 12.879895592720601
Ti 12.932156452808833 14.5138908616691 11.765871593789177
Ti 13.970043546478387 12.004936838643435 10.89719614728782
Ti 16.36065966159124 12.733084145064959 11.594370904518271
Ti 13.541487702119882 10.277730581572612 8.377586193888718
Ti 13.226783451885211 15.285563131877844 14.260170802074866
Ti 8.475597188013355 14.816666339451974 11.069212588758504
Ti 10.342726599866447 15.122521173088915 13.06489812443971
Ti 11.386742251908549 10.141668166680171 6.862431457581546
Ti 8.513219845092351 12.49316999322155 9.669651149712985
Ti 10.667086394745278 13.614964210845454 10.85491143599709
Ti 15.320378165830286 14.292108550624931 15.485665528420462
Ti 8.974038124476431 10.062252329634164 8.276417109478276
Ti 11.039745247722982 11.316294250757101 9.11893190183386
Ti 16.70307105510677 12.298966268271865 14.310083072637466
Ti 11.68531588761834 11.245368371013665 11.675683800567809
Ti 12.867194669334417 13.514372416528639 16.13304010107159
Ti 14.903723785058673 11.936440447797297 16.384253175506085
Ti 8.940833308054875 12.603334811724732 12.687456515525042
Ti 11.57308929172302 13.027104076813393 13.73994271648681
Ti 11.362098790702529 8.691576766338141 9.164760118244914
Ti 9.085906829767426 10.289487642127723 11.002724810695012
Ti 14.164829252093941 12.48622173780115 13.809967050738377
Ti 13.338055486421215 9.121580967605716 10.848509516341421
Ti 15.700838478389674 10.466729177093807 12.466669856410602
Ti 13.170720233756201 9.71718999224648 13.315277443230752
Ti 9.840877580814183 12.517213443947597 15.45324681646057
Ti 12.334022630041495 11.006802233645482 15.556995684483933
Ti 8.984425506120726 7.763619998559588 9.474468362195095
Ti 6.933926760312948 9.2622171794848 10.278817899697438
Ti 10.914871629874868 8.64894599372134 12.027737717481848
Ti 6.753264116178917 11.737889418928601 11.659836032397797
Ti 10.170689777439922 10.386791472885891 13.858632624533072
Ti 10.71027736495911 6.404642245864599 10.934382929075941
Ti 15.208867138042395 10.071429734120207 14.917827483732845
Ti 12.785569926324943 7.043047042410346 12.81839734035521
Ti 9.799865982119236 10.012568272219811 16.382476023883445
Ti 8.294331226531671 7.382994427100914 11.928255492383675
Ti 7.799964812781258 11.045743369521528 14.834809936818397
Ti 7.14192865680535 9.508574756992216 12.915755586824721
Ti 11.572576719937974 8.2289640717403 15.00783435804651
Ti 10.326088044214424 6.4863093567408345 13.504681913523756
Ti 8.723581689849816 8.317340019052851 14.636220365721645
