51
Energy = -342.96454356 eV
Ti 16.644199108378317 11.674272515391433 11.163559111299156
Ti 14.6399019982718 13.923562765526492 8.381869130029633
Ti 13.612267396424762 12.373997220305132 6.673417300502123
Ti 16.596269375649406 9.320284785370928 10.039476774103244
Ti 15.258413482903205 11.2718080212129 8.587141598667248
Ti 16.22220394604203 9.39410930572894 12.553100109225197
Ti 12.033107310056213 14.369909579520042 7.557271295970463
Ti 14.987842402059437 11.644073355534719 13.350831644475642
Ti 14.440907532428518 13.315138275848836 11.122916633348192
Ti 13.184144185836344 15.344747132897176 9.739986255012253
Ti 13.034187405510973 9.90938873469191 7.374044391457261
Ti 12.727278626279059 12.205017018397836 9.160425704614923
Ti 14.396273217964959 10.480019521063412 11.040226278946239
Ti 13.409000358323606 13.86568140862101 14.010598510960486
Ti 14.783878515327054 8.556415417794186 8.549381742897332
Ti 11.043378415175948 11.690730773919249 7.021923122556491
Ti 14.701854963287634 7.6239248645712845 11.0007140260634
Ti 13.669046599144094 9.025627340407198 13.225301928686399
Ti 10.974381398538881 13.855182434338928 10.12566918160729
Ti 12.621425821729451 11.100085574441035 14.764448677106696
Ti 12.400179000951383 9.35284909456746 10.022066941364129
Ti 12.052367934957905 15.057360036166276 12.24182141210802
Ti 12.248895213449762 13.275180169466207 16.24608361962672
Ti 10.464433001592036 16.007435920233046 9.654090905255176
Ti 10.98224219327034 15.36910433918678 14.855530048714211
Ti 10.809603478538392 13.095848312917193 13.944399667037324
Ti 9.498155512965058 15.15054901682984 12.266531288334537
Ti 12.555397944891352 7.148217136721234 9.128546325149514
Ti 12.396570230807923 12.143240097558172 12.07502983521784
Ti 8.163856439676215 14.344085951560409 10.322257198285408
Ti 12.161142895241532 7.410677928791462 11.926551152491362
Ti 10.44404297207638 8.880351199569434 7.776362205233541
Ti 9.747769630105488 13.644190876192685 16.463160659223423
Ti 11.144273954198546 8.929022675381246 14.99500934640977
Ti 11.073466265603251 9.782867533018907 12.333344823816688
Ti 9.190720593402686 13.285603214537373 8.174288585809045
Ti 10.036656221257006 10.78251340430623 9.53870554455776
Ti 10.587124024467954 11.140459402867641 16.59711837275062
Ti 9.480189509349287 12.423671778698903 11.574924778852484
Ti 8.369253658470408 14.234860311456984 14.433839983303228
Ti 8.557078706646514 10.85903449764524 7.339025245271293
Ti 10.101669782815469 8.02658135013864 10.375261829215635
Ti 9.453112716274656 10.858766466565987 14.075992223630433
Ti 8.702259354631497 9.300380389389666 16.01459357509797
Ti 9.099073498866813 8.271692521076314 13.546471782673597
Ti 8.067057381222185 9.079040346820582 9.067608278897007
Ti 7.460017546862378 11.675750400458151 9.643149053813328
Ti 8.190288288982083 9.976572780380375 11.668675239265529
Ti 7.805109961617552 11.918177615729576 15.758915240159386
Ti 7.342889463205514 12.307563629320123 12.930091073431939
Ti 7.010292584910147 9.89952757750414 14.1434023681133
