50
Energy = -335.38577903 eV
Ti 16.104735980038175 10.489890867145512 8.646178036395947
Ti 14.122822330853854 9.768968018152492 7.139685824637014
Ti 14.599877290884614 8.572832112091538 9.50696858875156
Ti 14.714031705928697 12.442134484871161 7.345772486429934
Ti 15.456522555911947 10.608008087026354 11.29900643498758
Ti 16.297720516990747 12.829734889432222 9.725134400967262
Ti 12.878990094517894 7.322319443476389 13.146261988994567
Ti 15.499110276984457 12.997695717175802 12.431437609316816
Ti 15.554068893539625 15.140183508914145 10.94091737899196
Ti 13.580689497678211 11.069053918671717 9.331974585473624
Ti 14.88051695687728 14.752236572443024 8.488523586245366
Ti 13.556446055531497 9.69576441811669 14.056521836625341
Ti 13.08840248949504 9.21847244991715 11.303377909265715
Ti 12.180108437482136 11.359978924871918 7.000504933211338
Ti 11.800958665503938 9.186002318899998 8.824309023203627
Ti 10.300708395962069 6.936467979979149 13.023935347931271
Ti 11.732522671009995 6.911421456462973 10.667450908394848
Ti 11.41137618800085 8.36528294987057 15.006038560291818
Ti 12.390852319296844 13.881490124995295 8.089208110177694
Ti 13.710663672262287 13.371236910163798 10.49153508911526
Ti 13.02642859788107 11.683113617166947 12.43315352348617
Ti 13.416422090291993 12.877175686222403 14.836394873969578
Ti 13.044345914182262 15.814068648056901 10.025300506352592
Ti 11.08720032577682 9.726398162984815 12.788242731039924
Ti 13.40231885495175 14.8116651327938 12.688019510626052
Ti 9.167217619378265 6.167828426171112 10.702849707045182
Ti 9.761483340851045 8.822203210846517 10.699048568301302
Ti 9.87663917059146 7.241248448140714 8.544950887152757
Ti 11.185292253084322 13.37738529222927 13.42843103393696
Ti 10.057154784430834 12.406152434576299 8.147312177821869
Ti 12.155272861052849 15.280869718744643 15.03423087136123
Ti 11.432439402725974 11.012775244368278 15.071026469579564
Ti 11.122576222812377 14.19378653593841 10.739461261308579
Ti 10.849983005086933 11.42297505076602 10.294677242119308
Ti 9.337608383492684 9.743906308337168 8.163822724976239
Ti 10.951101474865286 15.978355249545743 12.836690511049701
Ti 11.162992724081606 13.308252800701952 16.188628083656408
Ti 8.91970617345933 9.437764642500124 13.999938501386938
Ti 7.782069854975167 7.639958478584635 12.237094167596277
Ti 7.549736301621726 8.001825858609779 9.594790942165162
Ti 9.08692347017872 11.990559495826467 12.499137336780215
Ti 9.447325715111566 14.804276089591468 14.868661113820705
Ti 7.524908622949613 10.067058868348994 11.48555529039489
Ti 8.714266339744855 13.73362114471984 10.001497711491382
Ti 8.905936171576279 12.045893974714327 15.372319321304827
Ti 7.953196215809175 11.512826227871907 9.444689861070936
Ti 8.608203757800881 14.840955797060102 12.260017344842396
Ti 6.872299572567594 11.099014019291102 13.784243093902221
Ti 6.735576136440213 12.779457734681024 11.622920538122438
Ti 7.303376098894071 13.560578999348369 14.043277905345729
