6
Energy = -30.68646084 eV
Ti 9.73481360562123 9.553421421194008 7.872646436843858
Ti 7.95355324742235 8.706709017312372 7.153037605336279
Ti 9.948466564078899 10.06148518849645 10.556144656598516
Ti 6.218356736446376 8.365052009401136 8.271615238170096
Ti 11.025016500570791 8.42808019823396 9.76162146966294
Ti 8.379331327951368 8.144790147453085 9.644472575479323
