6
Energy = -32.73890594 eV
Ti 10.031645384135233 7.735807737774543 7.714990177662349
Ti 9.346366299388288 9.694164386460134 9.191134392551364
Ti 9.779180747775387 7.465896765850722 10.249022283532517
Ti 7.741408566787385 7.6356068562414965 8.82300806955322
Ti 8.155659086628198 9.324449521690388 6.9700035881359765
Ti 6.846019764639136 10.021743808514058 8.927981943854693
