6
Energy = -32.7504506 eV
Ti 10.104246148915186 7.657140197545192 9.60204048282385
Ti 7.878699776397976 8.993948043295775 9.569380215782061
Ti 8.279914210661046 10.596198863446087 7.563148022067435
Ti 10.087954232667238 10.239836294928216 9.384557802237453
Ti 9.410510307843383 8.556533206422126 7.518374135356377
Ti 9.419587587595597 9.13725565844316 11.543411605813374
