6
Energy = -32.75248024 eV
Ti 6.081148050163994 7.453631515702438 6.846585431453814
Ti 8.598093327971041 7.329647304706082 6.725386438163165
Ti 7.444063428930903 9.549176486942544 6.476226906150941
Ti 7.20958833880451 5.149329899528288 6.651153124451548
Ti 7.375522426067494 6.195248004299103 8.734029875222678
Ti 7.4934504165174705 8.524832777277336 8.768484213013526
