6
Energy = -32.72591467 eV
Ti 9.784004622947428 7.939809608623154 6.63399214932864
Ti 9.716601993265208 9.101396144897985 8.924151824919608
Ti 8.727774437677374 6.726893668183059 8.4228546066011
Ti 7.576548697835908 10.357532081305157 9.604241356607542
Ti 7.658941818714398 8.971253561846336 7.512965600807139
Ti 7.599456488849928 7.9664429944343125 9.965122521026226
