6
Energy = -32.63639909 eV
Ti 9.228810133235712 11.149214889345425 8.787222383464064
Ti 7.955672410858041 9.216708708205145 8.188076051767911
Ti 10.060534825748746 8.156833958350417 7.57137820665596
Ti 8.835057640170849 7.271490916964642 9.659177373287772
Ti 8.1218024919899 9.759070310247363 10.630162621273609
Ti 10.428921142564691 9.130698088292732 9.83013984665177
