6
Energy = -32.74447797 eV
Ti 9.135373644190985 9.175527669004802 10.852796378820042
Ti 10.530933943967323 9.654010761933545 8.727610284328286
Ti 8.028120321867187 10.067749746511629 8.866600090871085
Ti 7.001349917768968 7.894176695850331 8.43810627444554
Ti 8.945716839795615 8.695528317805357 6.933244911127715
Ti 9.30513390979786 7.461289626459118 9.125411212276319
