6
Energy = -27.54747523 eV
Ti 11.045064302178535 9.128290953543024 11.521996368888388
Ti 15.034428350292357 15.418998145617893 11.40751400062541
Ti 13.625965808848795 13.976978427269875 11.467230776764373
Ti 9.080113465988246 8.537326668096208 12.225767372219254
Ti 11.478977192196039 11.531515574337993 11.311032568510711
Ti 9.22470350751083 10.553503494277315 11.455878136462223
