7
Energy = -38.88493984 eV
Ti 7.212416608939203 9.711037407224273 8.761481122186488
Ti 7.775063230021235 8.19252007404082 10.624256939698348
Ti 9.314754910872912 10.174239426693157 9.926768631919824
Ti 8.77707573135155 9.3340703199979 6.938460809678702
Ti 7.417085950546832 7.306028365430118 7.886149032491261
Ti 9.673089834796198 7.8810265354918885 9.013844646076993
Ti 9.578954424593077 7.14951856224285 6.597479509070021
