7
Energy = -40.07914173 eV
Ti 7.225576950661034 6.8291413330624735 8.51626433044577
Ti 9.184126730304298 7.18012431252257 10.04507895263016
Ti 8.918239661083023 10.401748671693154 7.58889258470706
Ti 9.383014666131892 7.870230615751212 7.573401863191574
Ti 10.230417692373424 9.387897563286417 9.471601106793779
Ti 7.664845989835156 9.177604370757054 9.474269073149502
Ti 7.0610643892949945 8.82053913292737 6.997778089082035
