7
Energy = -39.94352662 eV
Ti 8.94929644750033 9.889505611963534 9.673270046549401
Ti 9.490516273977024 7.425626270187446 10.360949661405014
Ti 7.009610473494524 9.646400715125049 8.038647481855202
Ti 8.730054953006489 7.766331439973126 7.885971399410952
Ti 9.308306772682407 10.164630410083314 7.136411533118949
Ti 7.228396866557049 7.960026956212179 10.006973562373892
Ti 10.941274349320535 8.804934732993322 8.555232451824924
