7
Energy = -39.9430754 eV
Ti 10.860143654808066 10.19203817773587 8.810344511392435
Ti 10.151372445024782 9.208171464392594 10.854310504555745
Ti 9.702329536103656 7.859912114847522 8.67370750401502
Ti 7.928727618912163 7.97281575859299 10.50277747635665
Ti 8.31845831216086 10.194566525108245 9.289667745760221
Ti 8.988583657013667 9.529870992831349 6.921259607332221
Ti 7.204134582802571 8.19637477331719 8.101682457413466
