8
Energy = -45.82210605 eV
Ti 11.841337719761695 9.88328676041593 10.376023483752283
Ti 10.462897971501857 8.08021223008804 11.188328915064053
Ti 9.18297724647647 10.3660567372252 10.570747751472068
Ti 10.898415863228841 11.405129301382182 8.779627314991297
Ti 8.360851124778764 7.7909184304835115 10.509491154440497
Ti 10.011354191740631 8.867744484158694 8.657103331228416
Ti 8.810153757092365 11.206873228067884 8.026442101152906
Ti 7.400901239647759 9.361157009021335 8.866257129124081
