8
Energy = -45.96909983 eV
Ti 9.686494510858111 7.050789081837365 10.278167723039854
Ti 7.38233722499912 7.634490073616556 9.065457626283827
Ti 11.243658576108334 8.964296427450284 9.830301252382135
Ti 9.570380131070419 8.250189370896134 8.041365944621385
Ti 8.867464598977786 9.408712272214455 10.512136965006418
Ti 7.681203507908657 9.433947072738778 6.779047775208829
Ti 9.882621528260817 10.703819436830702 8.350196606092787
Ti 7.376697408557308 10.227409358930819 8.841179127062036
