8
Energy = -45.85099486 eV
Ti 10.433560875564567 8.769643970227836 8.325610542795602
Ti 9.60951700101182 7.844925108153205 10.472995768162612
Ti 9.368210429748343 10.380590314892252 10.231162082350412
Ti 7.514601794054711 8.233703728616272 10.959456515964382
Ti 8.402205213546173 6.936621910643896 8.406774511719856
Ti 9.372757801773558 10.945758620963495 7.690320209760949
Ti 7.676307570511246 9.339302121994661 8.629803470470309
Ti 8.798032104724928 8.722630438805169 6.462193132773379
