8
Energy = -45.85483188 eV
Ti 10.065617228081567 12.212195716298721 9.716246870097077
Ti 10.303898948737672 11.64671144800636 12.394546732146308
Ti 12.134716045174592 12.726638727524 11.115248933901658
Ti 12.721553636249062 10.447633564887246 12.14055652159073
Ti 12.971053045778186 11.578979470497599 9.453297213415837
Ti 11.099125455548188 9.98099212078006 10.241015025041667
Ti 8.720290200129126 10.309303985533985 11.026717522130665
Ti 10.489556890385384 9.146400602396932 12.538925337459123
