9
Energy = -51.60388809 eV
Ti 10.636639250111195 12.310630626665706 14.582401780358511
Ti 12.960082806578688 13.292854788698598 9.908240925808423
Ti 13.101422377738972 12.147765519588308 14.212144400698472
Ti 9.477478108566944 12.014925293193027 12.391858033689797
Ti 11.317382674842799 11.21825178300526 10.492538771381192
Ti 13.548841462184882 11.598457410807642 8.903764233240333
Ti 11.731787133274128 13.182497186717926 12.343191853012916
Ti 13.582464986048809 11.298213822595276 11.6435371531693
Ti 11.516180047058038 10.517364585106376 12.966398337107544
