9
Energy = -51.77777679 eV
Ti 15.684032804167577 13.528927838873647 13.030773445246119
Ti 13.091709138093304 13.910540998359739 12.722152668515788
Ti 11.405507086433891 12.305792033631201 13.881470239553185
Ti 11.809047882122801 12.76116239347487 10.783696745599558
Ti 9.88838830080307 11.618214410220316 11.974311633202769
Ti 10.160190633659223 13.992844326282137 12.362780054035026
Ti 14.083973395760871 11.785124324235523 13.862391953996752
Ti 12.44024642061983 10.683565619866146 12.163888160257235
Ti 14.422945187221627 12.172771311879002 11.32546241354822
