9
Energy = -52.49187538 eV
Ti 8.411529337010288 12.028433907922553 11.38554556144393
Ti 8.922150409193728 10.521507990605715 9.399277359125538
Ti 9.137731871409683 9.419116070324133 11.774029755345063
Ti 9.740784050894408 12.931591079097837 9.535879965055074
Ti 10.69341344471067 8.744183828454561 9.793846087764804
Ti 13.043652763874364 9.62324417335102 10.321468942400202
Ti 11.77906073194685 8.746498490797416 12.117494155587025
Ti 10.986053245117446 11.12037099978281 11.161855346345755
Ti 11.382379548007183 10.961808861828832 8.607358229097107
