9
Energy = -51.68325453 eV
Ti 15.196576967998624 11.354522615509358 12.976631635325877
Ti 13.92292193368609 13.104704979238267 13.242318630088876
Ti 13.929618252373867 12.156102571119682 10.757527166036782
Ti 12.01277429127196 13.584790818709314 11.764283934142364
Ti 11.329438795937802 11.711728407273833 10.217134525919331
Ti 12.641389130114469 10.794849771034619 12.402481408050505
Ti 11.298942708703713 12.574376825153118 14.024664296344865
Ti 10.116644613157218 10.999188262610945 12.421502452091989
Ti 9.546608659238407 13.146623495190758 11.850082458519394
