9
Energy = -51.91682886 eV
Ti 9.781085963871762 7.025474778603611 7.91479022341578
Ti 11.78264128123369 8.360601110564637 8.158240753301078
Ti 11.306035139384075 10.432832478958446 9.320705400578928
Ti 9.460425929209801 9.589596409882338 7.692342644414074
Ti 10.008660519679571 8.342097785313014 10.1503407526976
Ti 8.761714341108872 10.652504268884451 9.973010065333012
Ti 7.673124449994153 8.177287776961801 9.001336465169336
Ti 6.498907871417147 10.374458230316618 8.937526715530852
Ti 7.004204848274642 9.321947504689057 11.128507323732924
