9
Energy = -52.3695912 eV
Ti 7.68376394251663 8.056065953212702 7.690375174884602
Ti 7.109851645718083 9.045428526821748 10.077886666842497
Ti 7.153883232788422 10.604828030738245 8.083387458989488
Ti 9.542214609180231 9.745122554907399 7.407406663952773
Ti 9.598134370545825 8.276817199085889 10.209924296080297
Ti 10.201622787006091 7.2229824260172215 7.9633633904695476
Ti 11.318985954505898 9.457829768615921 9.005982686353397
Ti 9.032302879705302 10.789637255062312 9.78407725626531
Ti 8.089597078033625 6.531644705854874 9.507952826478139
