9
Energy = -52.3230106 eV
Ti 10.083107618441012 11.144689726386803 10.164696687444925
Ti 10.571350351734456 9.407232292998495 8.512360316298539
Ti 8.64787136903273 10.976452763904053 7.902022899396379
Ti 10.183356871877242 8.587550459087664 10.984635386439608
Ti 8.064121335473798 9.761282100419793 10.163999461242092
Ti 9.156098704696266 8.656468469351655 6.50408328915749
Ti 9.560679285553778 7.15527675455716 8.869540929807126
Ti 7.427882711129557 8.650565736585486 8.020157773305746
Ti 7.867433332914828 7.212380565544618 10.422389368470334
