26
Energy = -53.25836743 eV
Ag 10.785703804241065 6.9150827126385455 8.994578838470735
Ag 9.104717100120098 6.811411834554811 11.258499238357015
Ag 9.234351865982738 8.492755573031861 13.502852827163464
Ag 11.258422290691845 8.462589075904663 11.59043418093431
Ag 11.505789390300434 10.24370814659874 13.914283703121937
Ag 13.078328948867183 8.631795966353597 9.46170096075786
Ag 13.428365346710786 10.231185139953121 11.78738100007624
Ag 10.741348123833752 12.659956562864336 15.104486141314878
Ag 11.936347330461908 8.52996911054094 6.923912188245664
Ag 9.17411816194048 8.640267770980367 6.533094441094124
Ag 8.100216464453775 8.041145633011132 8.971714504882446
Ag 8.418967345995082 9.75658282263011 11.176317989101449
Ag 14.959979094208874 10.723835102941436 9.5497562869034
Ag 10.390034840912566 9.656417581467851 9.020623473543973
Ag 8.889227836202977 11.345894236172766 13.483438768920985
Ag 10.834566487360114 11.254694776093588 11.313685646123457
Ag 12.611173897064436 11.119881792197512 8.105274304395387
Ag 13.034691488939993 12.7061938754202 10.313310184320255
Ag 12.70993574340634 12.73416382165108 13.152277225838331
Ag 11.526011258383928 15.122710331251183 13.969208875638534
Ag 8.055068437443564 11.147730274901043 8.704565425532069
Ag 10.13018976029354 11.209525401810009 6.695282215387355
Ag 8.374806571277047 12.735214137464654 10.972107381750305
Ag 8.960079355624995 14.132728488805386 13.45017262145802
Ag 10.409149412242492 12.769584344341919 8.976121428356251
Ag 10.873829659024508 14.153107135856859 11.447702234563945
