9
Energy = -15.11744200 eV
Ag 10.85176424966209 9.265982965654485 8.179620418108254
Ag 11.2912642800834 11.556502739648316 9.65810465934522
Ag 10.595094022365464 7.029749476226444 6.701561983175124
Ag 9.775995007443075 9.334892130592552 10.759449309772132
Ag 9.352976830179395 7.107711559237781 9.075151226531323
Ag 8.76037955052676 11.055789106551584 8.752190820840866
Ag 8.056358410849464 7.113318010268192 11.499393547972584
Ag 7.256344842065339 8.900024628830613 9.580089656317332
Ag 6.290254045243369 10.632441642276234 7.77445103144039
