32
Energy = -67.00589411 eV
Ag 13.724723468158693 14.793156948453776 11.458730681286367
Ag 14.18268363597077 12.005907970429321 12.486476331649591
Ag 9.809140009099492 13.94568189713988 7.863862266382931
Ag 13.885238566214941 11.654540908501577 15.328641096357849
Ag 13.975343491032756 14.435468988442235 8.690076835391906
Ag 13.60154304523143 14.17705829319637 14.195412611410042
Ag 14.376687068978946 11.894220984610698 9.684915311791576
Ag 12.07796730160145 15.07090464587482 6.761723722171149
Ag 11.880456162221643 12.73895099968235 10.742503522159787
Ag 14.464206368009313 6.989411807914966 12.349012930517237
Ag 11.449616770744955 12.531691607962193 13.575606023111181
Ag 12.194884719038246 12.43298260529515 7.762660908556692
Ag 11.53200999324075 15.406303129286009 9.534700440059064
Ag 12.310159734801678 10.008743051328327 9.15595371750154
Ag 9.229288209357593 13.945577104199467 10.570304931799376
Ag 14.558767123885808 9.476355543519306 11.00162879644224
Ag 12.369417165233875 7.612738101707926 10.618560251011269
Ag 14.213477942659395 9.393056050784063 13.832045221924389
Ag 11.036149505314755 15.17631536723284 12.277471126667308
Ag 10.06089706652164 6.667415770737587 11.98196386631121
Ag 11.995965158746614 10.190105455939172 12.060538216065934
Ag 12.908601719472067 16.717898136074236 13.487688574995609
Ag 9.840163089200832 11.486350140965753 9.17085409642596
Ag 11.08363413553567 15.117907975956783 15.088722226422902
Ag 12.076866998092026 7.6278105172253925 13.57706014125319
Ag 9.931116911339023 9.049086254257853 10.497929151538184
Ag 9.303985828302723 11.449200660927419 11.933657001796245
Ag 9.606350124629621 9.030989646044043 13.362863078596634
Ag 8.889455138405946 13.834655532338463 13.409557014608765
Ag 11.40196945135838 12.652130607999883 16.360034882705296
Ag 9.201658620692369 11.371045247852908 14.83784334846338
Ag 11.656214426212353 10.025197021672962 15.087909752895207
