47
Energy = -149.29927234 eV
Al 16.213955060627896 10.802407377669365 12.206462367476906
Al 15.646757057926495 13.186907803028745 11.136522264901599
Al 15.884445638140258 11.107203888779997 9.389004579779646
Al 14.890761374060363 15.08945415242349 12.898139654374058
Al 14.745823774772166 14.269771459391531 15.44969165752469
Al 14.370270055195434 12.250370206295635 13.729097452110699
Al 15.078133905704446 8.855955669437368 10.586221631939678
Al 13.939936125486547 9.498310625165727 13.248625387132693
Al 12.440945589653968 10.477513742702603 15.341888844257689
Al 14.508873797391447 15.450102000898573 10.046043919522557
Al 13.609961068616233 11.326114694903419 11.202006073440334
Al 13.968546008882791 13.026510634564488 8.948363932835905
Al 12.592385535603068 7.793095594444682 14.98825637495264
Al 12.750898923077719 16.569239767410412 11.854762660254734
Al 12.461168532146047 15.104476912795896 14.21147492977435
Al 12.284021882357557 6.761675259973158 12.495469159366488
Al 13.306251287739356 10.195456785860753 8.647503133519844
Al 13.600204092678014 6.698042459770507 10.17589114670574
Al 12.803214461574205 13.866980833347789 11.54638082369207
Al 12.410350216863016 13.02150721154335 15.961908259495551
Al 11.52616038603818 12.224128514041967 13.237698772054134
Al 12.419917951841104 9.016159958251233 11.019292937535962
Al 11.874556117969858 14.884417774595613 9.151334408219872
Al 9.950938902177823 6.831199212646803 13.8751547870026
Al 11.10971922208328 9.277777887129842 13.30350175627516
Al 11.529487156013193 7.6908659282213545 8.832498364922985
Al 11.540896828183605 12.251147063884238 8.009724115160378
Al 9.63275670529336 16.138764764900998 8.241126447117823
Al 10.544074581730117 10.316391046755712 9.647944227191498
Al 11.114179890643571 9.638557587988554 6.992368450699393
Al 10.422175808615792 16.828321422648244 10.62100597859426
Al 10.006009960994568 13.843739263956463 15.00086766435768
Al 10.530342027955742 12.886813771391264 10.61228209530293
Al 10.106507606079585 8.707271725427423 15.781810804494057
Al 10.357385390391537 15.102185586850501 12.647356347377361
Al 9.51891150517613 10.886048350721836 12.01280210397708
Al 9.861958591000814 7.881443423315644 11.179374021299424
Al 9.496620997050593 11.157896929034736 14.831859816576683
Al 8.985191155365671 8.398258866362475 8.41446679381213
Al 9.225246729687392 13.560399601579142 8.25568361654576
Al 8.788600591881846 10.944169280492606 7.639362498006284
Al 8.283353314332553 8.868268740631017 13.378449999121724
Al 8.571178485722456 14.819990984933728 10.568438954868402
Al 8.431702139834663 13.269768614275813 12.819641073503284
Al 7.68265330644075 9.506762116153716 10.513529235756678
Al 7.7796415679471265 12.255103814803714 10.236558390627073
Al 6.808347531870022 11.06846952941639 12.717570927360342
