47
Energy = -148.96393158 eV
Al 16.464180061715396 12.259106415316307 11.963196914579399
Al 13.986121536783926 14.214668368694104 8.604279384524869
Al 14.281159006998315 13.803682207181717 11.39259270233906
Al 15.033186520985717 11.913440381256367 9.58544386185975
Al 16.326557014367715 10.344890554554722 13.86708658877275
Al 14.206031086841286 12.189886586105057 13.532990096527184
Al 14.733564624910276 10.141852724346748 11.62583204992403
Al 11.874750688455816 14.390958974920128 10.293564972739414
Al 12.36297030600698 11.542150665137468 11.266072778362076
Al 10.92343470688762 14.04045655418031 7.581796002369307
Al 12.40678291581274 12.00659722165172 8.537706633474235
Al 14.277448979316631 10.38600791418165 15.678435141569796
Al 13.622938444397345 9.712101113972587 9.246178983512227
Al 12.081218155429957 13.818593441007494 13.044386506041366
Al 12.73900293496663 9.847088345465652 13.4389380603819
Al 14.853810770718491 8.09807445185909 13.464903127100975
Al 9.462996148008177 15.318924226067027 9.526602853698202
Al 11.883207761153924 9.683387337852368 7.025070551382982
Al 12.188322692479845 12.000681413147333 15.283690804246795
Al 11.873819854603099 12.183630088510405 5.805401090526405
Al 9.838877178752394 12.5677468474012 9.680187002859595
Al 13.768498760067345 7.657090689776389 10.98191771367482
Al 10.829991083105469 16.245392679679703 11.914315623669928
Al 7.936484710632898 16.07450084412664 11.580100165837877
Al 9.644736403975347 11.480458641895357 7.048728177537175
Al 12.091833429053317 7.606261244009371 8.725396462842092
Al 10.0656839917588 13.402835391308141 14.89653524077919
Al 8.112387373578084 13.587186203088724 7.673076641671659
Al 9.569701676800342 13.765990868327634 12.044983759330593
Al 10.701223081374478 10.106299191648061 9.457955089492339
Al 12.894538296465031 8.08082043902788 15.576521424836747
Al 8.964811028675346 15.69451643212383 13.966224000301828
Al 7.202615779209401 13.638767663287522 10.121126310489801
Al 11.664010007637637 5.897966584858368 10.832726029118064
Al 10.39118514124391 11.20425143720362 13.13376533310529
Al 12.414824410713413 6.843418873225376 13.232251867996155
Al 11.218340265823995 8.707357908045815 11.515875753693656
Al 9.111044074124157 8.793885468778031 7.669069145502668
Al 7.6748939536520355 11.014892602795623 8.8803669458829
Al 8.093116429896495 11.559489042413599 11.587540190897998
Al 6.923160566946958 13.86122620557048 12.7355914639034
Al 7.871253546285621 11.959993557247287 14.24788338578667
Al 9.57573905420725 6.924970959940327 9.620192234235562
Al 10.511154846048582 8.578131775205925 14.305431480960031
Al 8.521010734077455 9.085019832944468 10.745828423495025
Al 8.151391876275676 9.47527562432073 13.40820771741524
Al 9.305241078362107 6.978508079479098 12.390215634422006
