47
Energy = -149.25311612 eV
Al 15.834775152205486 12.089494063241586 11.241075891502724
Al 14.419063599940404 14.428117986131527 11.195351387001136
Al 16.94703482265539 9.591601419398367 10.670789025672677
Al 15.088506380506901 10.860279020775945 8.968180415995231
Al 13.504495692249687 12.663917938315537 7.89863112890685
Al 13.839250527651593 15.37391184820519 13.663750726713591
Al 14.378782953585334 12.748589728280017 13.406522287530738
Al 9.998586165176041 14.06924748413306 7.9346932667445
Al 15.754227731027196 10.380148107360874 13.406626267288258
Al 12.241566184037902 16.17744765487932 11.592734695091586
Al 11.324041662980733 12.04775003241648 6.480812471012467
Al 14.625095947402428 8.21241027065393 9.350935105163188
Al 12.244133092414764 14.344352884721845 9.57226951593891
Al 13.052527447329195 12.0444149019989 10.695980169309822
Al 12.31600693591313 13.10685971236703 15.255826714326828
Al 14.10252039501803 9.820516152686563 11.409234780268424
Al 15.521348718441361 7.6433517883439785 12.096523394888889
Al 13.909563000011369 10.90921352808993 15.462240736683466
Al 11.80275401555382 13.58510889796113 12.544497156938005
Al 12.708481329561971 9.932046251261335 7.939585888127153
Al 11.338593686569885 15.618796932563944 14.491413912726017
Al 10.962710681473581 11.697231973184552 9.106868365306278
Al 9.023020191551925 11.03511767295589 7.287362983537799
Al 12.168438879279666 7.337539644106831 8.67728504846327
Al 11.356771128952504 9.654623354208763 10.82166304472638
Al 9.585370855976599 13.624890649727211 14.702523598069808
Al 12.926307183651119 7.2856964449240085 11.44416341622937
Al 10.230650096329802 16.006966208893772 9.810883122866981
Al 13.676222540303687 8.484219273255993 13.880558872437309
Al 12.153492804919289 10.901227097636504 13.247664778136642
Al 10.257943124907586 11.16493298368824 15.285456396058324
Al 9.718765231543063 13.210648206330484 10.818052750353985
Al 9.560053320431814 11.138384916473798 12.62191166133336
Al 7.614745663316809 12.843662213176476 8.608202302328957
Al 10.029258832095707 8.90838854225818 8.558241172536121
Al 9.590225390449664 15.443816628303574 12.447572066802596
Al 10.431504279696867 6.8653774027068755 10.64762405001591
Al 8.521374164178841 10.679243513246705 10.103790151046223
Al 11.753711665698717 9.034032397249467 15.58563964911377
Al 8.683366182222665 8.496331137545996 11.708216788516554
Al 10.951248474212736 8.190207972694916 13.15828119376392
Al 7.6851098997234955 11.572130811545007 14.693478839619207
Al 7.756886226520969 14.964594800156418 10.352206547558005
Al 8.656885910805064 8.948462691642016 14.411952356729756
Al 6.399295108938395 12.291799913621256 10.830795747702886
Al 6.8964052446853055 10.245129183301048 12.473805162904195
Al 7.690621839694861 13.534895237324346 12.763816930538729
