47
Energy = -149.71873752 eV
Al 10.182512299488517 8.351551628233748 14.366263167934425
Al 11.28794793701243 7.905884449291842 11.870208730317952
Al 8.60871970727717 7.930520902065906 12.097806005724488
Al 13.895450245300644 8.509080631709177 11.695971941655266
Al 15.49664470739194 7.857340025179451 13.76358556612102
Al 14.084422585069 9.11478269704007 15.661075211760409
Al 11.664415195594355 9.993085279663134 16.440725525500294
Al 12.762886898333866 7.213312986610939 14.017404797285016
Al 7.650474319710972 9.745533138276992 13.817981951393659
Al 9.782009268369013 8.958014720408007 9.898135478035561
Al 9.781914767638257 11.089937922577967 14.763126241275595
Al 12.453579954600704 8.964350732007789 9.443971074732369
Al 10.201040766325306 10.572212421923272 12.085172342006576
Al 14.956512368139016 10.106176852231359 9.582043834461011
Al 7.649335093976865 10.371765383441458 11.088580049380035
Al 16.4778039818342 9.389432829563253 11.628152072260658
Al 11.242232242473735 12.6804041591167 16.394664748233748
Al 14.93038766240555 10.5761422810508 13.475161337769558
Al 12.986476450333212 11.101617943856052 11.392595876477447
Al 13.700695199114048 11.836440969966098 15.584680109851215
Al 12.241721820163312 10.037887158229797 13.725557330682472
Al 8.17964639119786 12.320580292521685 12.950738456230274
Al 10.765911898461411 9.537206468273139 7.408338384070087
Al 14.145868031074617 13.104283335527713 13.138503530254935
Al 11.452061694179726 12.91080139366872 13.55813267271806
Al 8.389807118747536 10.885121181359125 8.602911012909468
Al 9.215048275213805 13.874098967445773 14.845615161882378
Al 13.425980736625563 10.937294880274125 7.585456752457691
Al 10.784225951120849 15.309457067865557 16.616541599557095
Al 11.232535162003105 11.492443476455733 9.304941869783473
Al 15.959946167273605 12.077152530403618 11.36822939582794
Al 9.15315370402553 12.727521068821217 10.453308928629589
Al 8.89375183679276 11.19525009913147 6.029134520774108
Al 13.106116413257272 14.464154367175468 15.352528234520022
Al 11.970475869335381 13.527395711710112 11.03728266387928
Al 9.66294473050041 14.622194075674841 12.176252416148486
Al 14.230553972860466 12.84259716947311 9.426597031233678
Al 11.4043250502494 11.945395184702924 6.258297715227812
Al 10.963190393545934 15.958862819395836 14.032688259333154
Al 13.357166286539147 15.593261017391109 12.864978545660488
Al 9.477213364471671 13.294442986075728 7.817437091986816
Al 12.223249498576022 13.750641570903872 7.963845475255238
Al 10.321130640700629 15.227877671793628 9.533195510748495
Al 15.28857001542828 14.74181739544353 11.179104889195942
Al 11.40966692195329 16.890068599681065 11.421444422217288
Al 13.155722873328243 15.504222036542174 9.611145173280159
Al 14.224900347180672 17.39073033503907 11.100833708553077
