47
Energy = -149.77204914 eV
Al 6.878454491701635 12.460881523343692 11.890732363205023
Al 7.9697164896500725 10.015414698626323 13.125416806888305
Al 8.509884150055063 12.643564183997437 13.944320806855295
Al 8.082989153952568 10.633989530674048 10.36882173839699
Al 9.299813941068338 12.894432572353328 16.478172754925836
Al 8.152427651834445 14.951242439904801 12.360827866109993
Al 9.83877673668799 10.53520074739228 14.962377732528894
Al 9.07609322312052 13.164039975683977 10.492822323348253
Al 9.239281857635087 8.311809758690867 11.25253296609713
Al 10.29079991821591 11.1416501436833 12.180055984397475
Al 9.594794607436386 15.012689633384772 14.760344548836024
Al 11.935526726669513 8.860289948713191 15.80855095159554
Al 9.226179586807842 11.74540488623536 8.2105833570716
Al 11.315984951235919 11.293810791948783 17.035928533720583
Al 10.547781457000996 9.714059899105994 9.389603093783965
Al 10.019836470472502 15.780668730974545 10.492899206594414
Al 11.775979120289007 14.385181194780222 16.737145952183972
Al 10.626970176258984 8.403977791491386 13.52044462721493
Al 12.117774274651895 9.133331775710145 11.385794570724828
Al 10.7257570002967 13.98896276705164 12.396604647128651
Al 10.456584531230405 14.170216624964773 8.412302925249017
Al 11.582338302743374 12.840737471667012 14.563513891782
Al 10.239429887885565 12.854899130058973 5.964699857393537
Al 13.43185373822946 7.927467010282543 13.468349700101122
Al 12.512651923373433 10.551451942440416 13.713950534369769
Al 11.76899722903875 11.11664791991314 7.4421185089846364
Al 11.742295821756107 12.282813992903428 10.203844926760912
Al 12.303997294418505 16.308408281701894 11.674477885974301
Al 13.33429537705987 9.608132915398139 9.023586534550388
Al 14.463699890145993 9.766781708076461 15.550495550094187
Al 13.332941438206067 13.736165422713476 12.203485780901431
Al 13.990521578399346 11.210150300425624 11.368064444634939
Al 12.078759186004248 15.714599634104482 14.22855194192852
Al 13.703087387551763 12.239787835241012 16.417740453685322
Al 12.602598033698495 13.733927816753763 6.887968901669467
Al 14.729687988410697 8.359222650827522 10.951294530496188
Al 14.214358472341921 14.458533736070851 15.051631939310786
Al 15.655094577464254 9.61201743137894 13.199892703690848
Al 14.738633081683632 12.045683993837132 13.913887304932876
Al 13.063786424422165 14.619208569553527 9.438691996883726
Al 14.107148436516189 12.154249584604457 8.400720291396535
Al 14.83333265825176 15.822005170042127 11.057653684587937
Al 15.549210887073574 13.439861801730917 10.215087238807318
Al 15.95695619116986 10.716099068255598 9.47979286391142
Al 15.947155990438091 14.271917812064226 12.92023006410554
Al 17.370824877145296 9.228154163488268 11.147420610422259
Al 16.755081574519476 11.830399781975558 11.996708865988357
