39
Energy = -82.68632817 eV
Ag 14.738021919806629 11.905893404778706 9.360397424404002
Ag 12.907045159195935 9.787287889348748 9.565323549931277
Ag 12.204519131572969 11.86256633492862 7.818059778934821
Ag 15.990879428471953 14.420548986588084 9.815777006379406
Ag 10.398976174925368 9.463432515832087 8.34400305823912
Ag 15.073535934091982 10.060164138909004 11.442651103006884
Ag 10.80621202192203 8.173066418860966 10.842299986188328
Ag 15.606708686923362 12.747288930890988 11.962772558602529
Ag 13.556124288300522 7.66896931761186 11.213611801246472
Ag 15.389027895338076 11.015338612344431 14.117885638173917
Ag 13.707794967534902 14.161512081971596 8.132383686585305
Ag 14.27161826157486 8.521425278903264 13.707165444000362
Ag 9.449756832592733 12.101456851515445 8.221828591278797
Ag 12.163637354980546 12.44138484058252 10.672726760941977
Ag 9.738585241377057 10.686972010939021 10.784183234271557
Ag 10.457281357125142 10.788763236389048 5.952121684346002
Ag 11.075289725574043 14.377452875626917 9.048353401567548
Ag 15.63529706801138 15.55246352774169 12.386518170840446
Ag 12.26419741655771 10.097558476358312 12.319453655624415
Ag 9.84206346389332 10.12820289189595 16.264926971123845
Ag 13.386687588792636 15.138302264004393 10.698993454023832
Ag 13.107500493406103 12.59111215369526 13.577206551438291
Ag 15.404586579266082 13.81866436007656 14.584549278735851
Ag 14.85938492074159 9.331206099411272 16.2968075842554
Ag 7.19228045652626 11.394271079810087 9.804649111766226
Ag 15.028272837905945 16.514953496832156 15.081376451451936
Ag 12.360882714233608 10.02987193139205 15.128517091658106
Ag 10.43692647746791 12.441076183321107 12.92723494480811
Ag 8.87594564547461 13.459731318127792 10.578526013012356
Ag 14.067693106245285 12.022446447184388 16.412039533679767
Ag 9.761694355047055 9.755478612575558 13.532261324446043
Ag 10.799684679690355 15.105423703925467 11.792964286301295
Ag 13.121063774785563 14.653130079456577 16.077482877190352
Ag 7.738656652159052 11.59919124547623 12.569301533401482
Ag 13.018430636172939 15.5668952924937 13.421596697944716
Ag 11.33447452085134 12.481206405984556 16.103736446176683
Ag 10.626901147580018 14.736096789294589 14.66121875631723
Ag 8.335825182133322 14.418492936889686 13.10905121259752
Ag 8.721236114188342 12.435401190469701 15.124743557545733
