10
Energy = -69.92147679 eV
Mn 9.38971204401988 6.939412264491975 6.0984109463373795
Mn 8.354527884713011 7.392276006321154 8.157487713551864
Mn 6.9248659524035565 6.143265431107247 6.016702221213669
Mn 9.01667220297574 8.955847711843207 9.8220898109473
Mn 7.382424639639341 8.478061261382692 6.026476516162345
Mn 9.361706885985482 9.451251692914072 7.208899100573384
Mn 7.260028563707598 5.329892988498609 8.453324844178443
Mn 6.9842895822089535 9.548651625410411 8.372042430794211
Mn 5.840313939476154 7.294036558825617 7.7516928321304865
Mn 6.768179195837689 7.515083625617361 10.056090974128765
