10
Energy = -69.76738107 eV
Mn 10.577341315304874 7.71907176442518 6.396351148980328
Mn 10.744627931633445 6.821928133961725 3.765945489818818
Mn 11.148595694015787 5.551034967235235 6.0346742204133355
Mn 8.809802543340645 6.88273041076637 5.2942057276273635
Mn 10.359993037304287 9.147568306479211 4.640533516151047
Mn 12.16335016797748 9.186758524428983 7.176077053276176
Mn 12.58188886710031 7.403737942054618 5.13558530545827
Mn 12.856924825886404 6.443290729751022 7.595362848039521
Mn 12.138529780808666 4.783686565898123 3.9575660007946434
Mn 10.755332404317796 7.215460874283494 8.496413989796944
