14
Energy = -85.69795076 eV
Mn 9.675682274977957 11.495429817592766 9.47578131214573
Mn 10.046139138932228 12.240601948506276 11.84793413563949
Mn 11.650261851783995 11.466319832607923 15.819893513751678
Mn 11.513071958180435 9.044137397440098 15.320461242963923
Mn 9.867447254678961 13.980842634757643 9.98002009644138
Mn 13.10821148325969 9.89398527386652 17.36675627996821
Mn 12.25971964847945 6.634383617937625 14.684318302991837
Mn 10.634674585481605 15.678331573149675 7.9999190163456495
Mn 10.820589608741457 14.730589836522201 5.844162924792513
Mn 10.858558322715382 10.06663813659111 4.8630434806663265
Mn 10.841524384396795 8.364152623089897 6.490001276350136
Mn 10.75288050857726 12.453806624141958 5.166059691346709
Mn 13.115909534940696 7.624316299950288 16.640977118333055
Mn 12.487834670305196 13.947513463000893 16.13040221753393
