11
Energy = -66.00170651 eV
Mn 9.057595629522783 10.265020035574508 10.72866590210149
Mn 10.43586807785489 10.70703904649257 13.115157272606215
Mn 4.5616615424117235 10.608053352147698 9.192221108601977
Mn 8.606997657924007 10.234019833650187 6.813958819503568
Mn 10.73319986665793 10.217376365561297 8.531987926729622
Mn 15.08922314000651 10.426026371716851 7.797542776096249
Mn 6.425556444201669 10.368682917658187 7.859659318743916
Mn 10.094785278205574 11.212819934591488 15.548816884223621
Mn 12.365316937855026 11.152430961974552 15.03008268635002
Mn 15.705965472959118 10.904511847528019 12.310298129459257
Mn 13.322065927666888 10.314639708356484 9.488811220527351
