13
Energy = -93.19547617 eV
Mn 7.859648925667083 7.219357370414326 8.193803438009645
Mn 6.983746512926938 8.855896747990899 9.995112701020133
Mn 9.599460933646505 8.447564557089159 6.613065268234951
Mn 10.088837785684413 11.138004791766468 11.611968295142526
Mn 11.102660722159797 8.826708874082838 10.969846286039905
Mn 8.673511211284078 9.373504261604102 11.772948594099784
Mn 11.651417161618678 9.021690294787513 8.227604550995688
Mn 9.925032766300772 10.872689839752958 7.45676354079565
Mn 11.176808849670328 11.05993328243462 9.60763753664203
Mn 9.482750884372964 8.900375066821502 9.149285279482578
Mn 8.55709817271288 10.937350948233977 9.69098575485457
Mn 8.907433247499405 7.147337254684634 10.657377881601827
Mn 7.546779826455985 9.75477361992661 7.608787873080988
