19
Energy = -120.64798038 eV
Mn 11.031575508525059 11.022072602673525 11.05048742936711
Mn 13.48784691676593 9.104344298210714 8.019784654614543
Mn 10.615235493830074 15.23233716324766 13.410655152790577
Mn 12.543371047054578 13.34417578509279 7.718786342875899
Mn 11.717765744898001 15.40364507081277 8.73053633193498
Mn 13.354585641540858 11.26548355093392 6.679009736865974
Mn 12.81163629358443 9.226580170590204 10.40760455359875
Mn 10.367995601081972 10.967089859448242 13.51227594968793
Mn 13.263696237330974 7.130484298065104 11.8384358696548
Mn 14.069063223637308 13.493661036366316 5.668321215860704
Mn 13.18768892628596 15.59321215557039 6.680809928141094
Mn 12.624426017873821 17.53527867154851 7.896143858643213
Mn 11.559741030402527 17.62120300575779 9.989549844646202
Mn 11.34626501970757 9.089851318158395 15.135624998661187
Mn 10.596536957848464 11.164888946299445 16.209958499850014
Mn 10.360885935412696 13.294634616270685 17.13924576760726
Mn 10.263476347280493 15.393607821175536 16.073743792984658
Mn 15.28685501771211 11.578657997500185 5.090377571958389
Mn 14.225279240638544 7.164868897228677 9.638286539839177
