12
Energy = -70.97409907 eV
Mn 12.076579899631447 10.273756934114056 7.149080923649723
Mn 13.247980251058705 9.515592416043132 5.164829440787897
Mn 15.226342095324775 8.34063279181602 9.470169340070154
Mn 13.940923313552299 9.031334091693266 11.536507734608476
Mn 9.337705354405287 12.843127499879351 11.24436031404776
Mn 10.849658012030483 11.31591760360387 9.275541283203115
Mn 8.996302933986385 12.877478276856717 8.569610586786748
Mn 7.58376923700136 14.097986339027145 10.024077909250108
Mn 8.999543244946565 13.301682885038487 13.878834600092052
Mn 10.099274403563857 12.584041768158857 15.884574618655469
Mn 12.068097845100123 10.961103393889625 15.70072934325852
Mn 13.242728292079867 10.519157760340006 17.770702778671943
