12
Energy = -79.91680653 eV
Mn 10.071194829301536 8.273255313131926 12.44444169436056
Mn 10.740579427846763 10.047610310190482 10.851564196998261
Mn 11.976760663184637 11.97193819612444 9.378507456260612
Mn 11.988941668281386 9.838852121414495 12.920012157713478
Mn 12.790292227753852 11.608171979271805 11.561108699258174
Mn 13.841846076070526 13.427900960957723 10.291693728300459
Mn 8.367122800793789 10.764359034770187 6.347896458380066
Mn 6.460402763469978 8.89253353876645 6.410410404366634
Mn 6.692566793021906 7.577117020932829 8.714557213897459
Mn 7.635435852558091 9.732939261729282 8.33839801410672
Mn 8.897250257490311 8.536173840766736 9.990643498937894
Mn 9.826225466769515 10.603512828895164 8.6242013492637
