13
Energy = -78.04895333 eV
Mn 12.943399151240355 6.325530340912649 5.456318555783591
Mn 10.815207354639483 5.9092955417754265 4.61837005029055
Mn 8.913199215543283 8.278516009770227 7.584434305137313
Mn 13.75645451041305 9.460605974774529 9.03764689022088
Mn 11.605717534666587 10.700796178771903 9.922171286417447
Mn 9.18911302793706 9.79982168286278 9.451589760917743
Mn 9.482661699608286 11.334977274336058 11.278370542132292
Mn 12.189008867161569 13.679086351868127 13.822273403882434
Mn 14.6177090574221 14.171851264751574 14.424050174985998
Mn 12.482472402887508 15.0737654750424 16.065854166749588
Mn 15.129270223704912 15.486549728866901 16.227343509359752
Mn 9.988502692886774 15.880893258123525 16.718785293976453
Mn 11.613635580319304 16.599048208209656 18.08790626757325
