13
Energy = -78.87296328 eV
Mn 10.183833303088779 10.18355202929353 10.184308835051112
Mn 10.906887840593601 5.1234576118416015 13.271286326821588
Mn 11.258598542760607 11.822346394358528 14.684584578926387
Mn 10.840788858224471 9.221176486285767 14.429452653235543
Mn 11.457001688079645 13.410247197829289 12.67473090882377
Mn 10.196796481915941 8.63045230438312 5.294822477231413
Mn 10.683992176203216 11.768681716949477 8.1892913371806
Mn 10.891089475901026 6.7277178983553645 15.112124224537457
Mn 11.751566428484656 14.204491689156177 14.92779709174961
Mn 11.04641340479985 12.533438667662999 10.450348388533952
Mn 10.162665302797249 6.2390315401700205 5.627084492950029
Mn 10.300552506515654 4.307813477429104 6.848008584493589
Mn 10.595958955101807 3.8390363814569035 9.217945494526937
