19
Energy = -120.12116028 eV
Mn 5.188259341559576 10.41795747982358 8.992748150537336
Mn 10.888200221429617 11.260796454957708 6.276925546880867
Mn 8.561933631033654 13.434135180981642 9.562391659725026
Mn 8.959412706678751 12.549634744717991 11.763907643575218
Mn 11.535871634893255 9.22958958879942 12.590525970434186
Mn 12.798573095963224 7.886929161252565 11.06524036598369
Mn 12.95943122324887 8.266070733269691 8.669289781447487
Mn 12.340282208786741 9.344539058730405 6.6359066000786715
Mn 5.864627297491909 10.145475471381364 6.70723710021051
Mn 5.29770317731526 9.899703505697643 11.349551364090992
Mn 8.325543595956349 10.831967315588813 6.2040337766657245
Mn 6.754776987505963 11.848837146503927 10.526182934975553
Mn 8.711885089593595 6.62587213525376 6.2639001078097705
Mn 9.896375080063944 8.915387212923687 5.8677859858867585
Mn 8.097756422133802 6.256603902558357 12.32978528415233
Mn 6.529492432457694 8.074832103187155 12.314137590614918
Mn 9.12919557646524 5.285429791843808 10.38153898310988
Mn 9.588304169439239 5.2612036145493235 8.02533382752588
Mn 11.202783284094055 7.087361737335372 7.085371687142606
