11
Energy = -57.93319767 eV
Mn 6.044388680815274 10.135072453987588 10.515808349380181
Mn 11.121367937415926 11.067623679537688 6.796220697783816
Mn 10.783163722149864 11.590859042527956 9.098622046682856
Mn 11.322974092381433 5.040416827460513 9.617450466417026
Mn 6.27437956650425 11.413479087338954 8.524935852764663
Mn 6.121055493357974 8.07986433697164 11.777321285187606
Mn 8.689574368964742 11.553401591921263 7.5493640103078254
Mn 8.239188467690674 9.513017774622051 11.763215172083125
Mn 9.288567318266402 4.399284771914725 8.129997310892628
Mn 9.47859819191753 5.48470378974702 5.909381965180588
Mn 7.259419337701725 6.356592633682258 4.941803518630129
