10
Energy = -69.92482407 eV
Mn 8.28199566888445 10.436662067697135 7.6850866915183005
Mn 12.268932000291088 9.623144404968677 9.663434854809744
Mn 8.787314474957755 7.553689233760347 7.73672759373817
Mn 8.233610857975302 8.944207685347585 9.63797402818076
Mn 10.414633415698926 11.567838046384102 8.952511790522859
Mn 10.325092946273122 9.28963729086155 8.384197089253055
Mn 8.19020209482112 11.20637149895414 10.284609526146271
Mn 10.249093570267355 7.70068664996075 10.231672655370597
Mn 8.439033054994772 9.02655806408863 11.987047399064503
Mn 10.278412294688701 10.119525436830038 10.90505875024892
