15
Energy = -109.12103439 eV
Mn 9.87028601215676 7.497007595606918 8.251525056563928
Mn 10.478501911951398 8.250250674915646 10.514438861283505
Mn 10.037631969940596 12.391988919379116 12.307857030149318
Mn 12.08573368520889 9.210416730403612 8.778326316311016
Mn 9.546523833793689 9.847315311837203 12.028249312659398
Mn 11.21560460330363 10.81796654519104 10.496804491341399
Mn 12.67210040036423 12.113768172508115 12.037406217162319
Mn 9.736646419545623 9.813090669571151 8.731727707368249
Mn 11.2755958061075 10.680783005460352 13.516797383787779
Mn 12.365905173556108 9.279490541559031 11.701519732255118
Mn 13.20717915890123 11.637752556222438 9.455676136592754
Mn 11.090939369817617 11.65752966602213 8.011633800566408
Mn 8.06339236410438 8.778315580429732 10.097817813383147
Mn 11.23782803252518 13.18549793468005 10.191058384171605
Mn 8.889324378407837 11.546804405991208 10.166132796600907
