16
Energy = -101.52059014 eV
Mn 11.20972424891179 12.690317384535765 14.760445151153823
Mn 9.195320170098325 12.34615363107763 13.753338980699814
Mn 9.452588650290952 9.854444954577804 9.712863522448853
Mn 11.790144370814373 10.296494555666603 10.43220987311162
Mn 11.305332559408207 9.348229140565538 8.214753386688166
Mn 9.074134512760224 8.878645162982556 6.977810257928011
Mn 11.025135711631995 8.25955025591844 5.933006156913726
Mn 13.27280608204638 8.447579826719279 6.532393175045503
Mn 13.859253375469438 11.005372313839592 11.755517601159923
Mn 16.435678587641185 10.767745425024644 11.451441098981782
Mn 15.632966622609894 11.737640080063798 13.317431414045851
Mn 13.461029431128603 12.23341144455602 14.075569768105536
Mn 7.089692798186586 11.910560992921564 12.609901394172601
Mn 7.225409550396196 10.44429837460306 10.464601732619494
Mn 5.147260441538694 10.56716208053282 9.1378309931167
Mn 5.200493625473817 11.598899516709066 11.252803709596563
