19
Energy = -123.96151776 eV
Mn 11.572448351293355 10.28681085746729 8.431674050760936
Mn 10.7217209736335 12.754243610518518 8.058165696840883
Mn 10.387933665796057 11.152294955249872 6.2338817780467375
Mn 9.876379098306309 9.380531536181573 4.657892406296056
Mn 10.096926900716024 7.099944904959364 5.03787369892146
Mn 10.881328405101922 6.011131054429624 7.093103712572204
Mn 11.793756176723157 7.722129871148702 8.871803834037491
Mn 12.08093460085513 9.290550711057348 10.768683507331568
Mn 10.718476411351654 14.250513167458285 9.974196654640304
Mn 11.570519042386893 13.289012168364772 12.290401968806966
Mn 10.384756390431217 15.632710795986773 12.005214762737554
Mn 10.10126041574259 15.78222969544354 16.212263339942282
Mn 10.89273908582884 13.52276260258519 16.765009609701778
Mn 11.005884463036834 14.620971452863287 14.31234135409007
Mn 11.781747423596183 12.224243345546055 14.687684587116957
Mn 12.083960555735096 10.750187709552046 12.663196433037518
Mn 11.938946243383606 6.64692672257272 11.21547112432184
Mn 11.93906731501165 9.676672690624004 15.143364967627832
Mn 11.464964690070495 11.201873968160896 16.865438191969158
