16
Energy = -116.58462732 eV
Mn 7.513568379900639 10.466390224703574 6.967104321588442
Mn 8.271177205471602 6.5659851073546 9.235780361051617
Mn 6.141501497856083 9.736217442803616 11.187895847365894
Mn 11.89673580592969 10.040009915584617 9.764589637057718
Mn 8.13997437689574 11.261563676538055 11.738653747360372
Mn 7.741852821321685 7.3055546891039835 6.71589236004944
Mn 9.772629781421907 9.034195639937384 6.163253312945621
Mn 10.011623668323612 10.654116646286232 8.078620609297506
Mn 10.226301440451866 6.774797693084741 7.537485487603141
Mn 9.568382254563675 10.197369168914864 10.397684550679783
Mn 6.333574230284858 8.533766315151244 8.918673944216891
Mn 10.31041112462255 8.160333524153346 9.481260396150208
Mn 7.579803152602804 10.7090290330421 9.311111121948542
Mn 8.554853783706896 8.75389027722304 8.223369293190782
Mn 11.739481474065068 8.722938725629064 7.55076140157479
Mn 8.217225833166571 8.498984000687202 11.025185836726193
