18
Energy = -118.50479135 eV
Mn 5.151899197247628 9.974802049977644 7.245061241952487
Mn 5.7216270070508255 12.226504107694907 7.239405350625894
Mn 7.23808094765584 10.741680528954493 8.589326018435274
Mn 9.290040260763583 9.413480596997765 9.326291448906183
Mn 9.323888825232077 12.018036045019961 9.38546683702484
Mn 9.373754221161917 14.511779621342646 9.121548650538971
Mn 11.288097965782248 13.583501477594499 10.040707384368297
Mn 11.273892347976785 10.67129299301948 10.094808386911057
Mn 13.186054795718164 12.440982535539865 10.979169975839156
Mn 13.124684960323926 9.869354819502405 11.490729950835837
Mn 13.781138891481 7.3702590353837225 12.317003578449144
Mn 11.249680335663422 8.18601385548205 10.6264539001541
Mn 12.199832339760734 5.866555360954948 11.397466189553406
Mn 10.409578844471097 5.645876131758075 10.055946415622788
Mn 8.4497370576466 5.6822504484761165 8.68877299636596
Mn 6.359535623411784 5.854182388314359 7.746653347568667
Mn 7.384608258488902 8.12426625765304 8.105164407333774
Mn 4.980376132238563 7.618050294352128 7.341873267903985
