14
Energy = -84.77303613 eV
Mn 10.515227784433524 10.50647607521384 10.517865304872625
Mn 14.785753634149309 9.636539744271307 11.682366590795336
Mn 16.04546976770227 7.460561486233346 12.082724015324128
Mn 17.496829070985402 9.27070947040017 12.39711486329131
Mn 19.42610598494253 15.3754900054243 12.768317284821476
Mn 17.223188855820116 16.031635452086586 12.16007019258142
Mn 13.127144044399051 14.724398066692824 11.098916302889336
Mn 10.537538065082058 17.98672012671025 10.313055535634271
Mn 12.7198354532951 17.266326236790338 10.918407044389824
Mn 8.675961368493589 16.704160705401552 9.850868068513817
Mn 8.400316377296486 14.46618712711871 9.838234924729667
Mn 8.97700172890217 12.124163608586365 10.059688314532567
Mn 13.883933196137194 12.090847177632593 11.374365825982233
Mn 15.512155291881252 14.006160645370548 11.759142464975662
