15
Energy = -109.15940655 eV
Mn 11.288954946651202 9.216108367539405 7.327051697769857
Mn 12.621506286782866 10.807377642882937 10.949560628946614
Mn 12.748220470071976 8.995519267014341 9.270139414431666
Mn 11.538239593505747 11.246923373306176 8.617302483524414
Mn 11.284919345662539 8.440492065633338 11.367547125051207
Mn 10.704715627612122 7.53663276642245 8.968484819467315
Mn 11.020797254251027 12.813045423698513 10.557267232359996
Mn 10.85709322891549 11.174050096255414 12.58633556889749
Mn 9.04235248825948 9.490670424715729 8.239506155918821
Mn 8.957388977118962 9.581807460623308 12.327711372620024
Mn 9.086701117382008 12.044723170827012 9.020161424487888
Mn 8.771424674015407 12.059291112309895 11.57307620790314
Mn 8.67977150108832 7.92637072190829 10.333335132844
Mn 10.233900865065912 10.087848590676115 10.202000478693417
Mn 7.592770703733727 10.245156844521393 10.234656239641515
