11
Energy = -77.37033962 eV
Mn 8.266308076534788 4.821207551028273 11.65600924047096
Mn 7.109488768190437 8.455155609915211 9.198419007723574
Mn 10.619956140972295 10.500518164892545 10.700764673995687
Mn 9.719144439726847 8.250850483179883 10.641847174780493
Mn 9.168882079924469 9.628515648904193 8.852914995681383
Mn 9.087590597810776 7.0084197324320066 8.487224955124985
Mn 10.163160107885055 6.048294820996445 10.524041371031844
Mn 11.401406904703316 8.270189662275907 9.137105900554612
Mn 7.269827086547532 5.61938315157483 9.486603392268625
Mn 7.827425550821357 7.222595969033568 11.034417433536312
Mn 8.057735001242538 9.888055280906359 11.185831949169911
