15
Energy = -109.20278454 eV
Mn 10.202683588208487 10.666852945762438 12.279097414156817
Mn 10.705072457436748 8.033002811269391 11.38388779433482
Mn 10.040941891349418 5.968536582062601 9.555570112342686
Mn 10.742376120108013 10.027477758834523 10.102506408462675
Mn 11.818988295736245 8.213265843553096 8.748299064551311
Mn 9.564440771099445 12.118875206037984 9.964130200668214
Mn 8.136284906437592 7.248603997354178 11.020284225191432
Mn 9.740728363534119 8.947318465856766 6.907179993716481
Mn 9.504144988768024 8.183621931295498 9.180848782845251
Mn 8.4686079387562 9.70253585414711 10.812032232126375
Mn 11.099125417914442 10.680112891228003 8.068443167630551
Mn 9.13847892850796 11.94258987154222 6.985918857057849
Mn 8.670551084172182 10.345653653432079 8.516494007994147
Mn 7.147530010555389 8.540618685517805 8.721132880044904
Mn 6.867821676276306 11.220299258656677 9.637252765693145
