18
Energy = -117.20084059 eV
Mn 7.9657583411555954 9.29879523082436 8.803700742144427
Mn 10.497516113434676 11.920234890993017 11.269741194931242
Mn 9.173793155764033 11.476947626839065 9.22166270589155
Mn 12.23835198295621 13.714772440378093 11.302322613843312
Mn 7.983408851322119 6.907004485143217 8.08350738983758
Mn 9.630518006966303 12.996708035009462 7.184827088306051
Mn 9.792772763134801 7.706158746217728 12.432914363356513
Mn 11.18436892129166 13.112205108767347 9.141156286351983
Mn 7.375601274199107 8.696449898928433 6.432460637498096
Mn 8.286509029627622 7.403527181434004 10.496210136024349
Mn 8.1116119164688 11.022425017908782 6.93203622266818
Mn 11.581317288355926 14.73732806873618 7.138758563986099
Mn 12.798898395893225 9.974296503285426 14.599721007500749
Mn 10.644071710092076 5.733512949185573 13.686460190163368
Mn 9.220247355138024 5.304466425758084 11.801904978936147
Mn 8.156615794147054 4.917497333384323 9.640914254661181
Mn 14.26577637018974 11.81286214633297 14.489833886119841
Mn 12.910226151805302 15.091070205326561 9.167562743910626
