19
Energy = -119.63842937 eV
Mn 11.213869867093512 11.789484361720188 14.27156131145853
Mn 10.52656114044072 10.054731047840349 12.516169474645706
Mn 11.177077670819779 13.627199643630371 10.157032180181785
Mn 11.215393686866207 13.373267821973043 7.593024467985975
Mn 9.56236184652577 9.367515682832146 5.673251371766857
Mn 9.95091202871394 9.326969933238072 8.20269177938101
Mn 9.112324809181432 5.0135275542185385 7.3479400671204775
Mn 10.308303444029988 11.113444532028206 9.98820761727073
Mn 11.605738698821328 14.297497787890515 12.78043418117814
Mn 12.426662360820906 13.018707543520748 16.23390492813721
Mn 11.31104813772243 9.131715647064839 14.803395869873258
Mn 11.980985436547241 10.772673264668567 16.372465781168202
Mn 12.106872267829578 15.246129578634488 8.536512840007946
Mn 10.291419672971182 11.347647762912864 6.59925866386223
Mn 9.189057097899838 7.1107859658939985 6.283800094486289
Mn 9.628698198215295 4.439188677098944 9.519339326937693
Mn 10.769911747931843 7.614922499621886 13.042778616446231
Mn 12.76857197463296 15.069198410533328 14.979473735460891
Mn 12.879581892008687 16.320604450659452 13.121649113692191
