15
Energy = -99.85732557 eV
Mn 9.186438984128813 7.7746706984965215 6.056152508735132
Mn 12.814997565155872 11.45151384064093 8.930501495854475
Mn 8.199253833839954 11.652317127757646 7.306838432534339
Mn 8.610056847724742 5.767563123750869 7.502155812456743
Mn 6.817776012278749 7.617771050049489 7.1131192776803855
Mn 10.724380196208081 4.984199265300244 8.729929744635646
Mn 8.912904261696749 13.289604698909205 8.96292797602848
Mn 9.449462696459424 12.042344160315576 9.87021966173845
Mn 9.452230400008126 9.449722923905034 9.914722237485954
Mn 11.398160360015403 10.489624970996644 10.7760875564937
Mn 10.01059409483165 7.081811231958721 10.155545432472902
Mn 7.758008252029802 6.214077267951511 9.327910502713587
Mn 7.2906847689225165 10.69608977706767 9.843450164540673
Mn 7.7428956369895 8.234269571560475 10.9801037885939
Mn 9.01331159478768 10.633121699129134 11.899493537096218
