16
Energy = -100.65663261 eV
Mn 11.671805314766571 13.529078081621023 10.07078269632268
Mn 11.509863666396738 14.735028972573502 12.341926898655657
Mn 10.799517564040382 17.332132620065476 8.352578101254238
Mn 10.608847926251734 16.394606419888962 6.21815775511227
Mn 11.504251795006198 12.538720997885639 7.720982720814704
Mn 11.681660311506253 12.133562005045897 12.098899688617744
Mn 11.689308107115169 10.744457519252615 14.02009185928798
Mn 11.665683765223116 12.105019277673552 16.462543611793706
Mn 11.789934219838672 10.620615256931819 18.317812452060576
Mn 12.01283924766811 7.052279515151634 16.11887847577021
Mn 11.907896841594106 9.552590046378295 16.091213034593792
Mn 11.916186545989772 8.187799319182806 13.96694270998224
Mn 11.704510777493912 9.341613049537042 11.774457542536474
Mn 10.997324656075 7.708373420141542 7.198009063483434
Mn 10.880250635136816 11.563467857250474 5.403801770694
Mn 11.300719659891527 10.106720499333077 7.482558750340425
